TITL C-1154801-8518-264 -0.000226892032158526 125000 -324.24479938717 0 0 60 (C1) n - 1
REM
REM in /home/nfs/bkarasulu/CARBON/AIRSS/Generating-Clusters/AIREBO/Higher-Symm/Only-C60
REM
REM
REM
REM
REM
REM ./C.cell (28575a23ae977d3b5fae324c64b13b57)
REM
REM compiler GCC version 9.2.1 20190827 (Red Hat 9.2.1-1)
REM options -cpp -mtune=generic -march=x86-64 -g -O0 -fpre-include=/usr/include/finclude/math-vector-fortran.h
REM seed 615673236 -950236645 -726236993 -240266980 288352182 718308950 906625249 -491717060 -1697984392 -1922612564 -1277479171 1626685442 485636432 1394482303 1432209008 1525668064 -2130331175 -377824181 -1636871271 -1552825367 1414500401 -753365978 -593224806 751143178 -849158417 -974547462 -1085240931 -1653478337 141037533 -1885287949 1805074890 -1081633226 -1732299548
REM
CELL 1.54180   50.00000   50.00000   50.00000   90.00000   90.00000   90.00000
LATT -1
SFAC C  
C      1  0.4437430000000  0.5513830000000  0.4939370000000 1.0
C      1  0.5543940000000  0.5370520000000  0.5401660000000 1.0
C      1  0.4433920000000  0.4757230000000  0.5522250000000 1.0
C      1  0.5521920000000  0.4457650000000  0.5130990000000 1.0
C      1  0.4483000000000  0.4658340000000  0.4576010000000 1.0
C      1  0.5544490000000  0.5148310000000  0.4490430000000 1.0
C      1  0.5018410000000  0.4299170000000  0.5116780000000 1.0
C      1  0.4978490000000  0.4580430000000  0.4429080000000 1.0
C      1  0.5025280000000  0.5277820000000  0.4431570000000 1.0
C      1  0.4953150000000  0.5659090000000  0.4936140000000 1.0
C      1  0.5048080000000  0.5491530000000  0.5471000000000 1.0
C      1  0.4929700000000  0.4791420000000  0.5639630000000 1.0
C      1  0.5600840000000  0.4915830000000  0.4713710000000 1.0
C      1  0.4385410000000  0.5216280000000  0.4815420000000 1.0
C      1  0.5606340000000  0.5286350000000  0.5091260000000 1.0
C      1  0.4387900000000  0.5016050000000  0.5322450000000 1.0
C      1  0.5587740000000  0.4766420000000  0.5221530000000 1.0
C      1  0.4402820000000  0.4699960000000  0.4895240000000 1.0
C      1  0.5340280000000  0.5337540000000  0.4318370000000 1.0
C      1  0.4635650000000  0.5770010000000  0.4986100000000 1.0
C      1  0.5282470000000  0.5322410000000  0.5585110000000 1.0
C      1  0.4701270000000  0.4647730000000  0.5537170000000 1.0
C      1  0.5299530000000  0.4272460000000  0.4973150000000 1.0
C      1  0.4716710000000  0.4724890000000  0.4347060000000 1.0
C      1  0.4787040000000  0.4578070000000  0.4710060000000 1.0
C      1  0.5233180000000  0.5017960000000  0.4531800000000 1.0
C      1  0.4734950000000  0.5423870000000  0.4812920000000 1.0
C      1  0.5263570000000  0.5452290000000  0.5210830000000 1.0
C      1  0.4848970000000  0.5064890000000  0.5513360000000 1.0
C      1  0.5211220000000  0.4546210000000  0.5248700000000 1.0
C      1  0.4304770000000  0.4926430000000  0.4678670000000 1.0
C      1  0.5692690000000  0.5223070000000  0.4782000000000 1.0
C      1  0.4313080000000  0.5277110000000  0.5136240000000 1.0
C      1  0.5679700000000  0.5065890000000  0.5327920000000 1.0
C      1  0.4297000000000  0.4720540000000  0.5212400000000 1.0
C      1  0.5683720000000  0.4673400000000  0.4922940000000 1.0
C      1  0.5244260000000  0.5016900000000  0.5538780000000 1.0
C      1  0.4761550000000  0.4578750000000  0.5241570000000 1.0
C      1  0.5281180000000  0.4541510000000  0.4809210000000 1.0
C      1  0.4730240000000  0.4968710000000  0.4527740000000 1.0
C      1  0.5273520000000  0.5397700000000  0.4646300000000 1.0
C      1  0.4763540000000  0.5533800000000  0.5194600000000 1.0
C      1  0.4773750000000  0.4409460000000  0.4954130000000 1.0
C      1  0.5240820000000  0.4711640000000  0.4516730000000 1.0
C      1  0.4734020000000  0.5293230000000  0.4536480000000 1.0
C      1  0.5236890000000  0.5583010000000  0.4920830000000 1.0
C      1  0.4757700000000  0.5355440000000  0.5467740000000 1.0
C      1  0.5214670000000  0.4687010000000  0.5520120000000 1.0
C      1  0.5517780000000  0.4842760000000  0.5530060000000 1.0
C      1  0.4477640000000  0.4454900000000  0.5100910000000 1.0
C      1  0.5545930000000  0.4606460000000  0.4618640000000 1.0
C      1  0.4417760000000  0.5182510000000  0.4484540000000 1.0
C      1  0.5558390000000  0.5521970000000  0.4868670000000 1.0
C      1  0.4449420000000  0.5312720000000  0.5444280000000 1.0
C      1  0.4930390000000  0.5278180000000  0.5050140000000 1.0
C      1  0.5141050000000  0.5141980000000  0.5255610000000 1.0
C      1  0.4937430000000  0.4869680000000  0.5248980000000 1.0
C      1  0.5079130000000  0.4716560000000  0.4985700000000 1.0
C      1  0.4928940000000  0.4883970000000  0.4753710000000 1.0
C      1  0.5089350000000  0.5160140000000  0.4805220000000 1.0
END
