TITL C-1154816-9297-546 0.00144097618721053 125000 -343.678896481583 0 0 60 (C1) n - 1
REM
REM in /home/nfs/bkarasulu/CARBON/AIRSS/Generating-Clusters/AIREBO/Higher-Symm/Only-C60
REM
REM
REM
REM
REM
REM ./C.cell (28575a23ae977d3b5fae324c64b13b57)
REM
REM compiler GCC version 9.2.1 20190827 (Red Hat 9.2.1-1)
REM options -cpp -mtune=generic -march=x86-64 -g -O0 -fpre-include=/usr/include/finclude/math-vector-fortran.h
REM seed 770307968 1905015087 -672801862 944948229 614834505 -971213912 -71599930 1207817391 1444713192 2147182872 -1728387403 -1376288136 -788609471 276641766 148325696 -1878496027 -1712226533 280750155 -236103874 513852458 -159383172 -533113472 -254040706 1372955539 1874006644 -787017078 1142924011 -3975577 600383672 893403193 1606394988 -1818584930 383148701
REM
CELL 1.54180   50.00000   50.00000   50.00000   90.00000   90.00000   90.00000
LATT -1
SFAC C  
C      1  0.4830580000000  0.4299390000000  0.5190710000000 1.0
C      1  0.5153710000000  0.4466770000000  0.4518540000000 1.0
C      1  0.4838040000000  0.5262300000000  0.4345880000000 1.0
C      1  0.5260710000000  0.5619580000000  0.4879170000000 1.0
C      1  0.4798910000000  0.5480250000000  0.5538600000000 1.0
C      1  0.5246260000000  0.4810590000000  0.5567310000000 1.0
C      1  0.4737800000000  0.5086910000000  0.4989680000000 1.0
C      1  0.5297950000000  0.5018820000000  0.5230950000000 1.0
C      1  0.4891850000000  0.4824880000000  0.5058390000000 1.0
C      1  0.5221890000000  0.4802950000000  0.4979260000000 1.0
C      1  0.4708420000000  0.4985090000000  0.4666440000000 1.0
C      1  0.5324280000000  0.5118780000000  0.4905370000000 1.0
C      1  0.4690090000000  0.5183680000000  0.5548560000000 1.0
C      1  0.5235520000000  0.4554400000000  0.5443690000000 1.0
C      1  0.4827140000000  0.4325550000000  0.4851320000000 1.0
C      1  0.5188280000000  0.4779660000000  0.4449270000000 1.0
C      1  0.4766200000000  0.5515480000000  0.4554710000000 1.0
C      1  0.5199430000000  0.5671030000000  0.5148150000000 1.0
C      1  0.4555120000000  0.5257690000000  0.4626890000000 1.0
C      1  0.5472350000000  0.5413380000000  0.4870950000000 1.0
C      1  0.4544420000000  0.5181590000000  0.5253340000000 1.0
C      1  0.5509990000000  0.4966320000000  0.5492000000000 1.0
C      1  0.4689420000000  0.4568640000000  0.5038470000000 1.0
C      1  0.5401250000000  0.4748480000000  0.4695430000000 1.0
C      1  0.4637640000000  0.4485330000000  0.4650740000000 1.0
C      1  0.5368470000000  0.5064360000000  0.4454390000000 1.0
C      1  0.4656180000000  0.5568720000000  0.4855160000000 1.0
C      1  0.5345350000000  0.5486540000000  0.5339680000000 1.0
C      1  0.4458210000000  0.4959620000000  0.5574160000000 1.0
C      1  0.5409770000000  0.4523360000000  0.5219200000000 1.0
C      1  0.5106800000000  0.4361260000000  0.4765490000000 1.0
C      1  0.4972910000000  0.5021700000000  0.4490700000000 1.0
C      1  0.5060170000000  0.5515370000000  0.4694750000000 1.0
C      1  0.4957010000000  0.5489910000000  0.5259290000000 1.0
C      1  0.4968790000000  0.4994600000000  0.5541450000000 1.0
C      1  0.4963100000000  0.4476790000000  0.5392650000000 1.0
C      1  0.4351540000000  0.5459640000000  0.5214720000000 1.0
C      1  0.5666200000000  0.5233850000000  0.5572250000000 1.0
C      1  0.4420190000000  0.4667490000000  0.5153960000000 1.0
C      1  0.5674320000000  0.4629630000000  0.4853680000000 1.0
C      1  0.4049530000000  0.4719660000000  0.4564080000000 1.0
C      1  0.5713040000000  0.5223810000000  0.4750860000000 1.0
C      1  0.4269630000000  0.4763140000000  0.4710520000000 1.0
C      1  0.5633420000000  0.5045520000000  0.4549760000000 1.0
C      1  0.4370590000000  0.5586360000000  0.4939950000000 1.0
C      1  0.5609820000000  0.5391130000000  0.5338010000000 1.0
C      1  0.4523490000000  0.4755020000000  0.5405380000000 1.0
C      1  0.5649910000000  0.4659740000000  0.5129580000000 1.0
C      1  0.4329000000000  0.5111350000000  0.5020870000000 1.0
C      1  0.5682980000000  0.4921230000000  0.5222410000000 1.0
C      1  0.4275600000000  0.4841630000000  0.4984700000000 1.0
C      1  0.5731130000000  0.4766770000000  0.4581230000000 1.0
C      1  0.4352920000000  0.5306470000000  0.4814350000000 1.0
C      1  0.5675910000000  0.5206840000000  0.5085240000000 1.0
C      1  0.5134040000000  0.5237060000000  0.5393200000000 1.0
C      1  0.4827800000000  0.4751930000000  0.5368740000000 1.0
C      1  0.5254630000000  0.4464580000000  0.4971670000000 1.0
C      1  0.4537970000000  0.4733550000000  0.4622940000000 1.0
C      1  0.5175710000000  0.5237570000000  0.4640910000000 1.0
C      1  0.4796620000000  0.5396260000000  0.5030310000000 1.0
END
