TITL C-1154825-9328-493 0.000174314789060427 125000 -324.488813983156 0 0 60 (C1) n - 1
REM
REM in /home/nfs/bkarasulu/CARBON/AIRSS/Generating-Clusters/AIREBO/Higher-Symm/Only-C60
REM
REM
REM
REM
REM
REM ./C.cell (28575a23ae977d3b5fae324c64b13b57)
REM
REM compiler GCC version 9.2.1 20190827 (Red Hat 9.2.1-1)
REM options -cpp -mtune=generic -march=x86-64 -g -O0 -fpre-include=/usr/include/finclude/math-vector-fortran.h
REM seed 1773179587 -1846762756 918439050 513111383 -1487372137 -1453930333 1176424082 -1607685763 982850929 695284007 392047823 2068313633 1987885815 -1594388688 -1885883148 1406631397 522258230 1162185465 -1258111348 -267709658 -112631960 1099756984 1391533729 1131202739 -1284415974 -1640436986 -1735613348 -865673487 1065820275 -629112661 -323678447 1285286224 562748386
REM
CELL 1.54180   50.00000   50.00000   50.00000   90.00000   90.00000   90.00000
LATT -1
SFAC C  
C      1  0.4991930000000  0.4320070000000  0.4560210000000 1.0
C      1  0.5177360000000  0.4330250000000  0.5130630000000 1.0
C      1  0.4865630000000  0.4361540000000  0.5128800000000 1.0
C      1  0.4486360000000  0.5434440000000  0.5232890000000 1.0
C      1  0.5042480000000  0.5428820000000  0.4433180000000 1.0
C      1  0.5469960000000  0.5415460000000  0.5304520000000 1.0
C      1  0.5022180000000  0.4754350000000  0.4656880000000 1.0
C      1  0.5311620000000  0.4689170000000  0.5244920000000 1.0
C      1  0.4653290000000  0.4736120000000  0.5188400000000 1.0
C      1  0.4756670000000  0.4455880000000  0.4640310000000 1.0
C      1  0.5356050000000  0.4472590000000  0.4913550000000 1.0
C      1  0.4809380000000  0.4474240000000  0.5444730000000 1.0
C      1  0.5129160000000  0.4386820000000  0.5428480000000 1.0
C      1  0.4681550000000  0.4442570000000  0.4917550000000 1.0
C      1  0.5261370000000  0.4386950000000  0.4615830000000 1.0
C      1  0.4724280000000  0.4755130000000  0.5581200000000 1.0
C      1  0.4657260000000  0.4722730000000  0.4500720000000 1.0
C      1  0.5590510000000  0.4721850000000  0.4934650000000 1.0
C      1  0.5412870000000  0.5011490000000  0.4919130000000 1.0
C      1  0.4878320000000  0.5000020000000  0.5402550000000 1.0
C      1  0.4715370000000  0.5009330000000  0.4674300000000 1.0
C      1  0.5477890000000  0.4905170000000  0.4539390000000 1.0
C      1  0.5169720000000  0.4904120000000  0.5660350000000 1.0
C      1  0.4368010000000  0.4883170000000  0.4826390000000 1.0
C      1  0.4455130000000  0.5465180000000  0.4727240000000 1.0
C      1  0.5497310000000  0.5479450000000  0.4668680000000 1.0
C      1  0.5050410000000  0.5474600000000  0.5587410000000 1.0
C      1  0.5308070000000  0.5152390000000  0.4538510000000 1.0
C      1  0.5244080000000  0.5140010000000  0.5480320000000 1.0
C      1  0.4452610000000  0.5142610000000  0.4963480000000 1.0
C      1  0.5360530000000  0.5455160000000  0.4392560000000 1.0
C      1  0.5354530000000  0.5438230000000  0.5601480000000 1.0
C      1  0.4289030000000  0.5440410000000  0.4983890000000 1.0
C      1  0.4902690000000  0.4944300000000  0.5792900000000 1.0
C      1  0.4368810000000  0.4904560000000  0.4521030000000 1.0
C      1  0.5732740000000  0.4928440000000  0.4703860000000 1.0
C      1  0.4983960000000  0.5470270000000  0.4765580000000 1.0
C      1  0.5204010000000  0.5466430000000  0.5099420000000 1.0
C      1  0.4804910000000  0.5478700000000  0.5122390000000 1.0
C      1  0.4412870000000  0.5140580000000  0.5295230000000 1.0
C      1  0.5040750000000  0.5128330000000  0.4341750000000 1.0
C      1  0.5540740000000  0.5110230000000  0.5333900000000 1.0
C      1  0.5195910000000  0.4769020000000  0.4940610000000 1.0
C      1  0.4973890000000  0.4718330000000  0.5271870000000 1.0
C      1  0.4819300000000  0.4828120000000  0.4919920000000 1.0
C      1  0.5587800000000  0.4853660000000  0.5240020000000 1.0
C      1  0.4491830000000  0.4902720000000  0.5404440000000 1.0
C      1  0.4926090000000  0.4876770000000  0.4367210000000 1.0
C      1  0.5209090000000  0.5234450000000  0.4850740000000 1.0
C      1  0.5005940000000  0.5240630000000  0.5258750000000 1.0
C      1  0.4767200000000  0.5237450000000  0.4886090000000 1.0
C      1  0.5328270000000  0.4680910000000  0.4573580000000 1.0
C      1  0.5240640000000  0.4651460000000  0.5560680000000 1.0
C      1  0.4462040000000  0.4651660000000  0.4952800000000 1.0
C      1  0.4688910000000  0.5623620000000  0.4818270000000 1.0
C      1  0.5295600000000  0.5631470000000  0.4824510000000 1.0
C      1  0.5006010000000  0.5634500000000  0.5342810000000 1.0
C      1  0.4894330000000  0.5241010000000  0.5642720000000 1.0
C      1  0.4475650000000  0.5223230000000  0.4573330000000 1.0
C      1  0.5619100000000  0.5238820000000  0.4772490000000 1.0
END
