TITL C-1154816-9297-485 -0.00123873013020712 125000 -326.666355096122 0 0 60 (C1) n - 1
REM
REM in /home/nfs/bkarasulu/CARBON/AIRSS/Generating-Clusters/AIREBO/Higher-Symm/Only-C60
REM
REM
REM
REM
REM
REM ./C.cell (28575a23ae977d3b5fae324c64b13b57)
REM
REM compiler GCC version 9.2.1 20190827 (Red Hat 9.2.1-1)
REM options -cpp -mtune=generic -march=x86-64 -g -O0 -fpre-include=/usr/include/finclude/math-vector-fortran.h
REM seed 152105873 786193234 1566831003 -1225127750 -1043258673 -1090817016 1686782063 571507909 2047325417 -65862063 -760765397 801959026 -885313806 -2001321288 661065212 -2052792081 433765111 -1441503859 -1636929457 -1381777346 325370408 2021872531 -1451930780 -1746244463 1199566780 1883733255 1916335043 1834788100 2090978772 -1388165804 -394955443 -600743979 1925503842
REM
CELL 1.54180   50.00000   50.00000   50.00000   90.00000   90.00000   90.00000
LATT -1
SFAC C  
C      1  0.4590800000000  0.5096150000000  0.4892290000000 1.0
C      1  0.4918510000000  0.5448980000000  0.4893060000000 1.0
C      1  0.5399810000000  0.5212230000000  0.4892760000000 1.0
C      1  0.5291050000000  0.4674770000000  0.4890780000000 1.0
C      1  0.4806830000000  0.4635800000000  0.4881390000000 1.0
C      1  0.5405900000000  0.4911150000000  0.5642940000000 1.0
C      1  0.5036060000000  0.4569210000000  0.5625350000000 1.0
C      1  0.4606620000000  0.4820720000000  0.5626210000000 1.0
C      1  0.4723050000000  0.5312310000000  0.5641850000000 1.0
C      1  0.5212930000000  0.5365930000000  0.5646220000000 1.0
C      1  0.4733360000000  0.5082710000000  0.5200750000000 1.0
C      1  0.4989720000000  0.5306410000000  0.5195170000000 1.0
C      1  0.5277660000000  0.5123710000000  0.5198500000000 1.0
C      1  0.5193370000000  0.4789060000000  0.5195930000000 1.0
C      1  0.4853990000000  0.4764440000000  0.5192630000000 1.0
C      1  0.5134720000000  0.5610310000000  0.5242930000000 1.0
C      1  0.5613930000000  0.5089080000000  0.5236280000000 1.0
C      1  0.5255460000000  0.4455810000000  0.5223120000000 1.0
C      1  0.4556020000000  0.4600540000000  0.5190700000000 1.0
C      1  0.4487700000000  0.5315220000000  0.5235910000000 1.0
C      1  0.4326830000000  0.5012840000000  0.4694260000000 1.0
C      1  0.4814550000000  0.5663360000000  0.4627500000000 1.0
C      1  0.5578230000000  0.5371710000000  0.4633150000000 1.0
C      1  0.5515570000000  0.4544630000000  0.4651330000000 1.0
C      1  0.4785320000000  0.4369000000000  0.4670850000000 1.0
C      1  0.4774450000000  0.5099130000000  0.4397170000000 1.0
C      1  0.5026190000000  0.5226670000000  0.4410440000000 1.0
C      1  0.5225660000000  0.5028230000000  0.4416160000000 1.0
C      1  0.5098520000000  0.4776870000000  0.4406660000000 1.0
C      1  0.4819530000000  0.4819860000000  0.4394370000000 1.0
C      1  0.5408010000000  0.5596200000000  0.5175850000000 1.0
C      1  0.5696860000000  0.4828920000000  0.5183870000000 1.0
C      1  0.5037120000000  0.4310090000000  0.5120840000000 1.0
C      1  0.4338150000000  0.4771590000000  0.5136380000000 1.0
C      1  0.4579880000000  0.5571460000000  0.5171710000000 1.0
C      1  0.5621100000000  0.4723680000000  0.4913650000000 1.0
C      1  0.5050190000000  0.4283750000000  0.4852280000000 1.0
C      1  0.4232300000000  0.4756370000000  0.4878140000000 1.0
C      1  0.4612500000000  0.5596620000000  0.4879620000000 1.0
C      1  0.5448250000000  0.5548730000000  0.4887470000000 1.0
C      1  0.4659770000000  0.4650970000000  0.4577330000000 1.0
C      1  0.4560040000000  0.5203490000000  0.4572320000000 1.0
C      1  0.5058630000000  0.5464010000000  0.4582550000000 1.0
C      1  0.5461240000000  0.5073640000000  0.4588210000000 1.0
C      1  0.5198390000000  0.4559660000000  0.4583690000000 1.0
C      1  0.5326390000000  0.5592760000000  0.4585580000000 1.0
C      1  0.5654970000000  0.4849820000000  0.4609510000000 1.0
C      1  0.5071340000000  0.4261740000000  0.4529950000000 1.0
C      1  0.4368550000000  0.4702360000000  0.4593220000000 1.0
C      1  0.4520210000000  0.5500630000000  0.4576990000000 1.0
C      1  0.5579450000000  0.5392570000000  0.5298950000000 1.0
C      1  0.5532240000000  0.4583020000000  0.5277200000000 1.0
C      1  0.4771960000000  0.4374780000000  0.5225310000000 1.0
C      1  0.4339470000000  0.5039500000000  0.5252740000000 1.0
C      1  0.4827930000000  0.5673720000000  0.5288070000000 1.0
C      1  0.5248400000000  0.4717590000000  0.5523900000000 1.0
C      1  0.4798050000000  0.4654540000000  0.5509580000000 1.0
C      1  0.4629510000000  0.5078090000000  0.5524590000000 1.0
C      1  0.4964400000000  0.5384620000000  0.5525260000000 1.0
C      1  0.5352370000000  0.5158230000000  0.5528570000000 1.0
END
