TITL C-1154816-9297-640 0.000207239879425605 125000 -303.300263310784 0 0 60 (C1) n - 1
REM
REM in /home/nfs/bkarasulu/CARBON/AIRSS/Generating-Clusters/AIREBO/Higher-Symm/Only-C60
REM
REM
REM
REM
REM
REM ./C.cell (28575a23ae977d3b5fae324c64b13b57)
REM
REM compiler GCC version 9.2.1 20190827 (Red Hat 9.2.1-1)
REM options -cpp -mtune=generic -march=x86-64 -g -O0 -fpre-include=/usr/include/finclude/math-vector-fortran.h
REM seed -829957189 -179707957 2068513667 52774934 -1422123592 -877385718 -610862256 1355965495 -1126974232 -428928087 -1456865220 1245213752 -92581952 -2124901990 339800600 404298904 -1647632092 -1216634661 1358929163 -1404199114 1279999474 -66641565 -1275338591 1406978226 609279800 -2012219099 17883246 -310092008 264635489 -676843838 1604130647 1176461738 -2043019974
REM
CELL 1.54180   50.00000   50.00000   50.00000   90.00000   90.00000   90.00000
LATT -1
SFAC C  
C      1  0.4992310000000  0.5591210000000  0.5206050000000 1.0
C      1  0.4525990000000  0.4677810000000  0.5171040000000 1.0
C      1  0.5537640000000  0.4668130000000  0.5121780000000 1.0
C      1  0.4630160000000  0.5320420000000  0.4300660000000 1.0
C      1  0.4870150000000  0.4531960000000  0.4260900000000 1.0
C      1  0.5431860000000  0.5169280000000  0.4320650000000 1.0
C      1  0.5243370000000  0.5281840000000  0.5200760000000 1.0
C      1  0.4660240000000  0.5097870000000  0.5352150000000 1.0
C      1  0.5156920000000  0.4638170000000  0.5215760000000 1.0
C      1  0.4656790000000  0.5405450000000  0.5096970000000 1.0
C      1  0.4756180000000  0.4359790000000  0.5101070000000 1.0
C      1  0.5490930000000  0.5102850000000  0.5108180000000 1.0
C      1  0.4684100000000  0.4870280000000  0.4572990000000 1.0
C      1  0.5252050000000  0.4799320000000  0.4576530000000 1.0
C      1  0.5008550000000  0.5264910000000  0.4537710000000 1.0
C      1  0.4578290000000  0.4809760000000  0.5407920000000 1.0
C      1  0.5391030000000  0.4795790000000  0.5405460000000 1.0
C      1  0.5073150000000  0.5514120000000  0.5477390000000 1.0
C      1  0.5205560000000  0.5409580000000  0.4766360000000 1.0
C      1  0.4469550000000  0.5059220000000  0.4736350000000 1.0
C      1  0.5362580000000  0.4580060000000  0.4812050000000 1.0
C      1  0.5255070000000  0.4956490000000  0.4297310000000 1.0
C      1  0.4908440000000  0.5276380000000  0.4232580000000 1.0
C      1  0.4804490000000  0.4810650000000  0.4271520000000 1.0
C      1  0.4816670000000  0.4677010000000  0.4993780000000 1.0
C      1  0.5287510000000  0.4858620000000  0.4992090000000 1.0
C      1  0.4971410000000  0.5319720000000  0.4999880000000 1.0
C      1  0.4752570000000  0.5217110000000  0.5651730000000 1.0
C      1  0.5069580000000  0.4740490000000  0.5502620000000 1.0
C      1  0.5319480000000  0.5287930000000  0.5527690000000 1.0
C      1  0.4523950000000  0.5127480000000  0.5041830000000 1.0
C      1  0.5068730000000  0.4394390000000  0.5118310000000 1.0
C      1  0.5382970000000  0.5554940000000  0.5139900000000 1.0
C      1  0.4757340000000  0.4691350000000  0.5583390000000 1.0
C      1  0.5487750000000  0.5054700000000  0.5561950000000 1.0
C      1  0.4854930000000  0.5471470000000  0.5658220000000 1.0
C      1  0.5480800000000  0.4969640000000  0.4731920000000 1.0
C      1  0.4811840000000  0.5459750000000  0.4734160000000 1.0
C      1  0.4701290000000  0.4572450000000  0.4697130000000 1.0
C      1  0.4520190000000  0.5642420000000  0.4943800000000 1.0
C      1  0.4648720000000  0.4189360000000  0.4904500000000 1.0
C      1  0.5743130000000  0.5131230000000  0.5202600000000 1.0
C      1  0.4592500000000  0.5297610000000  0.4569420000000 1.0
C      1  0.4921670000000  0.4439970000000  0.4526780000000 1.0
C      1  0.5470140000000  0.5250190000000  0.4623420000000 1.0
C      1  0.4199950000000  0.4997300000000  0.4685680000000 1.0
C      1  0.5159810000000  0.4403970000000  0.4651610000000 1.0
C      1  0.5484580000000  0.5571040000000  0.4734980000000 1.0
C      1  0.4653650000000  0.4291680000000  0.5355640000000 1.0
C      1  0.5760590000000  0.5103790000000  0.5481660000000 1.0
C      1  0.4539300000000  0.5558210000000  0.5329790000000 1.0
C      1  0.4902240000000  0.5707700000000  0.4946490000000 1.0
C      1  0.4452650000000  0.4541150000000  0.4915000000000 1.0
C      1  0.5676040000000  0.4814520000000  0.4893670000000 1.0
C      1  0.4981950000000  0.4971490000000  0.4632300000000 1.0
C      1  0.4972300000000  0.4979830000000  0.4952270000000 1.0
C      1  0.5060790000000  0.4966970000000  0.5954600000000 1.0
C      1  0.5001420000000  0.5108890000000  0.5365810000000 1.0
C      1  0.4991240000000  0.4997450000000  0.5687180000000 1.0
C      1  0.4997570000000  0.5000970000000  0.4191420000000 1.0
END
