TITL C-1154802-8274-503 -0.000803714198893242 125000 -313.430795830711 0 0 60 (C1) n - 1
REM
REM in /home/nfs/bkarasulu/CARBON/AIRSS/Generating-Clusters/AIREBO/Higher-Symm/Only-C60
REM
REM
REM
REM
REM
REM ./C.cell (28575a23ae977d3b5fae324c64b13b57)
REM
REM compiler GCC version 9.2.1 20190827 (Red Hat 9.2.1-1)
REM options -cpp -mtune=generic -march=x86-64 -g -O0 -fpre-include=/usr/include/finclude/math-vector-fortran.h
REM seed 590121695 -1355393767 212942207 1116829772 -1658242956 -695377286 1131748525 114974687 1328648372 -829955781 -2101019592 437566454 875405954 -500183768 184710760 -333328484 295363684 35734273 -921783335 -503410000 536058402 1265369404 163662878 1461597166 -96605176 -145377377 1778345587 138073280 -1785448815 700027659 -209351994 -1646837370 -761569462
REM
CELL 1.54180   50.00000   50.00000   50.00000   90.00000   90.00000   90.00000
LATT -1
SFAC C  
C      1  0.4993990000000  0.5204720000000  0.4775130000000 1.0
C      1  0.4832600000000  0.4736060000000  0.4821260000000 1.0
C      1  0.5237460000000  0.4980060000000  0.4834230000000 1.0
C      1  0.4844000000000  0.5290320000000  0.5200670000000 1.0
C      1  0.4869550000000  0.4805790000000  0.5137830000000 1.0
C      1  0.5298490000000  0.5044700000000  0.5223390000000 1.0
C      1  0.5103950000000  0.4366340000000  0.4532150000000 1.0
C      1  0.5465530000000  0.5416440000000  0.4651270000000 1.0
C      1  0.4348940000000  0.5192200000000  0.4524080000000 1.0
C      1  0.5171300000000  0.4500540000000  0.5410660000000 1.0
C      1  0.5373620000000  0.5387240000000  0.5414150000000 1.0
C      1  0.4497880000000  0.5138670000000  0.5434350000000 1.0
C      1  0.4981450000000  0.5198350000000  0.5497810000000 1.0
C      1  0.4894580000000  0.4871570000000  0.5461500000000 1.0
C      1  0.5215210000000  0.4953110000000  0.5540080000000 1.0
C      1  0.4934180000000  0.5204680000000  0.4449770000000 1.0
C      1  0.4842340000000  0.4878720000000  0.4512710000000 1.0
C      1  0.5170600000000  0.4967230000000  0.4507760000000 1.0
C      1  0.4651400000000  0.4637020000000  0.5419660000000 1.0
C      1  0.5525140000000  0.4831880000000  0.5465910000000 1.0
C      1  0.4916180000000  0.5533020000000  0.5502180000000 1.0
C      1  0.4584360000000  0.4656430000000  0.4520520000000 1.0
C      1  0.5489250000000  0.4879270000000  0.4542510000000 1.0
C      1  0.4877800000000  0.5524320000000  0.4567430000000 1.0
C      1  0.4663120000000  0.5042670000000  0.5184740000000 1.0
C      1  0.5180060000000  0.4741690000000  0.5203910000000 1.0
C      1  0.5161590000000  0.5310850000000  0.5159490000000 1.0
C      1  0.4611280000000  0.4984320000000  0.4891960000000 1.0
C      1  0.5150280000000  0.4683960000000  0.4883790000000 1.0
C      1  0.5233410000000  0.5376540000000  0.4878650000000 1.0
C      1  0.4342310000000  0.4882010000000  0.5357350000000 1.0
C      1  0.5451500000000  0.4468570000000  0.5319110000000 1.0
C      1  0.5262080000000  0.5648910000000  0.5347250000000 1.0
C      1  0.4384270000000  0.4960280000000  0.4662890000000 1.0
C      1  0.5287440000000  0.4510380000000  0.4671600000000 1.0
C      1  0.5285850000000  0.5678490000000  0.4743330000000 1.0
C      1  0.4438100000000  0.5475100000000  0.4814500000000 1.0
C      1  0.4526500000000  0.4126490000000  0.4842710000000 1.0
C      1  0.5915970000000  0.5180000000000  0.4795600000000 1.0
C      1  0.4436610000000  0.5619580000000  0.5019200000000 1.0
C      1  0.4657850000000  0.4127220000000  0.5091160000000 1.0
C      1  0.5903320000000  0.5182410000000  0.5049090000000 1.0
C      1  0.4649880000000  0.5569080000000  0.5219310000000 1.0
C      1  0.4787950000000  0.4415490000000  0.5156610000000 1.0
C      1  0.5632890000000  0.5098480000000  0.5191800000000 1.0
C      1  0.4669130000000  0.5247970000000  0.4756280000000 1.0
C      1  0.4668720000000  0.4438760000000  0.4842180000000 1.0
C      1  0.5542040000000  0.5010090000000  0.4909120000000 1.0
C      1  0.4606570000000  0.5391870000000  0.5504640000000 1.0
C      1  0.4906310000000  0.4413130000000  0.5443060000000 1.0
C      1  0.5549800000000  0.5168900000000  0.5504430000000 1.0
C      1  0.4584280000000  0.5390620000000  0.4459520000000 1.0
C      1  0.4823750000000  0.4415560000000  0.4536980000000 1.0
C      1  0.5642100000000  0.5170990000000  0.4632790000000 1.0
C      1  0.4408050000000  0.4654930000000  0.4811500000000 1.0
C      1  0.5542340000000  0.4682870000000  0.4818730000000 1.0
C      1  0.4980870000000  0.5681430000000  0.4850980000000 1.0
C      1  0.4451250000000  0.4686910000000  0.5148600000000 1.0
C      1  0.5574210000000  0.4696610000000  0.5157680000000 1.0
C      1  0.4968510000000  0.5668170000000  0.5192450000000 1.0
END
