TITL C-1154828-9214-565 0.0120217688060128 125000 -345.952516312199 0 0 60 (C1) n - 1
REM
REM in /home/nfs/bkarasulu/CARBON/AIRSS/Generating-Clusters/AIREBO/Higher-Symm/Only-C60
REM
REM
REM
REM
REM
REM ./C.cell (28575a23ae977d3b5fae324c64b13b57)
REM
REM compiler GCC version 9.2.1 20190827 (Red Hat 9.2.1-1)
REM options -cpp -mtune=generic -march=x86-64 -g -O0 -fpre-include=/usr/include/finclude/math-vector-fortran.h
REM seed -379462113 -1416783340 -3529204 -345807093 720122630 -84399626 -641714153 -490683378 -1984074565 -415240335 -218684263 -379947986 -389825844 612631092 132006457 -765993882 -1366040132 -2136409273 1592813664 1017852401 1647997820 -441594511 -1947499506 -181676319 1805254509 -755792855 -981311574 -1050085807 -668031825 470931744 110090805 1916578277 161494821
REM
CELL 1.54180   50.00000   50.00000   50.00000   90.00000   90.00000   90.00000
LATT -1
SFAC C  
C      1  0.5277750000000  0.5089510000000  0.5197580000000 1.0
C      1  0.5163130000000  0.4785230000000  0.5250250000000 1.0
C      1  0.4837530000000  0.4778150000000  0.5165690000000 1.0
C      1  0.4730350000000  0.5098020000000  0.5205180000000 1.0
C      1  0.5006970000000  0.5294920000000  0.5187520000000 1.0
C      1  0.5245380000000  0.4922210000000  0.4903120000000 1.0
C      1  0.5123270000000  0.5228450000000  0.4873410000000 1.0
C      1  0.4804970000000  0.5205980000000  0.4870150000000 1.0
C      1  0.4714400000000  0.4903450000000  0.4874270000000 1.0
C      1  0.4985380000000  0.4738100000000  0.4803430000000 1.0
C      1  0.4463100000000  0.5411480000000  0.5179990000000 1.0
C      1  0.5214080000000  0.5638770000000  0.5144710000000 1.0
C      1  0.5672240000000  0.4991410000000  0.5157060000000 1.0
C      1  0.5188170000000  0.4371150000000  0.5137230000000 1.0
C      1  0.4440500000000  0.4615360000000  0.5154020000000 1.0
C      1  0.4461870000000  0.4593870000000  0.4859370000000 1.0
C      1  0.5221720000000  0.4394560000000  0.4856020000000 1.0
C      1  0.5662810000000  0.5052120000000  0.4875360000000 1.0
C      1  0.5143470000000  0.5658040000000  0.4866520000000 1.0
C      1  0.4408470000000  0.5380370000000  0.4904610000000 1.0
C      1  0.5202610000000  0.4802160000000  0.4218030000000 1.0
C      1  0.4909280000000  0.4770380000000  0.4230850000000 1.0
C      1  0.4795250000000  0.5048900000000  0.4267240000000 1.0
C      1  0.5024050000000  0.5234840000000  0.4265020000000 1.0
C      1  0.5269330000000  0.5086070000000  0.4221510000000 1.0
C      1  0.5224360000000  0.5115440000000  0.5690290000000 1.0
C      1  0.4958490000000  0.5235090000000  0.5698220000000 1.0
C      1  0.4761480000000  0.5019760000000  0.5705560000000 1.0
C      1  0.4901010000000  0.4762680000000  0.5702600000000 1.0
C      1  0.5190640000000  0.4821920000000  0.5692820000000 1.0
C      1  0.4468040000000  0.4890900000000  0.5268250000000 1.0
C      1  0.4738290000000  0.5492800000000  0.5253800000000 1.0
C      1  0.5385090000000  0.5409650000000  0.5238690000000 1.0
C      1  0.5502530000000  0.4766310000000  0.5261850000000 1.0
C      1  0.4931020000000  0.4460950000000  0.5244950000000 1.0
C      1  0.4433270000000  0.5081360000000  0.4802990000000 1.0
C      1  0.4736000000000  0.4511570000000  0.4756350000000 1.0
C      1  0.5370370000000  0.4638140000000  0.4764150000000 1.0
C      1  0.5426560000000  0.5242970000000  0.4720270000000 1.0
C      1  0.4877970000000  0.5498350000000  0.4712850000000 1.0
C      1  0.4906880000000  0.5460670000000  0.5547540000000 1.0
C      1  0.5413770000000  0.5246950000000  0.5538480000000 1.0
C      1  0.5375720000000  0.4657830000000  0.5559160000000 1.0
C      1  0.4802690000000  0.4552400000000  0.5546700000000 1.0
C      1  0.4522450000000  0.5041280000000  0.5569070000000 1.0
C      1  0.4832680000000  0.4641550000000  0.4468480000000 1.0
C      1  0.5288320000000  0.4724610000000  0.4469320000000 1.0
C      1  0.5472310000000  0.5128460000000  0.4412590000000 1.0
C      1  0.5052550000000  0.5457720000000  0.4430070000000 1.0
C      1  0.4612760000000  0.5065530000000  0.4517130000000 1.0
C      1  0.5555850000000  0.4877480000000  0.4626230000000 1.0
C      1  0.5012770000000  0.4394120000000  0.4635630000000 1.0
C      1  0.4413230000000  0.4805680000000  0.4637690000000 1.0
C      1  0.4577680000000  0.5394850000000  0.4615420000000 1.0
C      1  0.5268250000000  0.5513270000000  0.4635380000000 1.0
C      1  0.5645910000000  0.5212970000000  0.5322710000000 1.0
C      1  0.5007280000000  0.5675710000000  0.5327110000000 1.0
C      1  0.4371860000000  0.5208050000000  0.5344190000000 1.0
C      1  0.4601740000000  0.4446530000000  0.5310050000000 1.0
C      1  0.5394110000000  0.4452950000000  0.5305250000000 1.0
END
