TITL C-1154827-9204-640 0.00039914512834058 125000 -357.882284658341 0 0 60 (C1) n - 1
REM
REM in /home/nfs/bkarasulu/CARBON/AIRSS/Generating-Clusters/AIREBO/Higher-Symm/Only-C60
REM
REM
REM
REM
REM
REM ./C.cell (28575a23ae977d3b5fae324c64b13b57)
REM
REM compiler GCC version 9.2.1 20190827 (Red Hat 9.2.1-1)
REM options -cpp -mtune=generic -march=x86-64 -g -O0 -fpre-include=/usr/include/finclude/math-vector-fortran.h
REM seed -1397240364 1063659279 678970564 1237811306 -1640366671 -315883538 1660756676 966731504 515469636 -1763401494 -1614251088 1876795423 313661086 -1576708818 -1962313622 32307341 650095739 830933594 276821140 -1515162184 149341667 11303320 -1303718942 -1013388446 -491225525 -1832748693 -1603358730 -1914491020 -1099891720 1204438663 1994535546 -1696735664 1497666207
REM
CELL 1.54180   50.00000   50.00000   50.00000   90.00000   90.00000   90.00000
LATT -1
SFAC C  
C      1  0.4978670000000  0.5265810000000  0.4780190000000 1.0
C      1  0.5256660000000  0.5149850000000  0.4901110000000 1.0
C      1  0.5173310000000  0.5279210000000  0.5169750000000 1.0
C      1  0.4881580000000  0.5178880000000  0.5244490000000 1.0
C      1  0.4757250000000  0.5140050000000  0.4949420000000 1.0
C      1  0.4981930000000  0.4704670000000  0.4770410000000 1.0
C      1  0.5258510000000  0.4845390000000  0.4897120000000 1.0
C      1  0.5142500000000  0.4724980000000  0.5160890000000 1.0
C      1  0.4862340000000  0.4866630000000  0.5221630000000 1.0
C      1  0.4751310000000  0.4815820000000  0.4929590000000 1.0
C      1  0.4483770000000  0.4858350000000  0.4637320000000 1.0
C      1  0.5240620000000  0.4858010000000  0.4350900000000 1.0
C      1  0.5641890000000  0.4865840000000  0.5009040000000 1.0
C      1  0.5185630000000  0.4859920000000  0.5646090000000 1.0
C      1  0.4454310000000  0.4867010000000  0.5402990000000 1.0
C      1  0.4496920000000  0.5135880000000  0.4645830000000 1.0
C      1  0.5232750000000  0.5136370000000  0.4353910000000 1.0
C      1  0.5641680000000  0.5140730000000  0.5007920000000 1.0
C      1  0.5190310000000  0.5139390000000  0.5656610000000 1.0
C      1  0.4457020000000  0.5143900000000  0.5406420000000 1.0
C      1  0.5388220000000  0.5557080000000  0.4822770000000 1.0
C      1  0.5376320000000  0.5593760000000  0.5306820000000 1.0
C      1  0.4794010000000  0.5563820000000  0.5349750000000 1.0
C      1  0.4542340000000  0.5587660000000  0.4913230000000 1.0
C      1  0.4872890000000  0.5573960000000  0.4551150000000 1.0
C      1  0.5418050000000  0.4436250000000  0.4802400000000 1.0
C      1  0.5354960000000  0.4413260000000  0.5287680000000 1.0
C      1  0.4769900000000  0.4435540000000  0.5338660000000 1.0
C      1  0.4508650000000  0.4403370000000  0.4915410000000 1.0
C      1  0.4903810000000  0.4394570000000  0.4531810000000 1.0
C      1  0.4997240000000  0.4707710000000  0.4437810000000 1.0
C      1  0.5526180000000  0.4720480000000  0.4754620000000 1.0
C      1  0.5336620000000  0.4723790000000  0.5425000000000 1.0
C      1  0.4719070000000  0.4718270000000  0.5467610000000 1.0
C      1  0.4444580000000  0.4704250000000  0.4922600000000 1.0
C      1  0.4984050000000  0.5268630000000  0.4450970000000 1.0
C      1  0.5516680000000  0.5284330000000  0.4754100000000 1.0
C      1  0.5349890000000  0.5284500000000  0.5446920000000 1.0
C      1  0.4716300000000  0.5294010000000  0.5495180000000 1.0
C      1  0.4479390000000  0.5291840000000  0.4924470000000 1.0
C      1  0.4702940000000  0.4392150000000  0.4718090000000 1.0
C      1  0.5174700000000  0.4431820000000  0.4675090000000 1.0
C      1  0.5471950000000  0.4323950000000  0.5052220000000 1.0
C      1  0.5046000000000  0.4426030000000  0.5307660000000 1.0
C      1  0.4579970000000  0.4309400000000  0.5173990000000 1.0
C      1  0.4644580000000  0.5674750000000  0.4668520000000 1.0
C      1  0.5142720000000  0.5562760000000  0.4700570000000 1.0
C      1  0.5473510000000  0.5677470000000  0.5059890000000 1.0
C      1  0.5068160000000  0.5560950000000  0.5326900000000 1.0
C      1  0.4619510000000  0.5683640000000  0.5166660000000 1.0
C      1  0.5482590000000  0.4756800000000  0.4442290000000 1.0
C      1  0.5615260000000  0.4738140000000  0.5249370000000 1.0
C      1  0.4936440000000  0.4748980000000  0.5699990000000 1.0
C      1  0.4307490000000  0.4759620000000  0.5196480000000 1.0
C      1  0.4659360000000  0.4735470000000  0.4464270000000 1.0
C      1  0.5470230000000  0.5250320000000  0.4443020000000 1.0
C      1  0.5617280000000  0.5269610000000  0.5247520000000 1.0
C      1  0.4944500000000  0.5253580000000  0.5720110000000 1.0
C      1  0.4323580000000  0.5254590000000  0.5192600000000 1.0
C      1  0.4651130000000  0.5256220000000  0.4454170000000 1.0
END
