TITL C-1154808-8168-407 0.000191269184490262 125000 -334.039992055227 0 0 60 (C1) n - 1
REM
REM in /home/nfs/bkarasulu/CARBON/AIRSS/Generating-Clusters/AIREBO/Higher-Symm/Only-C60
REM
REM
REM
REM
REM
REM ./C.cell (28575a23ae977d3b5fae324c64b13b57)
REM
REM compiler GCC version 9.2.1 20190827 (Red Hat 9.2.1-1)
REM options -cpp -mtune=generic -march=x86-64 -g -O0 -fpre-include=/usr/include/finclude/math-vector-fortran.h
REM seed -1553558294 1082323318 1062994815 -1161361269 -1811519408 1027798416 1988825146 -1805465720 1149827735 430224580 1063868530 -1153784604 -428974264 -452612023 -1403315124 34931052 -1198240788 412065298 -2037314677 -1476355162 -1920722183 -1065334335 18543774 -431223390 1553703600 -1445300251 674426206 1586747729 -1324457346 -948993365 -1538515251 289024172 1124990348
REM
CELL 1.54180   50.00000   50.00000   50.00000   90.00000   90.00000   90.00000
LATT -1
SFAC C  
C      1  0.5138140000000  0.4535270000000  0.5424930000000 1.0
C      1  0.4453680000000  0.5153430000000  0.4499610000000 1.0
C      1  0.4917500000000  0.4763610000000  0.5765530000000 1.0
C      1  0.5270270000000  0.5412350000000  0.5025490000000 1.0
C      1  0.4764210000000  0.5036830000000  0.5130760000000 1.0
C      1  0.4998310000000  0.4624940000000  0.4675670000000 1.0
C      1  0.4755050000000  0.5329840000000  0.4693200000000 1.0
C      1  0.4647430000000  0.4575660000000  0.5416900000000 1.0
C      1  0.4889310000000  0.4230380000000  0.5132780000000 1.0
C      1  0.4618210000000  0.4344060000000  0.5249060000000 1.0
C      1  0.5217150000000  0.5072640000000  0.4821540000000 1.0
C      1  0.5563790000000  0.5479240000000  0.5013700000000 1.0
C      1  0.4858720000000  0.5646310000000  0.4624540000000 1.0
C      1  0.4961940000000  0.5498990000000  0.5527290000000 1.0
C      1  0.5840870000000  0.4478550000000  0.4926000000000 1.0
C      1  0.5911330000000  0.5544040000000  0.4688460000000 1.0
C      1  0.4886470000000  0.5614010000000  0.5287570000000 1.0
C      1  0.4825300000000  0.5336390000000  0.5724100000000 1.0
C      1  0.5085410000000  0.5690990000000  0.4808900000000 1.0
C      1  0.5386870000000  0.4338870000000  0.5025970000000 1.0
C      1  0.4701710000000  0.4665670000000  0.4216020000000 1.0
C      1  0.5575600000000  0.4493340000000  0.4882400000000 1.0
C      1  0.5407030000000  0.5399980000000  0.5634030000000 1.0
C      1  0.4169100000000  0.4822490000000  0.5575860000000 1.0
C      1  0.4654710000000  0.5503930000000  0.5165290000000 1.0
C      1  0.4864450000000  0.5101830000000  0.4197380000000 1.0
C      1  0.5341130000000  0.4710680000000  0.5499460000000 1.0
C      1  0.4870120000000  0.5036340000000  0.5628210000000 1.0
C      1  0.5148590000000  0.5205070000000  0.5529930000000 1.0
C      1  0.4515770000000  0.4545380000000  0.4438070000000 1.0
C      1  0.3919510000000  0.4859120000000  0.5646970000000 1.0
C      1  0.5461020000000  0.4675300000000  0.4693810000000 1.0
C      1  0.5351610000000  0.4954310000000  0.5634240000000 1.0
C      1  0.4684520000000  0.4931410000000  0.5395210000000 1.0
C      1  0.5238600000000  0.4575520000000  0.4542830000000 1.0
C      1  0.4680200000000  0.5271910000000  0.5005690000000 1.0
C      1  0.4754530000000  0.5803610000000  0.4429060000000 1.0
C      1  0.5667430000000  0.5581580000000  0.5251710000000 1.0
C      1  0.4907910000000  0.4564230000000  0.5575710000000 1.0
C      1  0.5625900000000  0.5493080000000  0.5506030000000 1.0
C      1  0.5677260000000  0.5125630000000  0.4723160000000 1.0
C      1  0.5269300000000  0.4440870000000  0.4312450000000 1.0
C      1  0.4785940000000  0.4871860000000  0.4046840000000 1.0
C      1  0.4607860000000  0.4104200000000  0.5033410000000 1.0
C      1  0.5025780000000  0.4655140000000  0.4953640000000 1.0
C      1  0.4769170000000  0.4744870000000  0.4536200000000 1.0
C      1  0.4303340000000  0.4401480000000  0.4507260000000 1.0
C      1  0.5195200000000  0.5173440000000  0.5206830000000 1.0
C      1  0.5090920000000  0.5343970000000  0.4744630000000 1.0
C      1  0.5456630000000  0.4956840000000  0.4738820000000 1.0
C      1  0.5041530000000  0.4935810000000  0.5048860000000 1.0
C      1  0.5036280000000  0.5297540000000  0.4118950000000 1.0
C      1  0.5723010000000  0.5389320000000  0.4803230000000 1.0
C      1  0.5111260000000  0.4430920000000  0.5139970000000 1.0
C      1  0.5090640000000  0.5673630000000  0.5107720000000 1.0
C      1  0.4405410000000  0.4785900000000  0.5482240000000 1.0
C      1  0.4747690000000  0.5059470000000  0.4480230000000 1.0
C      1  0.4178930000000  0.5256260000000  0.4632890000000 1.0
C      1  0.5509610000000  0.5003320000000  0.5853260000000 1.0
C      1  0.4444890000000  0.5448330000000  0.4619470000000 1.0
END
