TITL C-1154808-8168-349 -0.000103388955327203 125000 -328.701982211222 0 0 60 (C1) n - 1
REM
REM in /home/nfs/bkarasulu/CARBON/AIRSS/Generating-Clusters/AIREBO/Higher-Symm/Only-C60
REM
REM
REM
REM
REM
REM ./C.cell (28575a23ae977d3b5fae324c64b13b57)
REM
REM compiler GCC version 9.2.1 20190827 (Red Hat 9.2.1-1)
REM options -cpp -mtune=generic -march=x86-64 -g -O0 -fpre-include=/usr/include/finclude/math-vector-fortran.h
REM seed 631570795 1772085641 -546235224 174478211 1901182729 -1155419056 -84450117 -718981898 -1089269170 -801569529 -1410042601 380751812 1243715165 -1710626211 1993325269 1289881934 -1809438569 412811664 1657359240 -1970274785 -1233040249 -117643321 1356832072 -1266530787 1727235055 944743369 -2023965368 -2074356878 -1097752123 -266551079 -1941228898 463450989 1404128192
REM
CELL 1.54180   50.00000   50.00000   50.00000   90.00000   90.00000   90.00000
LATT -1
SFAC C  
C      1  0.5316460000000  0.5402260000000  0.5586600000000 1.0
C      1  0.5326460000000  0.4625090000000  0.4385750000000 1.0
C      1  0.4916640000000  0.5105940000000  0.4593200000000 1.0
C      1  0.4918120000000  0.4908170000000  0.5424850000000 1.0
C      1  0.5619090000000  0.5330390000000  0.4717600000000 1.0
C      1  0.5503000000000  0.4677910000000  0.5257870000000 1.0
C      1  0.4402820000000  0.5063000000000  0.5396780000000 1.0
C      1  0.4402370000000  0.4931260000000  0.4615210000000 1.0
C      1  0.4630120000000  0.4497700000000  0.5469680000000 1.0
C      1  0.4584160000000  0.5498810000000  0.4546790000000 1.0
C      1  0.5552060000000  0.4754220000000  0.4450600000000 1.0
C      1  0.5534600000000  0.5261690000000  0.5526640000000 1.0
C      1  0.5714680000000  0.5220210000000  0.5271520000000 1.0
C      1  0.5708350000000  0.4759970000000  0.4725220000000 1.0
C      1  0.5117960000000  0.4709770000000  0.4856800000000 1.0
C      1  0.5118310000000  0.5274820000000  0.5120000000000 1.0
C      1  0.5573350000000  0.5352460000000  0.5018900000000 1.0
C      1  0.5557320000000  0.4609520000000  0.4956170000000 1.0
C      1  0.5090410000000  0.5229210000000  0.4341960000000 1.0
C      1  0.5066400000000  0.4832200000000  0.5700020000000 1.0
C      1  0.4873700000000  0.5582930000000  0.5167420000000 1.0
C      1  0.4873000000000  0.4404600000000  0.4797110000000 1.0
C      1  0.5028990000000  0.5321850000000  0.5447210000000 1.0
C      1  0.5038420000000  0.4701990000000  0.4526220000000 1.0
C      1  0.5460090000000  0.5502260000000  0.4572040000000 1.0
C      1  0.5267440000000  0.4554600000000  0.5356580000000 1.0
C      1  0.5205080000000  0.4592150000000  0.5633300000000 1.0
C      1  0.5187370000000  0.5428740000000  0.4553720000000 1.0
C      1  0.4847690000000  0.5127830000000  0.5098460000000 1.0
C      1  0.4847350000000  0.4860080000000  0.4899760000000 1.0
C      1  0.4398740000000  0.4673340000000  0.4763890000000 1.0
C      1  0.4384560000000  0.5317280000000  0.5239610000000 1.0
C      1  0.5037250000000  0.4540420000000  0.5140490000000 1.0
C      1  0.5030520000000  0.5430710000000  0.4830620000000 1.0
C      1  0.5135930000000  0.5665160000000  0.5038700000000 1.0
C      1  0.5128160000000  0.4311800000000  0.4919900000000 1.0
C      1  0.4797570000000  0.4676430000000  0.5273310000000 1.0
C      1  0.4753250000000  0.5321630000000  0.4738560000000 1.0
C      1  0.5406650000000  0.5629900000000  0.5085800000000 1.0
C      1  0.5400590000000  0.4336300000000  0.4875200000000 1.0
C      1  0.5233420000000  0.4987080000000  0.5373940000000 1.0
C      1  0.5239090000000  0.5025190000000  0.4644580000000 1.0
C      1  0.5576510000000  0.5052370000000  0.4612390000000 1.0
C      1  0.5569140000000  0.4944680000000  0.5407600000000 1.0
C      1  0.4567580000000  0.5141370000000  0.4932050000000 1.0
C      1  0.4582110000000  0.4833460000000  0.5079570000000 1.0
C      1  0.4271630000000  0.5268600000000  0.4959240000000 1.0
C      1  0.4289660000000  0.4702800000000  0.5054850000000 1.0
C      1  0.4724230000000  0.4825650000000  0.4584680000000 1.0
C      1  0.4720770000000  0.5183070000000  0.5409070000000 1.0
C      1  0.5067210000000  0.5125320000000  0.5724090000000 1.0
C      1  0.5098120000000  0.4933870000000  0.4283380000000 1.0
C      1  0.5373220000000  0.4878460000000  0.4907250000000 1.0
C      1  0.5374820000000  0.5105560000000  0.5098960000000 1.0
C      1  0.4379460000000  0.4597200000000  0.5528770000000 1.0
C      1  0.4336480000000  0.5391330000000  0.4490400000000 1.0
C      1  0.4272620000000  0.5176060000000  0.4665010000000 1.0
C      1  0.4293100000000  0.4804300000000  0.5352970000000 1.0
C      1  0.4634820000000  0.5489590000000  0.5286290000000 1.0
C      1  0.4640970000000  0.4509410000000  0.4684860000000 1.0
END
