TITL C-1154816-9297-499 -0.000298419293535223 125000 -347.362101036096 0 0 60 (C1) n - 1
REM
REM in /home/nfs/bkarasulu/CARBON/AIRSS/Generating-Clusters/AIREBO/Higher-Symm/Only-C60
REM
REM
REM
REM
REM
REM ./C.cell (28575a23ae977d3b5fae324c64b13b57)
REM
REM compiler GCC version 9.2.1 20190827 (Red Hat 9.2.1-1)
REM options -cpp -mtune=generic -march=x86-64 -g -O0 -fpre-include=/usr/include/finclude/math-vector-fortran.h
REM seed 183513595 -125165820 1898562614 -1959175589 2092282589 -1189990362 -297413286 702157732 -112979273 105824868 -2144693319 974201467 1468269520 -1076233209 -266545589 2027855402 116456210 101647283 762332799 -2137382710 2048303401 1289085202 -61202165 -489180240 -1954894548 -627112753 -639404608 250372841 916121845 1814159110 1877910606 1163800790 1854893085
REM
CELL 1.54180   50.00000   50.00000   50.00000   90.00000   90.00000   90.00000
LATT -1
SFAC C  
C      1  0.5385460000000  0.5421970000000  0.5546590000000 1.0
C      1  0.4490550000000  0.5164400000000  0.5539960000000 1.0
C      1  0.5281050000000  0.4352300000000  0.5647710000000 1.0
C      1  0.5433910000000  0.4582210000000  0.5606830000000 1.0
C      1  0.4297140000000  0.4961110000000  0.5587240000000 1.0
C      1  0.5284850000000  0.5672450000000  0.5477450000000 1.0
C      1  0.5059200000000  0.5338650000000  0.4605120000000 1.0
C      1  0.4705950000000  0.4929950000000  0.4635970000000 1.0
C      1  0.5190540000000  0.4823990000000  0.4609090000000 1.0
C      1  0.4909660000000  0.4736570000000  0.4520910000000 1.0
C      1  0.4762030000000  0.5197990000000  0.4518390000000 1.0
C      1  0.5266060000000  0.5108620000000  0.4509090000000 1.0
C      1  0.4340090000000  0.5362900000000  0.4842730000000 1.0
C      1  0.5017910000000  0.4309420000000  0.4903340000000 1.0
C      1  0.5602980000000  0.5360980000000  0.4941260000000 1.0
C      1  0.4395810000000  0.4649010000000  0.4899440000000 1.0
C      1  0.4980250000000  0.5678790000000  0.4970840000000 1.0
C      1  0.5591370000000  0.4681270000000  0.4853710000000 1.0
C      1  0.4784300000000  0.4321570000000  0.4757400000000 1.0
C      1  0.5696470000000  0.5175460000000  0.4760350000000 1.0
C      1  0.4468390000000  0.5554830000000  0.4673280000000 1.0
C      1  0.4730050000000  0.5718800000000  0.4789920000000 1.0
C      1  0.5774590000000  0.4867920000000  0.4754280000000 1.0
C      1  0.4473260000000  0.4401590000000  0.4788440000000 1.0
C      1  0.4404500000000  0.4878680000000  0.4730470000000 1.0
C      1  0.5390040000000  0.4581170000000  0.4683720000000 1.0
C      1  0.5210330000000  0.5593600000000  0.4771900000000 1.0
C      1  0.4245340000000  0.5115550000000  0.4730300000000 1.0
C      1  0.5472190000000  0.5586140000000  0.4833860000000 1.0
C      1  0.5258430000000  0.4343350000000  0.4760300000000 1.0
C      1  0.4492890000000  0.5312540000000  0.5076090000000 1.0
C      1  0.5011570000000  0.4412420000000  0.5195650000000 1.0
C      1  0.5474930000000  0.5254410000000  0.5195550000000 1.0
C      1  0.4512290000000  0.4724020000000  0.5196380000000 1.0
C      1  0.4944490000000  0.5437220000000  0.5210660000000 1.0
C      1  0.5477950000000  0.4718300000000  0.5141250000000 1.0
C      1  0.5274220000000  0.5118950000000  0.5434330000000 1.0
C      1  0.4758950000000  0.5067630000000  0.5513620000000 1.0
C      1  0.5006820000000  0.4670960000000  0.5401600000000 1.0
C      1  0.5286520000000  0.4816140000000  0.5408780000000 1.0
C      1  0.4768020000000  0.4811390000000  0.5393950000000 1.0
C      1  0.4972760000000  0.5236370000000  0.5437570000000 1.0
C      1  0.5235340000000  0.4837780000000  0.4946360000000 1.0
C      1  0.5004080000000  0.5280560000000  0.4932200000000 1.0
C      1  0.4724360000000  0.4862000000000  0.4969110000000 1.0
C      1  0.5235760000000  0.5122020000000  0.5037360000000 1.0
C      1  0.4975070000000  0.4692680000000  0.5008210000000 1.0
C      1  0.4728150000000  0.5167580000000  0.5011350000000 1.0
C      1  0.4512280000000  0.4376460000000  0.4472530000000 1.0
C      1  0.5777090000000  0.4946350000000  0.4445150000000 1.0
C      1  0.4834250000000  0.5590690000000  0.4523770000000 1.0
C      1  0.4582960000000  0.5420710000000  0.4412620000000 1.0
C      1  0.5539150000000  0.5152690000000  0.4485580000000 1.0
C      1  0.4811390000000  0.4479840000000  0.4485570000000 1.0
C      1  0.5099570000000  0.5710490000000  0.5287640000000 1.0
C      1  0.4275920000000  0.4758190000000  0.5400650000000 1.0
C      1  0.5644080000000  0.4642490000000  0.5408460000000 1.0
C      1  0.5070870000000  0.4285380000000  0.5484510000000 1.0
C      1  0.4422680000000  0.5358340000000  0.5345350000000 1.0
C      1  0.5642910000000  0.5264180000000  0.5488280000000 1.0
END
