TITL C-1154810-7815-251 -0.379973864860321 125000 -330.953674936147 0 0 60 (C1) n - 1
REM
REM in /home/nfs/bkarasulu/CARBON/AIRSS/Generating-Clusters/AIREBO/Higher-Symm/Only-C60
REM
REM
REM
REM
REM
REM ./C.cell (28575a23ae977d3b5fae324c64b13b57)
REM
REM compiler GCC version 9.2.1 20190827 (Red Hat 9.2.1-1)
REM options -cpp -mtune=generic -march=x86-64 -g -O0 -fpre-include=/usr/include/finclude/math-vector-fortran.h
REM seed 718666918 -1724372000 -2135560208 662526117 1735062909 -39830843 -1498401718 -191315801 974175848 -967723504 1167989648 1633937277 2063027407 1079618998 -1507427683 -1228502976 -1607299969 1761518075 -692091764 2076720811 1242505678 629082104 89482979 1698590427 1463367537 -291199421 613653267 -1142582502 1087435888 -743263265 -608757698 462927639 462935091
REM
CELL 1.54180   50.00000   50.00000   50.00000   90.00000   90.00000   90.00000
LATT -1
SFAC C  
C      1  0.5645030000000  0.5417050000000  0.5728600000000 1.0
C      1  0.4685110000000  0.5686450000000  0.4412870000000 1.0
C      1  0.4849310000000  0.4178380000000  0.5146970000000 1.0
C      1  0.5061700000000  0.4140200000000  0.4981420000000 1.0
C      1  0.4467460000000  0.5875420000000  0.4936260000000 1.0
C      1  0.5596730000000  0.5695280000000  0.5045150000000 1.0
C      1  0.5319860000000  0.5466660000000  0.4501620000000 1.0
C      1  0.4325040000000  0.5346630000000  0.5533710000000 1.0
C      1  0.5966960000000  0.5082080000000  0.5135660000000 1.0
C      1  0.4266160000000  0.5021570000000  0.4530530000000 1.0
C      1  0.5342010000000  0.5019290000000  0.4729990000000 1.0
C      1  0.4574370000000  0.5056760000000  0.5177550000000 1.0
C      1  0.4375700000000  0.4585160000000  0.5080130000000 1.0
C      1  0.5566590000000  0.4585400000000  0.4983760000000 1.0
C      1  0.4904070000000  0.5567000000000  0.5035910000000 1.0
C      1  0.5150100000000  0.5545520000000  0.5135610000000 1.0
C      1  0.5032840000000  0.5410580000000  0.4402010000000 1.0
C      1  0.4412130000000  0.5208930000000  0.5797830000000 1.0
C      1  0.4547600000000  0.5360350000000  0.4726950000000 1.0
C      1  0.5547830000000  0.5272020000000  0.5277450000000 1.0
C      1  0.5250400000000  0.5148710000000  0.4449580000000 1.0
C      1  0.4456370000000  0.5050620000000  0.5496960000000 1.0
C      1  0.4614480000000  0.5566430000000  0.4936010000000 1.0
C      1  0.5425290000000  0.5507290000000  0.5168200000000 1.0
C      1  0.5091750000000  0.4708940000000  0.4669920000000 1.0
C      1  0.4850880000000  0.4839550000000  0.5367900000000 1.0
C      1  0.5575160000000  0.4909120000000  0.4927430000000 1.0
C      1  0.4317890000000  0.4904080000000  0.5024240000000 1.0
C      1  0.4585180000000  0.4771860000000  0.5453090000000 1.0
C      1  0.5310200000000  0.5003640000000  0.4220190000000 1.0
C      1  0.4865490000000  0.4948160000000  0.5050920000000 1.0
C      1  0.5137970000000  0.4877420000000  0.4944020000000 1.0
C      1  0.5535500000000  0.5235500000000  0.5561810000000 1.0
C      1  0.4619250000000  0.5430060000000  0.4467780000000 1.0
C      1  0.5202490000000  0.4834970000000  0.5691250000000 1.0
C      1  0.5101470000000  0.4607320000000  0.4195740000000 1.0
C      1  0.5122320000000  0.4534750000000  0.4454130000000 1.0
C      1  0.5032770000000  0.4688460000000  0.5524380000000 1.0
C      1  0.5665110000000  0.4514390000000  0.5535690000000 1.0
C      1  0.4566160000000  0.4399810000000  0.4661930000000 1.0
C      1  0.5537650000000  0.4584250000000  0.5313050000000 1.0
C      1  0.4545160000000  0.4602310000000  0.4836400000000 1.0
C      1  0.5696910000000  0.5087280000000  0.5109740000000 1.0
C      1  0.4432180000000  0.5077310000000  0.4754460000000 1.0
C      1  0.4264450000000  0.5201840000000  0.5166070000000 1.0
C      1  0.5602060000000  0.5215110000000  0.4632000000000 1.0
C      1  0.4354450000000  0.5658340000000  0.5127570000000 1.0
C      1  0.5678910000000  0.5698250000000  0.4783170000000 1.0
C      1  0.4926190000000  0.4423220000000  0.5551700000000 1.0
C      1  0.5170530000000  0.4267630000000  0.4529760000000 1.0
C      1  0.4735210000000  0.4338710000000  0.5349120000000 1.0
C      1  0.5258180000000  0.4204680000000  0.4790450000000 1.0
C      1  0.4657760000000  0.4863040000000  0.4821930000000 1.0
C      1  0.5297610000000  0.4709240000000  0.5132560000000 1.0
C      1  0.4513770000000  0.4529100000000  0.5323630000000 1.0
C      1  0.5512790000000  0.4308870000000  0.4861800000000 1.0
C      1  0.5581100000000  0.5511840000000  0.4602110000000 1.0
C      1  0.4250580000000  0.5466770000000  0.5286280000000 1.0
C      1  0.5405870000000  0.5008120000000  0.5653700000000 1.0
C      1  0.4615900000000  0.5242260000000  0.4273370000000 1.0
END
