TITL C-1154808-8168-197 -0.00213879289193727 125000 -321.729005840594 0 0 60 (C1) n - 1
REM
REM in /home/nfs/bkarasulu/CARBON/AIRSS/Generating-Clusters/AIREBO/Higher-Symm/Only-C60
REM
REM
REM
REM
REM
REM ./C.cell (28575a23ae977d3b5fae324c64b13b57)
REM
REM compiler GCC version 9.2.1 20190827 (Red Hat 9.2.1-1)
REM options -cpp -mtune=generic -march=x86-64 -g -O0 -fpre-include=/usr/include/finclude/math-vector-fortran.h
REM seed -1919256997 -979317671 1971013079 -1150043975 1285657650 144781449 2141389550 -1518323378 -69351615 709879695 -203343466 949279738 1765452993 1026106368 17496433 1900182919 50621015 1736200825 1993136626 -2103733084 -524899638 -807548909 -1616244459 1211523792 -760051728 339569926 243314477 57865310 1468681646 -1142723731 303529079 -615913610 -741935365
REM
CELL 1.54180   50.00000   50.00000   50.00000   90.00000   90.00000   90.00000
LATT -1
SFAC C  
C      1  0.5542410000000  0.4149560000000  0.4801010000000 1.0
C      1  0.5164060000000  0.4508920000000  0.4666470000000 1.0
C      1  0.4810670000000  0.4775300000000  0.4247380000000 1.0
C      1  0.5360060000000  0.4989330000000  0.5129720000000 1.0
C      1  0.4201740000000  0.4821190000000  0.5099670000000 1.0
C      1  0.5455650000000  0.5349740000000  0.4573510000000 1.0
C      1  0.5393260000000  0.5510400000000  0.4999400000000 1.0
C      1  0.4283260000000  0.4817160000000  0.4832170000000 1.0
C      1  0.5716210000000  0.5216640000000  0.4742410000000 1.0
C      1  0.4857610000000  0.4921390000000  0.5281690000000 1.0
C      1  0.5190090000000  0.5541690000000  0.5222900000000 1.0
C      1  0.4516040000000  0.5234630000000  0.5642280000000 1.0
C      1  0.5769950000000  0.4902260000000  0.4333870000000 1.0
C      1  0.5327270000000  0.4331130000000  0.4907530000000 1.0
C      1  0.4334890000000  0.4636510000000  0.5278490000000 1.0
C      1  0.4700330000000  0.5190930000000  0.4467430000000 1.0
C      1  0.4381740000000  0.5046050000000  0.5457190000000 1.0
C      1  0.5004210000000  0.5510790000000  0.4748780000000 1.0
C      1  0.4973830000000  0.4594010000000  0.4404470000000 1.0
C      1  0.4907540000000  0.5478120000000  0.5045930000000 1.0
C      1  0.4211660000000  0.5075630000000  0.5233210000000 1.0
C      1  0.4623220000000  0.4938270000000  0.4396870000000 1.0
C      1  0.5210840000000  0.5337370000000  0.5453440000000 1.0
C      1  0.5821680000000  0.4959320000000  0.5260190000000 1.0
C      1  0.4233080000000  0.5304800000000  0.5067960000000 1.0
C      1  0.5643690000000  0.5390400000000  0.5015980000000 1.0
C      1  0.5101640000000  0.5131880000000  0.4020890000000 1.0
C      1  0.5174140000000  0.4838100000000  0.4711860000000 1.0
C      1  0.4717890000000  0.4901490000000  0.4926440000000 1.0
C      1  0.4576410000000  0.5904640000000  0.5223390000000 1.0
C      1  0.5620310000000  0.4674300000000  0.5627710000000 1.0
C      1  0.4855230000000  0.4762050000000  0.4669410000000 1.0
C      1  0.4829850000000  0.4867180000000  0.5619800000000 1.0
C      1  0.5296960000000  0.4994850000000  0.4486990000000 1.0
C      1  0.5361170000000  0.5078590000000  0.5431410000000 1.0
C      1  0.4463060000000  0.5337710000000  0.4910500000000 1.0
C      1  0.4517660000000  0.4747680000000  0.4639560000000 1.0
C      1  0.5312040000000  0.4794480000000  0.5596580000000 1.0
C      1  0.5189660000000  0.5807960000000  0.5323300000000 1.0
C      1  0.5171790000000  0.5090840000000  0.4271000000000 1.0
C      1  0.5379290000000  0.4470180000000  0.5516680000000 1.0
C      1  0.4803280000000  0.5485630000000  0.4555350000000 1.0
C      1  0.5091120000000  0.4862370000000  0.5040950000000 1.0
C      1  0.4732150000000  0.4306790000000  0.5066970000000 1.0
C      1  0.4862140000000  0.4610910000000  0.5036650000000 1.0
C      1  0.5649790000000  0.5060180000000  0.5025160000000 1.0
C      1  0.5281590000000  0.5489180000000  0.4740850000000 1.0
C      1  0.5665140000000  0.4931980000000  0.5482660000000 1.0
C      1  0.4445920000000  0.4485770000000  0.4538860000000 1.0
C      1  0.5603140000000  0.5052260000000  0.4489270000000 1.0
C      1  0.4794420000000  0.5126210000000  0.5744650000000 1.0
C      1  0.4710880000000  0.5200820000000  0.5036710000000 1.0
C      1  0.4998460000000  0.4347360000000  0.4895220000000 1.0
C      1  0.4723440000000  0.5711850000000  0.5143620000000 1.0
C      1  0.4579690000000  0.4786910000000  0.5424260000000 1.0
C      1  0.4510590000000  0.5393950000000  0.4643400000000 1.0
C      1  0.5359580000000  0.4401610000000  0.5215750000000 1.0
C      1  0.4727360000000  0.5224390000000  0.5364420000000 1.0
C      1  0.5293640000000  0.4268480000000  0.5689490000000 1.0
C      1  0.4965550000000  0.5319910000000  0.5580280000000 1.0
END
