TITL C-1154830-9999-195 0.000250904422731022 125000 -333.225867504128 0 0 60 (C1) n - 1
REM
REM in /home/nfs/bkarasulu/CARBON/AIRSS/Generating-Clusters/AIREBO/Higher-Symm/Only-C60
REM
REM
REM
REM
REM
REM ./C.cell (28575a23ae977d3b5fae324c64b13b57)
REM
REM compiler GCC version 9.2.1 20190827 (Red Hat 9.2.1-1)
REM options -cpp -mtune=generic -march=x86-64 -g -O0 -fpre-include=/usr/include/finclude/math-vector-fortran.h
REM seed -1861874346 -428143460 -879242394 1579996031 465330865 -1565064475 1464879115 -1099776769 545251956 -658360892 -625507536 2144596255 -389404349 -1828386026 1895232767 -1803038806 -1413295925 -1819347603 -1730245464 121122303 1900979534 -1251002450 -420372272 1467420741 -1628911978 -982009860 974255668 806156033 178993802 -1739274266 1344625667 -1702877018 912548618
REM
CELL 1.54180   50.00000   50.00000   50.00000   90.00000   90.00000   90.00000
LATT -1
SFAC C  
C      1  0.5721720000000  0.4951310000000  0.4717430000000 1.0
C      1  0.5628780000000  0.5215250000000  0.4795830000000 1.0
C      1  0.5685820000000  0.5313200000000  0.5062780000000 1.0
C      1  0.5793720000000  0.5099310000000  0.5288380000000 1.0
C      1  0.5909990000000  0.4845650000000  0.5292630000000 1.0
C      1  0.5818220000000  0.4665870000000  0.5094410000000 1.0
C      1  0.5889270000000  0.4759550000000  0.4834960000000 1.0
C      1  0.5376020000000  0.4729510000000  0.4855940000000 1.0
C      1  0.5469150000000  0.4830860000000  0.4577080000000 1.0
C      1  0.5382690000000  0.5250860000000  0.4653230000000 1.0
C      1  0.5468340000000  0.5416820000000  0.5292340000000 1.0
C      1  0.5479350000000  0.5095480000000  0.5324040000000 1.0
C      1  0.5302320000000  0.4888360000000  0.5488310000000 1.0
C      1  0.5526930000000  0.4564560000000  0.5104150000000 1.0
C      1  0.5045200000000  0.5191800000000  0.4607330000000 1.0
C      1  0.5018790000000  0.5397950000000  0.4878160000000 1.0
C      1  0.5122760000000  0.5290390000000  0.5140840000000 1.0
C      1  0.5046460000000  0.5038960000000  0.5334750000000 1.0
C      1  0.5084510000000  0.4534830000000  0.5176660000000 1.0
C      1  0.5044330000000  0.4705740000000  0.4893560000000 1.0
C      1  0.5015750000000  0.4853010000000  0.4589880000000 1.0
C      1  0.5266690000000  0.4713870000000  0.4360800000000 1.0
C      1  0.5357020000000  0.5086060000000  0.4382230000000 1.0
C      1  0.5136680000000  0.5671070000000  0.4803200000000 1.0
C      1  0.5188680000000  0.5517840000000  0.5331330000000 1.0
C      1  0.5239560000000  0.4960150000000  0.5783240000000 1.0
C      1  0.5348510000000  0.4613490000000  0.5373750000000 1.0
C      1  0.5354250000000  0.4339050000000  0.4938450000000 1.0
C      1  0.4706530000000  0.5402380000000  0.4916520000000 1.0
C      1  0.4738780000000  0.5395730000000  0.5501310000000 1.0
C      1  0.4835440000000  0.5113690000000  0.5562410000000 1.0
C      1  0.4827620000000  0.4471340000000  0.5390260000000 1.0
C      1  0.4836870000000  0.4444300000000  0.4828550000000 1.0
C      1  0.4790260000000  0.4729400000000  0.4383860000000 1.0
C      1  0.4712760000000  0.5263420000000  0.4606270000000 1.0
C      1  0.4383800000000  0.4728620000000  0.4718000000000 1.0
C      1  0.4463120000000  0.5038570000000  0.4605900000000 1.0
C      1  0.4265210000000  0.5567520000000  0.4690010000000 1.0
C      1  0.4508350000000  0.5530520000000  0.5096760000000 1.0
C      1  0.4383820000000  0.5128580000000  0.5316060000000 1.0
C      1  0.4357370000000  0.4794520000000  0.5378640000000 1.0
C      1  0.4406050000000  0.4697980000000  0.5056070000000 1.0
C      1  0.5232760000000  0.5899260000000  0.4741340000000 1.0
C      1  0.4955710000000  0.5584320000000  0.5483430000000 1.0
C      1  0.5019770000000  0.5084570000000  0.5817950000000 1.0
C      1  0.5128340000000  0.4373260000000  0.5471940000000 1.0
C      1  0.5108610000000  0.4317390000000  0.4824390000000 1.0
C      1  0.5027980000000  0.4615870000000  0.4258340000000 1.0
C      1  0.5102490000000  0.5215990000000  0.4272970000000 1.0
C      1  0.4310580000000  0.5663110000000  0.4946780000000 1.0
C      1  0.4499430000000  0.5388490000000  0.5346520000000 1.0
C      1  0.4597830000000  0.4914310000000  0.5576910000000 1.0
C      1  0.4581240000000  0.4550160000000  0.5412980000000 1.0
C      1  0.4570130000000  0.4488640000000  0.4856190000000 1.0
C      1  0.4531760000000  0.4780020000000  0.4425410000000 1.0
C      1  0.4386100000000  0.5358010000000  0.4581210000000 1.0
C      1  0.4702170000000  0.5090960000000  0.4965550000000 1.0
C      1  0.4927280000000  0.4953300000000  0.5055360000000 1.0
C      1  0.4460580000000  0.5005760000000  0.5058660000000 1.0
C      1  0.5340970000000  0.4918300000000  0.5093490000000 1.0
END
