TITL C-1154802-8274-212 0.000514548481246921 125000 -375.234530763173 0 0 60 (C2) n - 1
REM
REM in /home/nfs/bkarasulu/CARBON/AIRSS/Generating-Clusters/AIREBO/Higher-Symm/Only-C60
REM
REM
REM
REM
REM
REM ./C.cell (28575a23ae977d3b5fae324c64b13b57)
REM
REM compiler GCC version 9.2.1 20190827 (Red Hat 9.2.1-1)
REM options -cpp -mtune=generic -march=x86-64 -g -O0 -fpre-include=/usr/include/finclude/math-vector-fortran.h
REM seed 224427917 -921757299 343863157 1021935463 -1012295673 986266704 484034451 2091689724 2062295884 -358901688 -752159003 -1632818518 1941082988 892493482 -477073489 -1857121813 -2141368910 -1842715211 1857317176 -991779083 351944615 289517368 -1928487618 991356885 -2008555563 -1309031754 1979511360 -860427955 -1747100996 1573267587 1090602016 -1401845933 -832869499
REM
CELL 1.54180   50.00000   50.00000   50.00000   90.00000   90.00000   90.00000
LATT -1
SFAC C  
C      1  0.5385460000000  0.5653420000000  0.4620930000000 1.0
C      1  0.5344050000000  0.5299420000000  0.4340560000000 1.0
C      1  0.5365440000000  0.4851400000000  0.4273040000000 1.0
C      1  0.5253940000000  0.4513310000000  0.4561310000000 1.0
C      1  0.5337570000000  0.4273990000000  0.4934880000000 1.0
C      1  0.5384480000000  0.4346410000000  0.5380030000000 1.0
C      1  0.5342250000000  0.4700430000000  0.5660260000000 1.0
C      1  0.5363280000000  0.5148400000000  0.5727780000000 1.0
C      1  0.5252740000000  0.5486650000000  0.5439340000000 1.0
C      1  0.5337450000000  0.5725920000000  0.5065950000000 1.0
C      1  0.5513490000000  0.4522600000000  0.4955840000000 1.0
C      1  0.5537900000000  0.4575920000000  0.5246040000000 1.0
C      1  0.5506430000000  0.4804050000000  0.5432820000000 1.0
C      1  0.5520930000000  0.5095810000000  0.5469470000000 1.0
C      1  0.5467430000000  0.5331050000000  0.5298490000000 1.0
C      1  0.5513320000000  0.5477260000000  0.5045470000000 1.0
C      1  0.5538520000000  0.5423910000000  0.4755350000000 1.0
C      1  0.5507610000000  0.5195790000000  0.4568440000000 1.0
C      1  0.5522310000000  0.4904050000000  0.4531810000000 1.0
C      1  0.5468320000000  0.4668840000000  0.4702690000000 1.0
C      1  0.4438780000000  0.5402890000000  0.5128050000000 1.0
C      1  0.4413540000000  0.5417840000000  0.4849410000000 1.0
C      1  0.4259920000000  0.5237510000000  0.4697180000000 1.0
C      1  0.4368030000000  0.5002810000000  0.4584800000000 1.0
C      1  0.4285450000000  0.4756050000000  0.4693890000000 1.0
C      1  0.4439290000000  0.4597400000000  0.4870560000000 1.0
C      1  0.4413250000000  0.4582230000000  0.5149130000000 1.0
C      1  0.4259260000000  0.4762510000000  0.5301020000000 1.0
C      1  0.4367170000000  0.4997170000000  0.5413690000000 1.0
C      1  0.4284870000000  0.5243900000000  0.5304350000000 1.0
C      1  0.5214580000000  0.4218800000000  0.5187500000000 1.0
C      1  0.5223510000000  0.4457370000000  0.5588270000000 1.0
C      1  0.5209360000000  0.4908360000000  0.5796870000000 1.0
C      1  0.5173830000000  0.5361400000000  0.5676970000000 1.0
C      1  0.5134550000000  0.5670820000000  0.5261640000000 1.0
C      1  0.5215120000000  0.5781120000000  0.4813000000000 1.0
C      1  0.5225000000000  0.5542420000000  0.4412310000000 1.0
C      1  0.5211880000000  0.5091470000000  0.4203300000000 1.0
C      1  0.5175650000000  0.4638570000000  0.4323510000000 1.0
C      1  0.5135200000000  0.4329250000000  0.4738700000000 1.0
C      1  0.4625900000000  0.4479670000000  0.5292500000000 1.0
C      1  0.4718740000000  0.4651100000000  0.5533140000000 1.0
C      1  0.4662410000000  0.4966390000000  0.5551990000000 1.0
C      1  0.4741750000000  0.5282510000000  0.5450200000000 1.0
C      1  0.4692930000000  0.5448970000000  0.5240230000000 1.0
C      1  0.4626630000000  0.5520280000000  0.4706600000000 1.0
C      1  0.4720100000000  0.5348650000000  0.4466380000000 1.0
C      1  0.4663550000000  0.5033260000000  0.4447570000000 1.0
C      1  0.4743110000000  0.4718500000000  0.4549300000000 1.0
C      1  0.4693850000000  0.4551820000000  0.4759050000000 1.0
C      1  0.4891960000000  0.4392140000000  0.4867540000000 1.0
C      1  0.4908610000000  0.4356150000000  0.5179930000000 1.0
C      1  0.4962490000000  0.4475300000000  0.5499130000000 1.0
C      1  0.4925500000000  0.4960160000000  0.5768130000000 1.0
C      1  0.4908540000000  0.5250960000000  0.5686730000000 1.0
C      1  0.4891520000000  0.5608310000000  0.5132180000000 1.0
C      1  0.4909080000000  0.5643900000000  0.4819810000000 1.0
C      1  0.4963780000000  0.5524430000000  0.4500870000000 1.0
C      1  0.4927970000000  0.5039720000000  0.4230970000000 1.0
C      1  0.4910450000000  0.4749230000000  0.4313090000000 1.0
END
