TITL C-1154821-8623-140 0.000219852391874326 125000 -338.996586343752 0 0 60 (C1) n - 1
REM
REM in /home/nfs/bkarasulu/CARBON/AIRSS/Generating-Clusters/AIREBO/Higher-Symm/Only-C60
REM
REM
REM
REM
REM
REM ./C.cell (28575a23ae977d3b5fae324c64b13b57)
REM
REM compiler GCC version 9.2.1 20190827 (Red Hat 9.2.1-1)
REM options -cpp -mtune=generic -march=x86-64 -g -O0 -fpre-include=/usr/include/finclude/math-vector-fortran.h
REM seed 671596682 -1314256759 442500253 385586119 -1685376918 -225628206 1438118589 -1924006638 -575810779 -129357213 -971791949 659229186 -330141110 -22458078 -1235411070 -555040981 -1047895135 -130533797 -1795974457 -1936120281 -1967487676 -962754868 249587914 -542395082 -1496170058 1471100396 -2022050434 366148236 -1008080125 -1474463045 884437757 -1220769574 -239185999
REM
CELL 1.54180   50.00000   50.00000   50.00000   90.00000   90.00000   90.00000
LATT -1
SFAC C  
C      1  0.5851470000000  0.5138440000000  0.5336950000000 1.0
C      1  0.4896650000000  0.5048070000000  0.4065060000000 1.0
C      1  0.4277210000000  0.5097450000000  0.5579930000000 1.0
C      1  0.4138080000000  0.5039190000000  0.5377110000000 1.0
C      1  0.5140820000000  0.4971250000000  0.4070590000000 1.0
C      1  0.5742650000000  0.5073850000000  0.5560700000000 1.0
C      1  0.4248730000000  0.5062290000000  0.4779490000000 1.0
C      1  0.5141040000000  0.5000020000000  0.5686750000000 1.0
C      1  0.5557930000000  0.4982660000000  0.4529930000000 1.0
C      1  0.5714100000000  0.4910340000000  0.4823180000000 1.0
C      1  0.4813150000000  0.4907500000000  0.5697350000000 1.0
C      1  0.4448530000000  0.5032350000000  0.4504920000000 1.0
C      1  0.4927910000000  0.4339860000000  0.5458330000000 1.0
C      1  0.5425930000000  0.4350840000000  0.4831900000000 1.0
C      1  0.4580780000000  0.4565300000000  0.4667540000000 1.0
C      1  0.5152520000000  0.4525550000000  0.5540100000000 1.0
C      1  0.4508900000000  0.4436030000000  0.4921800000000 1.0
C      1  0.5450330000000  0.4494650000000  0.4570620000000 1.0
C      1  0.5467910000000  0.5026950000000  0.5596890000000 1.0
C      1  0.5313350000000  0.4967630000000  0.4294200000000 1.0
C      1  0.4240560000000  0.5010720000000  0.5108580000000 1.0
C      1  0.4585290000000  0.5113390000000  0.5581680000000 1.0
C      1  0.4710220000000  0.5048330000000  0.4288380000000 1.0
C      1  0.5703760000000  0.5135270000000  0.5065110000000 1.0
C      1  0.5912160000000  0.4685490000000  0.4660810000000 1.0
C      1  0.4398810000000  0.4702190000000  0.4514710000000 1.0
C      1  0.4888470000000  0.4681540000000  0.5940100000000 1.0
C      1  0.4132370000000  0.4811670000000  0.4602150000000 1.0
C      1  0.5651840000000  0.4673340000000  0.4509950000000 1.0
C      1  0.5135020000000  0.4685030000000  0.5765430000000 1.0
C      1  0.4846780000000  0.5007300000000  0.4577980000000 1.0
C      1  0.4691450000000  0.4853610000000  0.5388380000000 1.0
C      1  0.5500270000000  0.4862520000000  0.5075010000000 1.0
C      1  0.5166580000000  0.4927560000000  0.4581500000000 1.0
C      1  0.5301690000000  0.4990250000000  0.5321300000000 1.0
C      1  0.4554570000000  0.4971860000000  0.5100350000000 1.0
C      1  0.5538970000000  0.5500160000000  0.4528230000000 1.0
C      1  0.4339030000000  0.5564180000000  0.4796630000000 1.0
C      1  0.5102930000000  0.5519510000000  0.5704050000000 1.0
C      1  0.4448090000000  0.5564380000000  0.4563000000000 1.0
C      1  0.5646000000000  0.5553120000000  0.4779090000000 1.0
C      1  0.4828590000000  0.5551660000000  0.5675690000000 1.0
C      1  0.4874760000000  0.4619850000000  0.5271960000000 1.0
C      1  0.5322670000000  0.4605730000000  0.5002400000000 1.0
C      1  0.4859090000000  0.4714870000000  0.4718340000000 1.0
C      1  0.5190930000000  0.4696550000000  0.5263750000000 1.0
C      1  0.4705510000000  0.4697760000000  0.5021280000000 1.0
C      1  0.5171610000000  0.4632290000000  0.4709680000000 1.0
C      1  0.4686090000000  0.5246140000000  0.5016060000000 1.0
C      1  0.5142430000000  0.5264880000000  0.5245800000000 1.0
C      1  0.5138430000000  0.5232470000000  0.4733120000000 1.0
C      1  0.5271990000000  0.5345100000000  0.4989050000000 1.0
C      1  0.4843520000000  0.5346780000000  0.5244390000000 1.0
C      1  0.4825350000000  0.5277480000000  0.4750020000000 1.0
C      1  0.4615400000000  0.5324320000000  0.4505860000000 1.0
C      1  0.4711580000000  0.5371400000000  0.5494250000000 1.0
C      1  0.5553140000000  0.5381230000000  0.4981900000000 1.0
C      1  0.5385170000000  0.5255360000000  0.4516480000000 1.0
C      1  0.5207660000000  0.5291140000000  0.5566480000000 1.0
C      1  0.4373230000000  0.5313320000000  0.4947710000000 1.0
END
