TITL C-1154816-9297-279 0.00222415220296368 125000 -341.627013868126 0 0 60 (C1) n - 1
REM
REM in /home/nfs/bkarasulu/CARBON/AIRSS/Generating-Clusters/AIREBO/Higher-Symm/Only-C60
REM
REM
REM
REM
REM
REM ./C.cell (28575a23ae977d3b5fae324c64b13b57)
REM
REM compiler GCC version 9.2.1 20190827 (Red Hat 9.2.1-1)
REM options -cpp -mtune=generic -march=x86-64 -g -O0 -fpre-include=/usr/include/finclude/math-vector-fortran.h
REM seed -859101326 1282011152 -550989946 942303820 1075731398 -1708261688 1349624430 353359190 -720015895 -1731732508 -1588246923 764329256 740822978 1316484813 -1763606593 -1609735625 -774483014 -980735355 1425696139 -1176532233 -248078474 1517995305 -1516951417 -1848658884 474060524 1582758148 258449003 -366535259 1518788684 790688355 636134617 -810793304 -1469462735
REM
CELL 1.54180   50.00000   50.00000   50.00000   90.00000   90.00000   90.00000
LATT -1
SFAC C  
C      1  0.5471260000000  0.4801590000000  0.5619360000000 1.0
C      1  0.4859810000000  0.5594480000000  0.5414630000000 1.0
C      1  0.5572420000000  0.5394680000000  0.4932210000000 1.0
C      1  0.4637640000000  0.5134460000000  0.5555210000000 1.0
C      1  0.5448760000000  0.5168220000000  0.4457420000000 1.0
C      1  0.4594860000000  0.4872820000000  0.4406960000000 1.0
C      1  0.5179850000000  0.4425960000000  0.5421310000000 1.0
C      1  0.4811750000000  0.4410400000000  0.4578900000000 1.0
C      1  0.5167800000000  0.5575400000000  0.4599350000000 1.0
C      1  0.4410180000000  0.4614130000000  0.4841140000000 1.0
C      1  0.5604700000000  0.4580940000000  0.5131720000000 1.0
C      1  0.4403320000000  0.5369890000000  0.5245580000000 1.0
C      1  0.5004690000000  0.4715810000000  0.4743830000000 1.0
C      1  0.4745090000000  0.4822330000000  0.4907910000000 1.0
C      1  0.4676630000000  0.5090250000000  0.4731270000000 1.0
C      1  0.4900940000000  0.5284670000000  0.4635990000000 1.0
C      1  0.4917220000000  0.5205200000000  0.5134050000000 1.0
C      1  0.4961310000000  0.4751460000000  0.5367570000000 1.0
C      1  0.5112950000000  0.5231870000000  0.4875400000000 1.0
C      1  0.4672410000000  0.5335820000000  0.4959700000000 1.0
C      1  0.5261790000000  0.4741760000000  0.4964840000000 1.0
C      1  0.5293010000000  0.4989200000000  0.4777080000000 1.0
C      1  0.4767360000000  0.4926040000000  0.5206510000000 1.0
C      1  0.5278310000000  0.4826490000000  0.5269700000000 1.0
C      1  0.4848440000000  0.4694000000000  0.4442580000000 1.0
C      1  0.4692230000000  0.4488060000000  0.4865950000000 1.0
C      1  0.4416640000000  0.4886280000000  0.4672620000000 1.0
C      1  0.5165130000000  0.5312840000000  0.4422400000000 1.0
C      1  0.4891790000000  0.5292570000000  0.5445490000000 1.0
C      1  0.5173430000000  0.4679010000000  0.5625590000000 1.0
C      1  0.5291270000000  0.5505050000000  0.4903050000000 1.0
C      1  0.4643570000000  0.5599410000000  0.5173490000000 1.0
C      1  0.5319300000000  0.4452470000000  0.5134030000000 1.0
C      1  0.5589930000000  0.5137600000000  0.4748800000000 1.0
C      1  0.4464180000000  0.5041030000000  0.5309470000000 1.0
C      1  0.5614980000000  0.4832850000000  0.5329790000000 1.0
C      1  0.5118460000000  0.4284120000000  0.4960660000000 1.0
C      1  0.4240450000000  0.4918150000000  0.5133850000000 1.0
C      1  0.4956450000000  0.5129950000000  0.4253300000000 1.0
C      1  0.4856820000000  0.5704920000000  0.4948100000000 1.0
C      1  0.5122070000000  0.5715070000000  0.5061680000000 1.0
C      1  0.4854890000000  0.4326110000000  0.5071290000000 1.0
C      1  0.5770930000000  0.5048770000000  0.5177590000000 1.0
C      1  0.4243160000000  0.5063750000000  0.4884550000000 1.0
C      1  0.5785310000000  0.4948480000000  0.4901750000000 1.0
C      1  0.5069220000000  0.4869140000000  0.4311230000000 1.0
C      1  0.4992790000000  0.4919350000000  0.5740040000000 1.0
C      1  0.5106190000000  0.5151840000000  0.5615200000000 1.0
C      1  0.5341320000000  0.5073460000000  0.5490910000000 1.0
C      1  0.5087860000000  0.5732090000000  0.5342140000000 1.0
C      1  0.5708120000000  0.5327970000000  0.5166080000000 1.0
C      1  0.4714560000000  0.4958890000000  0.5753990000000 1.0
C      1  0.5302340000000  0.4892230000000  0.4454660000000 1.0
C      1  0.4671240000000  0.5098220000000  0.4260480000000 1.0
C      1  0.4879030000000  0.4423490000000  0.5331950000000 1.0
C      1  0.5102370000000  0.4383560000000  0.4696810000000 1.0
C      1  0.4866690000000  0.5617820000000  0.4684600000000 1.0
C      1  0.4256190000000  0.4643590000000  0.5067570000000 1.0
C      1  0.5750300000000  0.4663180000000  0.4907610000000 1.0
C      1  0.4338300000000  0.5320820000000  0.4933060000000 1.0
END
