TITL C-1154801-8518-524 -0.000259098294812673 125000 -325.807818703822 0 0 60 (C1) n - 1
REM
REM in /home/nfs/bkarasulu/CARBON/AIRSS/Generating-Clusters/AIREBO/Higher-Symm/Only-C60
REM
REM
REM
REM
REM
REM ./C.cell (28575a23ae977d3b5fae324c64b13b57)
REM
REM compiler GCC version 9.2.1 20190827 (Red Hat 9.2.1-1)
REM options -cpp -mtune=generic -march=x86-64 -g -O0 -fpre-include=/usr/include/finclude/math-vector-fortran.h
REM seed 398704252 43270655 2119968897 2085509989 591609185 108961291 -1963718944 412094358 -1642001187 -486992548 103160881 -430967694 -1906902732 1078122663 2057801203 -1063151559 -531790894 -1267812027 -376505283 -668155790 679644086 -723267306 -312510967 661147424 922875884 -1315004056 -677430956 -2129598346 832563452 926139715 -412284730 -612134896 -519637928
REM
CELL 1.54180   50.00000   50.00000   50.00000   90.00000   90.00000   90.00000
LATT -1
SFAC C  
C      1  0.5035220000000  0.4618100000000  0.4557360000000 1.0
C      1  0.5294600000000  0.4749250000000  0.4564840000000 1.0
C      1  0.5301960000000  0.5070560000000  0.4676160000000 1.0
C      1  0.5136200000000  0.5365020000000  0.4714910000000 1.0
C      1  0.4844190000000  0.5378730000000  0.4541090000000 1.0
C      1  0.4696530000000  0.5070150000000  0.4534740000000 1.0
C      1  0.4761920000000  0.4735830000000  0.4531810000000 1.0
C      1  0.4539680000000  0.4781440000000  0.5388710000000 1.0
C      1  0.4815640000000  0.4617210000000  0.5407800000000 1.0
C      1  0.5065920000000  0.4791370000000  0.5357910000000 1.0
C      1  0.5331530000000  0.4992340000000  0.5329990000000 1.0
C      1  0.5252360000000  0.5319210000000  0.5279840000000 1.0
C      1  0.5115140000000  0.5292430000000  0.5589830000000 1.0
C      1  0.4867360000000  0.5282830000000  0.5381480000000 1.0
C      1  0.5420490000000  0.5550250000000  0.4929950000000 1.0
C      1  0.4777780000000  0.5648450000000  0.4935340000000 1.0
C      1  0.4290690000000  0.5315550000000  0.4790080000000 1.0
C      1  0.4343860000000  0.4655030000000  0.4901850000000 1.0
C      1  0.4801000000000  0.4260140000000  0.4770580000000 1.0
C      1  0.5533910000000  0.4441060000000  0.4937970000000 1.0
C      1  0.5741820000000  0.5006640000000  0.4875660000000 1.0
C      1  0.4748630000000  0.5370140000000  0.5106130000000 1.0
C      1  0.4650840000000  0.5118470000000  0.4968630000000 1.0
C      1  0.4471050000000  0.4881700000000  0.5122580000000 1.0
C      1  0.4912560000000  0.4524240000000  0.5105420000000 1.0
C      1  0.5184780000000  0.4741220000000  0.5055670000000 1.0
C      1  0.5363480000000  0.5002490000000  0.5003220000000 1.0
C      1  0.5070910000000  0.5401950000000  0.5048950000000 1.0
C      1  0.4453090000000  0.4974530000000  0.5652010000000 1.0
C      1  0.4580190000000  0.4462660000000  0.5789410000000 1.0
C      1  0.5094130000000  0.4427500000000  0.5761370000000 1.0
C      1  0.5507780000000  0.4729930000000  0.5699510000000 1.0
C      1  0.5639430000000  0.5225230000000  0.5602890000000 1.0
C      1  0.5266120000000  0.5575950000000  0.5712340000000 1.0
C      1  0.4733150000000  0.5372380000000  0.5661110000000 1.0
C      1  0.5324750000000  0.4563010000000  0.5813050000000 1.0
C      1  0.5526260000000  0.4968010000000  0.5557320000000 1.0
C      1  0.5472710000000  0.5441950000000  0.5514810000000 1.0
C      1  0.4965400000000  0.5495310000000  0.5817910000000 1.0
C      1  0.4495130000000  0.5237240000000  0.5710630000000 1.0
C      1  0.4414120000000  0.4665090000000  0.5683990000000 1.0
C      1  0.4834970000000  0.4460050000000  0.5665560000000 1.0
C      1  0.5210910000000  0.4428480000000  0.4972270000000 1.0
C      1  0.5652660000000  0.4746560000000  0.4903850000000 1.0
C      1  0.5541340000000  0.5279350000000  0.4917550000000 1.0
C      1  0.5114070000000  0.5704970000000  0.4921490000000 1.0
C      1  0.4466560000000  0.5525730000000  0.4846570000000 1.0
C      1  0.4308880000000  0.4980510000000  0.4846050000000 1.0
C      1  0.4616500000000  0.4453560000000  0.4953820000000 1.0
C      1  0.5623440000000  0.5163380000000  0.4608650000000 1.0
C      1  0.5291330000000  0.5656950000000  0.4635340000000 1.0
C      1  0.4683210000000  0.5594150000000  0.4628420000000 1.0
C      1  0.4401580000000  0.5106910000000  0.4560940000000 1.0
C      1  0.4558690000000  0.4584170000000  0.4651010000000 1.0
C      1  0.5039130000000  0.4381210000000  0.4716730000000 1.0
C      1  0.5515620000000  0.4604180000000  0.4655450000000 1.0
C      1  0.5020170000000  0.5032390000000  0.4515440000000 1.0
C      1  0.4965880000000  0.5044200000000  0.5186240000000 1.0
C      1  0.4941420000000  0.5043380000000  0.4846560000000 1.0
C      1  0.5095600000000  0.5052480000000  0.4216600000000 1.0
END
