TITL C-1154826-9507-377 -0.000399161419355764 125000 -328.388506871748 0 0 60 (C1) n - 1
REM
REM in /home/nfs/bkarasulu/CARBON/AIRSS/Generating-Clusters/AIREBO/Higher-Symm/Only-C60
REM
REM
REM
REM
REM
REM ./C.cell (28575a23ae977d3b5fae324c64b13b57)
REM
REM compiler GCC version 9.2.1 20190827 (Red Hat 9.2.1-1)
REM options -cpp -mtune=generic -march=x86-64 -g -O0 -fpre-include=/usr/include/finclude/math-vector-fortran.h
REM seed 2033338155 1378060618 -201880060 -1759822217 -701337899 784598392 1192863333 235709666 -1773759288 1828030916 -1625974737 -1300877140 -718656202 267918779 -877698333 -2098225135 -1087880756 449683759 -527250824 -651773510 -2124574074 431478680 1599274829 1094854048 799480397 -646659294 358345176 -1306299717 1947169241 -1292099310 -1332876932 273244162 -1142416210
REM
CELL 1.54180   50.00000   50.00000   50.00000   90.00000   90.00000   90.00000
LATT -1
SFAC C  
C      1  0.5091550000000  0.5150950000000  0.5619720000000 1.0
C      1  0.5588650000000  0.4677770000000  0.4752350000000 1.0
C      1  0.5768790000000  0.4926850000000  0.4805860000000 1.0
C      1  0.4554160000000  0.4795890000000  0.5584020000000 1.0
C      1  0.4996860000000  0.4196830000000  0.4835790000000 1.0
C      1  0.4864880000000  0.4050990000000  0.4656300000000 1.0
C      1  0.4633050000000  0.5164800000000  0.5116030000000 1.0
C      1  0.4631250000000  0.5078700000000  0.4584320000000 1.0
C      1  0.5145200000000  0.4783610000000  0.4565570000000 1.0
C      1  0.5272580000000  0.4328870000000  0.4905710000000 1.0
C      1  0.4984880000000  0.4421860000000  0.5080280000000 1.0
C      1  0.4813520000000  0.5524830000000  0.5639650000000 1.0
C      1  0.5034950000000  0.5915060000000  0.5255920000000 1.0
C      1  0.5487340000000  0.5040170000000  0.4900810000000 1.0
C      1  0.5565260000000  0.4910160000000  0.4339480000000 1.0
C      1  0.4096570000000  0.5185240000000  0.4617380000000 1.0
C      1  0.5202920000000  0.4899810000000  0.5332510000000 1.0
C      1  0.5595210000000  0.5424900000000  0.4884520000000 1.0
C      1  0.4346750000000  0.5214990000000  0.4657720000000 1.0
C      1  0.4786260000000  0.4435890000000  0.5304520000000 1.0
C      1  0.4918930000000  0.4792510000000  0.5424700000000 1.0
C      1  0.4985900000000  0.4812440000000  0.4343420000000 1.0
C      1  0.4287100000000  0.5661060000000  0.5138190000000 1.0
C      1  0.4940730000000  0.4479250000000  0.5555240000000 1.0
C      1  0.4485290000000  0.5620460000000  0.4952710000000 1.0
C      1  0.4926590000000  0.5665840000000  0.5431500000000 1.0
C      1  0.4687300000000  0.4850040000000  0.4780340000000 1.0
C      1  0.4587660000000  0.5087150000000  0.5578080000000 1.0
C      1  0.5367550000000  0.5345040000000  0.4447080000000 1.0
C      1  0.5463110000000  0.4616450000000  0.5224660000000 1.0
C      1  0.5196270000000  0.5239390000000  0.5315390000000 1.0
C      1  0.5167120000000  0.4684820000000  0.5071550000000 1.0
C      1  0.5332790000000  0.5183820000000  0.4703610000000 1.0
C      1  0.4842480000000  0.4970000000000  0.5143290000000 1.0
C      1  0.4859730000000  0.4887670000000  0.4055090000000 1.0
C      1  0.4797180000000  0.4687970000000  0.5731550000000 1.0
C      1  0.5061680000000  0.5235880000000  0.4840960000000 1.0
C      1  0.5014530000000  0.4899500000000  0.4858490000000 1.0
C      1  0.5426050000000  0.4729280000000  0.4520730000000 1.0
C      1  0.5164020000000  0.5623380000000  0.5211340000000 1.0
C      1  0.5465870000000  0.4954340000000  0.5898210000000 1.0
C      1  0.4476260000000  0.5198660000000  0.5345020000000 1.0
C      1  0.4102980000000  0.4573490000000  0.5121250000000 1.0
C      1  0.4513680000000  0.4677200000000  0.4883070000000 1.0
C      1  0.5616940000000  0.5183000000000  0.4422420000000 1.0
C      1  0.4535670000000  0.4587660000000  0.5345760000000 1.0
C      1  0.5485420000000  0.4664690000000  0.5486060000000 1.0
C      1  0.5346170000000  0.4927220000000  0.5647280000000 1.0
C      1  0.4555290000000  0.5338880000000  0.4877350000000 1.0
C      1  0.4722460000000  0.4986250000000  0.4322150000000 1.0
C      1  0.5289260000000  0.5402090000000  0.5031570000000 1.0
C      1  0.5451010000000  0.5063900000000  0.5167790000000 1.0
C      1  0.5495410000000  0.4495110000000  0.4949340000000 1.0
C      1  0.4824950000000  0.5241500000000  0.5672280000000 1.0
C      1  0.5734170000000  0.5656040000000  0.4954250000000 1.0
C      1  0.4369590000000  0.4607450000000  0.5114650000000 1.0
C      1  0.5756370000000  0.5229420000000  0.4680880000000 1.0
C      1  0.4817890000000  0.5327100000000  0.4697370000000 1.0
C      1  0.4856940000000  0.4859790000000  0.3795540000000 1.0
C      1  0.4611010000000  0.5826070000000  0.4821340000000 1.0
END
