TITL C-1154808-8168-503 -0.00116835363386456 125000 -338.679554895101 0 0 60 (C1) n - 1
REM
REM in /home/nfs/bkarasulu/CARBON/AIRSS/Generating-Clusters/AIREBO/Higher-Symm/Only-C60
REM
REM
REM
REM
REM
REM ./C.cell (28575a23ae977d3b5fae324c64b13b57)
REM
REM compiler GCC version 9.2.1 20190827 (Red Hat 9.2.1-1)
REM options -cpp -mtune=generic -march=x86-64 -g -O0 -fpre-include=/usr/include/finclude/math-vector-fortran.h
REM seed -1620410104 1262330446 2061648402 -1977167677 1270375365 -348100626 960899807 577949260 -1750152679 357727590 -2070209596 -1863313925 1663728656 -746058705 -499192610 -1323631983 1046582238 627707930 816363307 -1908738237 -1367873845 1393622855 907312637 1545433846 -1850036839 1191007510 -939733730 2047606171 2044856771 -1639026235 188689046 1344466405 -974371947
REM
CELL 1.54180   50.00000   50.00000   50.00000   90.00000   90.00000   90.00000
LATT -1
SFAC C  
C      1  0.4415180000000  0.4664480000000  0.4785410000000 1.0
C      1  0.5579470000000  0.5139500000000  0.4505250000000 1.0
C      1  0.4487120000000  0.5480720000000  0.5266850000000 1.0
C      1  0.5517540000000  0.4672700000000  0.5379450000000 1.0
C      1  0.5192100000000  0.4829650000000  0.4953570000000 1.0
C      1  0.4753190000000  0.5196290000000  0.4925330000000 1.0
C      1  0.5206170000000  0.5046980000000  0.5188970000000 1.0
C      1  0.4864350000000  0.4910810000000  0.4994090000000 1.0
C      1  0.5129010000000  0.5291060000000  0.4461190000000 1.0
C      1  0.4539410000000  0.5718400000000  0.5123880000000 1.0
C      1  0.5377360000000  0.4797290000000  0.5661680000000 1.0
C      1  0.4865980000000  0.4420990000000  0.4702200000000 1.0
C      1  0.4600290000000  0.4700480000000  0.5052810000000 1.0
C      1  0.5487330000000  0.4913600000000  0.4646400000000 1.0
C      1  0.4505400000000  0.5251410000000  0.5108470000000 1.0
C      1  0.5506430000000  0.4994790000000  0.5341390000000 1.0
C      1  0.4903360000000  0.4701830000000  0.5549640000000 1.0
C      1  0.5150240000000  0.4428020000000  0.4615060000000 1.0
C      1  0.4870350000000  0.5375250000000  0.4393260000000 1.0
C      1  0.5066010000000  0.5476870000000  0.5263640000000 1.0
C      1  0.4963460000000  0.4237360000000  0.5187060000000 1.0
C      1  0.5063820000000  0.4811200000000  0.4251140000000 1.0
C      1  0.4932630000000  0.5762740000000  0.4714050000000 1.0
C      1  0.5032300000000  0.5243230000000  0.5729200000000 1.0
C      1  0.4847370000000  0.5651560000000  0.4463130000000 1.0
C      1  0.5098130000000  0.5469520000000  0.5586710000000 1.0
C      1  0.4862040000000  0.4372870000000  0.5459810000000 1.0
C      1  0.5156450000000  0.4552760000000  0.4350220000000 1.0
C      1  0.5352340000000  0.5314700000000  0.5038690000000 1.0
C      1  0.4590350000000  0.5054180000000  0.5445020000000 1.0
C      1  0.5440030000000  0.4631940000000  0.5049130000000 1.0
C      1  0.4657120000000  0.5007880000000  0.4659080000000 1.0
C      1  0.5270190000000  0.5640620000000  0.5053910000000 1.0
C      1  0.4679390000000  0.4863530000000  0.5701010000000 1.0
C      1  0.5320840000000  0.4387000000000  0.4847290000000 1.0
C      1  0.4708310000000  0.5135900000000  0.4379240000000 1.0
C      1  0.4556050000000  0.4621800000000  0.4556520000000 1.0
C      1  0.5496300000000  0.5392560000000  0.4578060000000 1.0
C      1  0.4582040000000  0.5434410000000  0.5549860000000 1.0
C      1  0.5415080000000  0.4364150000000  0.5343520000000 1.0
C      1  0.4864320000000  0.4744780000000  0.4598390000000 1.0
C      1  0.5211730000000  0.5394680000000  0.4746840000000 1.0
C      1  0.4823300000000  0.5287110000000  0.5360750000000 1.0
C      1  0.5142820000000  0.4536930000000  0.5381820000000 1.0
C      1  0.5583610000000  0.5095180000000  0.5068500000000 1.0
C      1  0.4435340000000  0.4944270000000  0.5202070000000 1.0
C      1  0.5585630000000  0.4871830000000  0.4898990000000 1.0
C      1  0.4387030000000  0.4973480000000  0.4862920000000 1.0
C      1  0.4738940000000  0.5706670000000  0.4932700000000 1.0
C      1  0.5190610000000  0.4990450000000  0.5676920000000 1.0
C      1  0.4814700000000  0.4375580000000  0.4965140000000 1.0
C      1  0.5209490000000  0.5039220000000  0.4391430000000 1.0
C      1  0.4913440000000  0.4630810000000  0.5158820000000 1.0
C      1  0.5157830000000  0.4830110000000  0.4638200000000 1.0
C      1  0.4941900000000  0.5439600000000  0.4948810000000 1.0
C      1  0.4985450000000  0.5003240000000  0.5413810000000 1.0
C      1  0.5188810000000  0.5796980000000  0.4845330000000 1.0
C      1  0.4733120000000  0.5190870000000  0.5736120000000 1.0
C      1  0.5249350000000  0.4256510000000  0.5118200000000 1.0
C      1  0.4802050000000  0.4930650000000  0.4193050000000 1.0
END
