TITL C-1154824-75-499 -2.85801173776557e-06 125000 -313.193432767345 0 0 60 (C1) n - 1
REM
REM in /home/nfs/bkarasulu/CARBON/AIRSS/Generating-Clusters/AIREBO/Higher-Symm/Only-C60
REM
REM
REM
REM
REM
REM ./C.cell (28575a23ae977d3b5fae324c64b13b57)
REM
REM compiler GCC version 9.2.1 20190827 (Red Hat 9.2.1-1)
REM options -cpp -mtune=generic -march=x86-64 -g -O0 -fpre-include=/usr/include/finclude/math-vector-fortran.h
REM seed -1812209540 45861910 1648385863 1571411611 62456654 -943862422 136597496 -423030069 134499801 -1399483476 178946043 1071236513 -1149268355 -1751646913 -1103468878 103060081 1666738205 -177318750 -1201803930 -996403255 1760706451 1369132094 559525880 2080452075 1794714592 1177694149 214958961 1658757557 469812416 -607379453 1152606339 -1327543896 1164964251
REM
CELL 1.54180   50.00000   50.00000   50.00000   90.00000   90.00000   90.00000
LATT -1
SFAC C  
C      1  0.5037760000000  0.4962090000000  0.5538650000000 1.0
C      1  0.5072370000000  0.5417650000000  0.5475040000000 1.0
C      1  0.5150960000000  0.5478640000000  0.4972120000000 1.0
C      1  0.5006520000000  0.5358440000000  0.4592010000000 1.0
C      1  0.5108820000000  0.4797900000000  0.4399020000000 1.0
C      1  0.5046920000000  0.4466750000000  0.4782750000000 1.0
C      1  0.5149500000000  0.4511230000000  0.5363870000000 1.0
C      1  0.4570700000000  0.5221050000000  0.5604410000000 1.0
C      1  0.4435010000000  0.5576880000000  0.5183500000000 1.0
C      1  0.4495270000000  0.5512780000000  0.4619270000000 1.0
C      1  0.4527310000000  0.5000440000000  0.4383220000000 1.0
C      1  0.4510980000000  0.4481880000000  0.4616590000000 1.0
C      1  0.4446240000000  0.4382420000000  0.5131820000000 1.0
C      1  0.4445970000000  0.4686430000000  0.5547640000000 1.0
C      1  0.4757380000000  0.5297970000000  0.4898860000000 1.0
C      1  0.4820330000000  0.5088270000000  0.4638710000000 1.0
C      1  0.4738470000000  0.4783930000000  0.4745980000000 1.0
C      1  0.4862770000000  0.4626070000000  0.5020100000000 1.0
C      1  0.4875290000000  0.4793570000000  0.5298460000000 1.0
C      1  0.4766350000000  0.5098710000000  0.5280470000000 1.0
C      1  0.4917720000000  0.5365990000000  0.5192410000000 1.0
C      1  0.5180810000000  0.5102300000000  0.4265740000000 1.0
C      1  0.5023680000000  0.4521490000000  0.4447990000000 1.0
C      1  0.5014710000000  0.4310230000000  0.5211440000000 1.0
C      1  0.5006150000000  0.4568750000000  0.5601790000000 1.0
C      1  0.5183130000000  0.5212950000000  0.5732880000000 1.0
C      1  0.4942750000000  0.5736940000000  0.5046650000000 1.0
C      1  0.5006300000000  0.5667540000000  0.4730870000000 1.0
C      1  0.4751140000000  0.5575920000000  0.4549340000000 1.0
C      1  0.4857450000000  0.5013850000000  0.4322970000000 1.0
C      1  0.4766660000000  0.4413790000000  0.4597010000000 1.0
C      1  0.4726500000000  0.4352850000000  0.5123430000000 1.0
C      1  0.4723770000000  0.4656470000000  0.5563930000000 1.0
C      1  0.4852400000000  0.5225090000000  0.5648750000000 1.0
C      1  0.4707320000000  0.5636470000000  0.5200510000000 1.0
C      1  0.5631990000000  0.4771470000000  0.5467380000000 1.0
C      1  0.5603930000000  0.5413140000000  0.5301930000000 1.0
C      1  0.5619160000000  0.5396140000000  0.5051290000000 1.0
C      1  0.5603980000000  0.5032820000000  0.4504240000000 1.0
C      1  0.5833690000000  0.5037520000000  0.4398380000000 1.0
C      1  0.5489260000000  0.4592400000000  0.5011490000000 1.0
C      1  0.5685510000000  0.4621870000000  0.5239070000000 1.0
C      1  0.5389670000000  0.5295470000000  0.5477560000000 1.0
C      1  0.5372910000000  0.5297520000000  0.4893230000000 1.0
C      1  0.5303770000000  0.5206280000000  0.4569110000000 1.0
C      1  0.5335180000000  0.4875280000000  0.4640650000000 1.0
C      1  0.5343740000000  0.4576890000000  0.4770830000000 1.0
C      1  0.5309510000000  0.4756270000000  0.5233070000000 1.0
C      1  0.5371640000000  0.4972710000000  0.5475280000000 1.0
C      1  0.4434350000000  0.5253510000000  0.4802520000000 1.0
C      1  0.4400460000000  0.5003340000000  0.4635650000000 1.0
C      1  0.4406440000000  0.4732740000000  0.4798350000000 1.0
C      1  0.4342460000000  0.4649700000000  0.5084060000000 1.0
C      1  0.4346220000000  0.4816860000000  0.5310860000000 1.0
C      1  0.4441190000000  0.5109740000000  0.5310110000000 1.0
C      1  0.4359960000000  0.5322890000000  0.5105830000000 1.0
C      1  0.5336860000000  0.4967720000000  0.4967930000000 1.0
C      1  0.4680240000000  0.4980900000000  0.4994680000000 1.0
C      1  0.5005520000000  0.4995340000000  0.4979440000000 1.0
C      1  0.5672080000000  0.4947500000000  0.5001500000000 1.0
END
