TITL C-1154816-9297-292 -0.00210174706981528 125000 -336.053428513678 0 0 60 (C2) n - 1
REM
REM in /home/nfs/bkarasulu/CARBON/AIRSS/Generating-Clusters/AIREBO/Higher-Symm/Only-C60
REM
REM
REM
REM
REM
REM ./C.cell (28575a23ae977d3b5fae324c64b13b57)
REM
REM compiler GCC version 9.2.1 20190827 (Red Hat 9.2.1-1)
REM options -cpp -mtune=generic -march=x86-64 -g -O0 -fpre-include=/usr/include/finclude/math-vector-fortran.h
REM seed -641732285 -247427979 2055239071 -1633739823 1448105958 -1556019340 1950970771 1283004850 -1173715555 -149644635 -419209716 -682634788 -1871473210 -252346630 190579557 1534572323 1667815135 1341495849 -834783842 831394418 -1382714561 -817838103 862798776 -1571510937 -1785248081 -2059394339 1046832121 1626006790 950132689 -1063051564 1910676090 -1897202305 1263007349
REM
CELL 1.54180   50.00000   50.00000   50.00000   90.00000   90.00000   90.00000
LATT -1
SFAC C  
C      1  0.5154220000000  0.4439710000000  0.4780750000000 1.0
C      1  0.5425530000000  0.4419460000000  0.4921040000000 1.0
C      1  0.5465900000000  0.4430110000000  0.5200800000000 1.0
C      1  0.5303040000000  0.4397670000000  0.5427940000000 1.0
C      1  0.5019530000000  0.4390350000000  0.5440780000000 1.0
C      1  0.4845770000000  0.4439720000000  0.5219270000000 1.0
C      1  0.4574460000000  0.4419460000000  0.5078970000000 1.0
C      1  0.4534100000000  0.4430110000000  0.4799210000000 1.0
C      1  0.4696950000000  0.4397660000000  0.4572070000000 1.0
C      1  0.4980470000000  0.4390340000000  0.4559240000000 1.0
C      1  0.5396310000000  0.5609640000000  0.4873820000000 1.0
C      1  0.5426210000000  0.5682240000000  0.5158950000000 1.0
C      1  0.5328160000000  0.5594990000000  0.5431730000000 1.0
C      1  0.5057070000000  0.5580380000000  0.5507130000000 1.0
C      1  0.4803620000000  0.5653700000000  0.5346050000000 1.0
C      1  0.4603700000000  0.5609650000000  0.5126170000000 1.0
C      1  0.4573790000000  0.5682250000000  0.4841030000000 1.0
C      1  0.4671850000000  0.5594980000000  0.4568260000000 1.0
C      1  0.4942940000000  0.5580370000000  0.4492860000000 1.0
C      1  0.5196390000000  0.5653690000000  0.4653930000000 1.0
C      1  0.4965670000000  0.4794960000000  0.4283170000000 1.0
C      1  0.5250990000000  0.4995760000000  0.4793430000000 1.0
C      1  0.5701300000000  0.4836200000000  0.4832440000000 1.0
C      1  0.5673090000000  0.4858150000000  0.5353870000000 1.0
C      1  0.5480440000000  0.4804790000000  0.5704210000000 1.0
C      1  0.5034330000000  0.4794970000000  0.5716830000000 1.0
C      1  0.4749010000000  0.4995760000000  0.5206570000000 1.0
C      1  0.4298700000000  0.4836210000000  0.5167560000000 1.0
C      1  0.4326910000000  0.4858150000000  0.4646130000000 1.0
C      1  0.4519560000000  0.4804780000000  0.4295790000000 1.0
C      1  0.4710250000000  0.5386320000000  0.5464880000000 1.0
C      1  0.4430260000000  0.5383960000000  0.5180230000000 1.0
C      1  0.4370350000000  0.5457250000000  0.4791790000000 1.0
C      1  0.4518390000000  0.5389170000000  0.4427110000000 1.0
C      1  0.4964550000000  0.5357440000000  0.4306940000000 1.0
C      1  0.5289750000000  0.5386310000000  0.4535110000000 1.0
C      1  0.5569750000000  0.5383950000000  0.4819770000000 1.0
C      1  0.5629660000000  0.5457240000000  0.5208200000000 1.0
C      1  0.5481620000000  0.5389180000000  0.5572880000000 1.0
C      1  0.5035450000000  0.5357460000000  0.5693050000000 1.0
C      1  0.4370540000000  0.4574090000000  0.5211380000000 1.0
C      1  0.4315020000000  0.4601390000000  0.4732470000000 1.0
C      1  0.4588330000000  0.4543260000000  0.4347750000000 1.0
C      1  0.5060650000000  0.4541040000000  0.4326210000000 1.0
C      1  0.5214050000000  0.4726960000000  0.4778430000000 1.0
C      1  0.5629450000000  0.4574080000000  0.4788630000000 1.0
C      1  0.5684980000000  0.4601380000000  0.5267530000000 1.0
C      1  0.5411660000000  0.4543260000000  0.5652260000000 1.0
C      1  0.4939340000000  0.4541050000000  0.5673800000000 1.0
C      1  0.4785950000000  0.4726960000000  0.5221570000000 1.0
C      1  0.4458610000000  0.5198810000000  0.4806380000000 1.0
C      1  0.4563260000000  0.5063100000000  0.4512640000000 1.0
C      1  0.4893920000000  0.5060470000000  0.4431470000000 1.0
C      1  0.5149660000000  0.5151980000000  0.4595830000000 1.0
C      1  0.5516510000000  0.5076650000000  0.4907380000000 1.0
C      1  0.5541400000000  0.5198800000000  0.5193610000000 1.0
C      1  0.5436740000000  0.5063110000000  0.5487360000000 1.0
C      1  0.5106080000000  0.5060480000000  0.5568530000000 1.0
C      1  0.4850340000000  0.5151990000000  0.5404160000000 1.0
C      1  0.4483490000000  0.5076660000000  0.5092620000000 1.0
END
