TITL C-1154829-9094-115 -0.000893502544165161 125000 -329.335862536042 0 0 60 (C2) n - 1
REM
REM in /home/nfs/bkarasulu/CARBON/AIRSS/Generating-Clusters/AIREBO/Higher-Symm/Only-C60
REM
REM
REM
REM
REM
REM ./C.cell (28575a23ae977d3b5fae324c64b13b57)
REM
REM compiler GCC version 9.2.1 20190827 (Red Hat 9.2.1-1)
REM options -cpp -mtune=generic -march=x86-64 -g -O0 -fpre-include=/usr/include/finclude/math-vector-fortran.h
REM seed -1156144830 -421562088 -1294266333 -1471793316 131247067 1167549052 -2021115128 1321201776 34201114 74020447 980235471 -968238728 1721051033 -2061628689 -1506867440 -1315020969 708000769 1635787256 -1157720671 -1374332409 -477956369 -2120908214 -2080962514 1625832969 1028139918 -2044752774 -105768598 2132563686 550748513 -692228850 1868229780 1828909329 1169424776
REM
CELL 1.54180   50.00000   50.00000   50.00000   90.00000   90.00000   90.00000
LATT -1
SFAC C  
C      1  0.4827840000000  0.5267170000000  0.4619340000000 1.0
C      1  0.4766440000000  0.4747360000000  0.5528080000000 1.0
C      1  0.5171970000000  0.4732840000000  0.4619240000000 1.0
C      1  0.5233830000000  0.5252620000000  0.5527960000000 1.0
C      1  0.5502890000000  0.5090230000000  0.5110960000000 1.0
C      1  0.5511760000000  0.4838000000000  0.4801080000000 1.0
C      1  0.4497160000000  0.4909770000000  0.5111230000000 1.0
C      1  0.4488140000000  0.5162010000000  0.4801350000000 1.0
C      1  0.5364460000000  0.5006070000000  0.4556620000000 1.0
C      1  0.5336420000000  0.4995680000000  0.5392290000000 1.0
C      1  0.4635300000000  0.4993950000000  0.4556800000000 1.0
C      1  0.4663780000000  0.5004310000000  0.5392470000000 1.0
C      1  0.4305690000000  0.4720200000000  0.5064530000000 1.0
C      1  0.4284850000000  0.5332800000000  0.4864150000000 1.0
C      1  0.5694340000000  0.5279790000000  0.5064170000000 1.0
C      1  0.5715090000000  0.4667200000000  0.4863770000000 1.0
C      1  0.5161900000000  0.5498340000000  0.5091360000000 1.0
C      1  0.5189760000000  0.4401750000000  0.4937720000000 1.0
C      1  0.4838140000000  0.4501660000000  0.5091440000000 1.0
C      1  0.4810210000000  0.5598250000000  0.4937830000000 1.0
C      1  0.5440070000000  0.4297100000000  0.4777470000000 1.0
C      1  0.5408470000000  0.5607760000000  0.5254260000000 1.0
C      1  0.4559810000000  0.5702910000000  0.4777710000000 1.0
C      1  0.4591660000000  0.4392230000000  0.5254460000000 1.0
C      1  0.4883130000000  0.4887170000000  0.4730160000000 1.0
C      1  0.4857480000000  0.5075460000000  0.5143300000000 1.0
C      1  0.5116690000000  0.5112830000000  0.4730090000000 1.0
C      1  0.5142590000000  0.4924530000000  0.5143220000000 1.0
C      1  0.5409510000000  0.5478560000000  0.5508250000000 1.0
C      1  0.5372230000000  0.4467310000000  0.4548130000000 1.0
C      1  0.4590760000000  0.4521420000000  0.5508450000000 1.0
C      1  0.4627550000000  0.5532700000000  0.4548340000000 1.0
C      1  0.5101310000000  0.5667050000000  0.4807170000000 1.0
C      1  0.5125280000000  0.4471260000000  0.5264300000000 1.0
C      1  0.4898590000000  0.4332960000000  0.4807210000000 1.0
C      1  0.4874850000000  0.5528730000000  0.5264370000000 1.0
C      1  0.5522220000000  0.4634980000000  0.5718110000000 1.0
C      1  0.5542920000000  0.5397390000000  0.4284760000000 1.0
C      1  0.4478150000000  0.5365010000000  0.5718390000000 1.0
C      1  0.4456710000000  0.4602620000000  0.4285030000000 1.0
C      1  0.5564170000000  0.5528860000000  0.5008640000000 1.0
C      1  0.5600360000000  0.4436590000000  0.4993690000000 1.0
C      1  0.4435830000000  0.4471140000000  0.5008920000000 1.0
C      1  0.4399640000000  0.5563410000000  0.4994020000000 1.0
C      1  0.4793050000000  0.4785020000000  0.5008550000000 1.0
C      1  0.4758800000000  0.5275470000000  0.4955050000000 1.0
C      1  0.5206940000000  0.5214970000000  0.5008440000000 1.0
C      1  0.5241190000000  0.4724520000000  0.4954930000000 1.0
C      1  0.5453240000000  0.4501080000000  0.5221730000000 1.0
C      1  0.5404700000000  0.5525740000000  0.4775030000000 1.0
C      1  0.4546880000000  0.5498920000000  0.5221970000000 1.0
C      1  0.4595190000000  0.4474270000000  0.4775230000000 1.0
C      1  0.4906580000000  0.4532740000000  0.4547270000000 1.0
C      1  0.4962630000000  0.5311380000000  0.5493620000000 1.0
C      1  0.5093190000000  0.5467280000000  0.4547240000000 1.0
C      1  0.5037620000000  0.4688610000000  0.5493600000000 1.0
C      1  0.5388180000000  0.5324920000000  0.4505480000000 1.0
C      1  0.5376070000000  0.4687920000000  0.5487570000000 1.0
C      1  0.4611560000000  0.4675090000000  0.4505680000000 1.0
C      1  0.4624180000000  0.5312080000000  0.5487780000000 1.0
END
