TITL C-1154803-8277-241 0.000491132008013696 125000 -330.595264061497 0 0 60 (C1) n - 1
REM
REM in /home/nfs/bkarasulu/CARBON/AIRSS/Generating-Clusters/AIREBO/Higher-Symm/Only-C60
REM
REM
REM
REM
REM
REM ./C.cell (28575a23ae977d3b5fae324c64b13b57)
REM
REM compiler GCC version 9.2.1 20190827 (Red Hat 9.2.1-1)
REM options -cpp -mtune=generic -march=x86-64 -g -O0 -fpre-include=/usr/include/finclude/math-vector-fortran.h
REM seed -1708129874 354501147 -1843637100 -2003921463 112405749 1809963307 -476546111 871812802 1570736893 -528796064 1795551709 2022566930 -1407642834 -1455125148 36065735 1686656294 82886472 699802842 -1949160871 -843745579 696183247 1510465200 -1074483210 -478834637 -1326151968 828275833 168509530 -78601812 59739330 1576949257 -44034477 1029507722 -1593608053
REM
CELL 1.54180   50.00000   50.00000   50.00000   90.00000   90.00000   90.00000
LATT -1
SFAC C  
C      1  0.5215160000000  0.4485050000000  0.5223680000000 1.0
C      1  0.5552540000000  0.4939970000000  0.5213620000000 1.0
C      1  0.5419530000000  0.5463900000000  0.5651220000000 1.0
C      1  0.4992060000000  0.5620600000000  0.5532460000000 1.0
C      1  0.4627920000000  0.5401590000000  0.5290950000000 1.0
C      1  0.4424570000000  0.4871110000000  0.5286170000000 1.0
C      1  0.4829790000000  0.4567020000000  0.5305940000000 1.0
C      1  0.4155500000000  0.5048350000000  0.4755760000000 1.0
C      1  0.4517650000000  0.4427300000000  0.4790550000000 1.0
C      1  0.5015200000000  0.4278560000000  0.4784390000000 1.0
C      1  0.5712470000000  0.4607290000000  0.4681080000000 1.0
C      1  0.5760390000000  0.5335760000000  0.4721380000000 1.0
C      1  0.5202210000000  0.5796140000000  0.4650650000000 1.0
C      1  0.4502830000000  0.5648180000000  0.4633570000000 1.0
C      1  0.5483180000000  0.4334980000000  0.5256190000000 1.0
C      1  0.5812960000000  0.4925370000000  0.5223950000000 1.0
C      1  0.5266280000000  0.5695830000000  0.5588330000000 1.0
C      1  0.4765730000000  0.5658120000000  0.5352060000000 1.0
C      1  0.4346210000000  0.5146460000000  0.5211790000000 1.0
C      1  0.4270510000000  0.4648390000000  0.5329940000000 1.0
C      1  0.5011410000000  0.4269260000000  0.5064230000000 1.0
C      1  0.5276210000000  0.4426880000000  0.4713310000000 1.0
C      1  0.5587580000000  0.4892100000000  0.4686740000000 1.0
C      1  0.5464100000000  0.5407500000000  0.4714560000000 1.0
C      1  0.4968430000000  0.5600590000000  0.4645940000000 1.0
C      1  0.4521160000000  0.5354060000000  0.4722720000000 1.0
C      1  0.4391100000000  0.4859950000000  0.4771120000000 1.0
C      1  0.4784120000000  0.4634990000000  0.4764810000000 1.0
C      1  0.4216960000000  0.5288960000000  0.4723030000000 1.0
C      1  0.4304200000000  0.4567540000000  0.4793250000000 1.0
C      1  0.4824290000000  0.4290710000000  0.4573150000000 1.0
C      1  0.5580450000000  0.4399940000000  0.4735480000000 1.0
C      1  0.5821280000000  0.5093110000000  0.4703660000000 1.0
C      1  0.5429290000000  0.5707840000000  0.4705670000000 1.0
C      1  0.4719560000000  0.5762510000000  0.4587290000000 1.0
C      1  0.5241970000000  0.4488320000000  0.4400570000000 1.0
C      1  0.5389350000000  0.4986990000000  0.4457090000000 1.0
C      1  0.5273660000000  0.5236120000000  0.4500970000000 1.0
C      1  0.4988880000000  0.5300800000000  0.4504660000000 1.0
C      1  0.4725670000000  0.5165090000000  0.4536930000000 1.0
C      1  0.4605850000000  0.4894870000000  0.4525590000000 1.0
C      1  0.4670950000000  0.4569050000000  0.4451000000000 1.0
C      1  0.4678070000000  0.5263520000000  0.5007270000000 1.0
C      1  0.4614510000000  0.4929150000000  0.5010050000000 1.0
C      1  0.4859010000000  0.4694990000000  0.5051780000000 1.0
C      1  0.5178250000000  0.4664490000000  0.4937190000000 1.0
C      1  0.5392170000000  0.4922770000000  0.4944980000000 1.0
C      1  0.5269770000000  0.5226550000000  0.4899150000000 1.0
C      1  0.4970290000000  0.5388560000000  0.4892660000000 1.0
C      1  0.5253390000000  0.5226050000000  0.5624340000000 1.0
C      1  0.4977010000000  0.5331000000000  0.5615540000000 1.0
C      1  0.4719010000000  0.5238370000000  0.5522680000000 1.0
C      1  0.4635390000000  0.4970250000000  0.5515020000000 1.0
C      1  0.4871520000000  0.4781630000000  0.5544900000000 1.0
C      1  0.5182820000000  0.4686500000000  0.5447680000000 1.0
C      1  0.5373590000000  0.4967710000000  0.5459320000000 1.0
C      1  0.5229290000000  0.4797110000000  0.4345770000000 1.0
C      1  0.5043490000000  0.5156980000000  0.5125000000000 1.0
C      1  0.5011220000000  0.4673990000000  0.4546590000000 1.0
C      1  0.5062600000000  0.4995380000000  0.5360550000000 1.0
END
