TITL C-1154827-9204-520 -13.899105639782 125000 -316.347652072997 0 0 60 (C1) n - 1
REM
REM in /home/nfs/bkarasulu/CARBON/AIRSS/Generating-Clusters/AIREBO/Higher-Symm/Only-C60
REM
REM
REM
REM
REM
REM ./C.cell (28575a23ae977d3b5fae324c64b13b57)
REM
REM compiler GCC version 9.2.1 20190827 (Red Hat 9.2.1-1)
REM options -cpp -mtune=generic -march=x86-64 -g -O0 -fpre-include=/usr/include/finclude/math-vector-fortran.h
REM seed -60779838 2119952282 266451972 -1927742089 933323357 1894980537 -947789454 1010538250 1801198176 -945989855 -1073399318 474208427 973371471 884999664 1552383953 -808555096 -255536638 -753152551 -1198592050 -1162747376 64446721 -351949724 -1591275991 615367582 34667397 -1719057494 1009235821 -1650208533 -458377115 217521570 -357671419 2002939116 -230976378
REM
CELL 1.54180   50.00000   50.00000   50.00000   90.00000   90.00000   90.00000
LATT -1
SFAC C  
C      1  0.5256920000000  0.5417630000000  0.5545150000000 1.0
C      1  0.5270920000000  0.5146770000000  0.4565030000000 1.0
C      1  0.5231970000000  0.4374560000000  0.5071840000000 1.0
C      1  0.4912380000000  0.4886280000000  0.4343040000000 1.0
C      1  0.4890450000000  0.4502890000000  0.5418790000000 1.0
C      1  0.4954870000000  0.5582830000000  0.5188680000000 1.0
C      1  0.5146700000000  0.4666260000000  0.4745890000000 1.0
C      1  0.5181310000000  0.4937250000000  0.5290990000000 1.0
C      1  0.5052380000000  0.5569170000000  0.4642340000000 1.0
C      1  0.5518210000000  0.4223660000000  0.5102360000000 1.0
C      1  0.5451470000000  0.5533790000000  0.5799380000000 1.0
C      1  0.5488190000000  0.5378280000000  0.4454010000000 1.0
C      1  0.5513590000000  0.5251910000000  0.5669680000000 1.0
C      1  0.5474410000000  0.5304930000000  0.4767360000000 1.0
C      1  0.5468080000000  0.4458660000000  0.4860560000000 1.0
C      1  0.4766850000000  0.5576640000000  0.5458640000000 1.0
C      1  0.4831650000000  0.5173810000000  0.4371070000000 1.0
C      1  0.4734250000000  0.4305010000000  0.5239980000000 1.0
C      1  0.4724230000000  0.5551650000000  0.4939580000000 1.0
C      1  0.4741040000000  0.4655870000000  0.4514750000000 1.0
C      1  0.4738050000000  0.4791490000000  0.5504750000000 1.0
C      1  0.4231780000000  0.4834560000000  0.5353330000000 1.0
C      1  0.4234630000000  0.5388370000000  0.5012470000000 1.0
C      1  0.4219810000000  0.4713480000000  0.4601690000000 1.0
C      1  0.4526750000000  0.5299490000000  0.4995170000000 1.0
C      1  0.4500230000000  0.4779430000000  0.4690090000000 1.0
C      1  0.4522440000000  0.4862530000000  0.5268100000000 1.0
C      1  0.4971160000000  0.5306180000000  0.5490400000000 1.0
C      1  0.4995970000000  0.5272770000000  0.4637150000000 1.0
C      1  0.4941940000000  0.4438060000000  0.5001540000000 1.0
C      1  0.4979090000000  0.4566590000000  0.4287850000000 1.0
C      1  0.5029360000000  0.4686080000000  0.5650870000000 1.0
C      1  0.4986650000000  0.5760800000000  0.4911250000000 1.0
C      1  0.4546890000000  0.4407080000000  0.5023740000000 1.0
C      1  0.4576410000000  0.5334610000000  0.5503270000000 1.0
C      1  0.4607730000000  0.5271160000000  0.4541120000000 1.0
C      1  0.4878570000000  0.5103520000000  0.4883670000000 1.0
C      1  0.4906470000000  0.4769510000000  0.4934320000000 1.0
C      1  0.4950930000000  0.5115510000000  0.5209450000000 1.0
C      1  0.4585810000000  0.4724070000000  0.5003510000000 1.0
C      1  0.4626520000000  0.5154650000000  0.5246110000000 1.0
C      1  0.4569520000000  0.5068220000000  0.4772130000000 1.0
C      1  0.4592450000000  0.5523930000000  0.4644990000000 1.0
C      1  0.4716280000000  0.4447830000000  0.4747310000000 1.0
C      1  0.4749040000000  0.5083580000000  0.5619740000000 1.0
C      1  0.5232300000000  0.4487180000000  0.4369870000000 1.0
C      1  0.5296530000000  0.4746050000000  0.5636100000000 1.0
C      1  0.5308010000000  0.5718340000000  0.4816410000000 1.0
C      1  0.5241700000000  0.5457900000000  0.5240510000000 1.0
C      1  0.5202040000000  0.4868730000000  0.4492420000000 1.0
C      1  0.5171720000000  0.4596820000000  0.5287890000000 1.0
C      1  0.5463580000000  0.5578680000000  0.5036230000000 1.0
C      1  0.5470250000000  0.4661100000000  0.4515910000000 1.0
C      1  0.5484450000000  0.4703290000000  0.5368750000000 1.0
C      1  0.5249610000000  0.4355220000000  0.4646710000000 1.0
C      1  0.5368330000000  0.5033910000000  0.5558040000000 1.0
C      1  0.5348480000000  0.5641570000000  0.4490340000000 1.0
C      1  0.5452150000000  0.4785190000000  0.4836260000000 1.0
C      1  0.5467270000000  0.4923700000000  0.5107550000000 1.0
C      1  0.5449260000000  0.5240950000000  0.5073910000000 1.0
END
