TITL C-1154825-9328-420 8.31516084423476e-05 125000 -336.728689634619 0 0 60 (C1) n - 1
REM
REM in /home/nfs/bkarasulu/CARBON/AIRSS/Generating-Clusters/AIREBO/Higher-Symm/Only-C60
REM
REM
REM
REM
REM
REM ./C.cell (28575a23ae977d3b5fae324c64b13b57)
REM
REM compiler GCC version 9.2.1 20190827 (Red Hat 9.2.1-1)
REM options -cpp -mtune=generic -march=x86-64 -g -O0 -fpre-include=/usr/include/finclude/math-vector-fortran.h
REM seed -2067372401 896960646 -201107797 -702826244 1417384515 -1020435854 1790382376 126835259 1387615725 -95213649 -2009845665 1745128059 49935723 -1429393159 25124805 1107349777 1417593656 1357674035 252426786 831805888 1225082300 70578281 -677897616 -456553242 -699743244 -1617805727 1596937707 65734980 562996503 1899229222 863339782 870470229 -802414136
REM
CELL 1.54180   50.00000   50.00000   50.00000   90.00000   90.00000   90.00000
LATT -1
SFAC C  
C      1  0.5480080000000  0.5024960000000  0.4643040000000 1.0
C      1  0.5259410000000  0.5015250000000  0.4200920000000 1.0
C      1  0.4519390000000  0.5069070000000  0.4454540000000 1.0
C      1  0.4295330000000  0.4896170000000  0.4832900000000 1.0
C      1  0.4285270000000  0.5254060000000  0.5094080000000 1.0
C      1  0.4574980000000  0.4918540000000  0.5463030000000 1.0
C      1  0.4740850000000  0.5113840000000  0.5881210000000 1.0
C      1  0.5279630000000  0.4999370000000  0.5620060000000 1.0
C      1  0.5668940000000  0.5147080000000  0.5340660000000 1.0
C      1  0.5680900000000  0.4727250000000  0.5109760000000 1.0
C      1  0.4772120000000  0.5301980000000  0.5017990000000 1.0
C      1  0.4775150000000  0.4620860000000  0.5132310000000 1.0
C      1  0.4950070000000  0.5360790000000  0.5285560000000 1.0
C      1  0.5097390000000  0.4655930000000  0.5195810000000 1.0
C      1  0.5231200000000  0.5447340000000  0.5188190000000 1.0
C      1  0.5207450000000  0.4619540000000  0.4907040000000 1.0
C      1  0.5276610000000  0.5356300000000  0.4903070000000 1.0
C      1  0.4999140000000  0.4670050000000  0.4687540000000 1.0
C      1  0.4985340000000  0.5279370000000  0.4777540000000 1.0
C      1  0.4741690000000  0.4579820000000  0.4828330000000 1.0
C      1  0.5384600000000  0.5609680000000  0.4762640000000 1.0
C      1  0.5054640000000  0.4405450000000  0.4516630000000 1.0
C      1  0.4922220000000  0.5519300000000  0.4584540000000 1.0
C      1  0.4613300000000  0.4341260000000  0.4742560000000 1.0
C      1  0.4597510000000  0.5567670000000  0.4981210000000 1.0
C      1  0.4689990000000  0.4342100000000  0.5243280000000 1.0
C      1  0.4867410000000  0.5649800000000  0.5390560000000 1.0
C      1  0.5183040000000  0.4383500000000  0.5329950000000 1.0
C      1  0.5346510000000  0.5697500000000  0.5261920000000 1.0
C      1  0.5407520000000  0.4418650000000  0.4880510000000 1.0
C      1  0.5260570000000  0.4172010000000  0.4895640000000 1.0
C      1  0.5208360000000  0.5827690000000  0.4820940000000 1.0
C      1  0.5052490000000  0.4169350000000  0.4687470000000 1.0
C      1  0.4940380000000  0.5769820000000  0.4723750000000 1.0
C      1  0.4793130000000  0.4128260000000  0.4819060000000 1.0
C      1  0.4757630000000  0.5793320000000  0.4946710000000 1.0
C      1  0.4837880000000  0.4134980000000  0.5109170000000 1.0
C      1  0.4908440000000  0.5851880000000  0.5186890000000 1.0
C      1  0.5123750000000  0.4160690000000  0.5156680000000 1.0
C      1  0.5189080000000  0.5887760000000  0.5109890000000 1.0
C      1  0.5508690000000  0.4984370000000  0.5165260000000 1.0
C      1  0.5458880000000  0.5122360000000  0.4894520000000 1.0
C      1  0.5254740000000  0.5017020000000  0.4474300000000 1.0
C      1  0.4986800000000  0.4973250000000  0.4627850000000 1.0
C      1  0.4677160000000  0.5051560000000  0.4664290000000 1.0
C      1  0.4537300000000  0.5059860000000  0.4974160000000 1.0
C      1  0.4605750000000  0.4853410000000  0.5205360000000 1.0
C      1  0.4767090000000  0.5042510000000  0.5618900000000 1.0
C      1  0.5007760000000  0.5120150000000  0.5459220000000 1.0
C      1  0.5231770000000  0.4906330000000  0.5311740000000 1.0
C      1  0.5600380000000  0.5608890000000  0.4596220000000 1.0
C      1  0.5085080000000  0.4410520000000  0.4245440000000 1.0
C      1  0.4869960000000  0.5495640000000  0.4317400000000 1.0
C      1  0.4378000000000  0.4317030000000  0.4617780000000 1.0
C      1  0.4333490000000  0.5521550000000  0.5056500000000 1.0
C      1  0.4522430000000  0.4313930000000  0.5456680000000 1.0
C      1  0.4743070000000  0.5688120000000  0.5630740000000 1.0
C      1  0.5261440000000  0.4370090000000  0.5591220000000 1.0
C      1  0.5548710000000  0.5746420000000  0.5429370000000 1.0
C      1  0.5662100000000  0.4508730000000  0.4949470000000 1.0
END
