TITL C-1154830-9999-567 -0.0195169926527022 125000 -362.065187250385 0 0 60 (C1) n - 1
REM
REM in /home/nfs/bkarasulu/CARBON/AIRSS/Generating-Clusters/AIREBO/Higher-Symm/Only-C60
REM
REM
REM
REM
REM
REM ./C.cell (28575a23ae977d3b5fae324c64b13b57)
REM
REM compiler GCC version 9.2.1 20190827 (Red Hat 9.2.1-1)
REM options -cpp -mtune=generic -march=x86-64 -g -O0 -fpre-include=/usr/include/finclude/math-vector-fortran.h
REM seed -178562195 -269194198 -309195204 1985055146 -295280743 -955051629 676073656 269313886 -120248960 2041634944 19691185 332294196 -144224711 -1403083283 1254097615 -639895005 971562850 1917869427 -477957017 -656668117 1022868933 -834682388 1434652834 -1958101992 1358385944 -776456190 1646097700 730619269 -1351937711 68362339 -326603187 1062055461 365630812
REM
CELL 1.54180   50.00000   50.00000   50.00000   90.00000   90.00000   90.00000
LATT -1
SFAC C  
C      1  0.5417060000000  0.5617620000000  0.5055300000000 1.0
C      1  0.5028600000000  0.5622650000000  0.5389520000000 1.0
C      1  0.4602020000000  0.5721620000000  0.5148820000000 1.0
C      1  0.4681380000000  0.5689520000000  0.4673660000000 1.0
C      1  0.5139160000000  0.5484120000000  0.4660550000000 1.0
C      1  0.4663890000000  0.4483270000000  0.5122120000000 1.0
C      1  0.4952120000000  0.4243510000000  0.5425210000000 1.0
C      1  0.5389970000000  0.4237260000000  0.5233980000000 1.0
C      1  0.5268130000000  0.4301700000000  0.4512650000000 1.0
C      1  0.4886270000000  0.4586220000000  0.4649570000000 1.0
C      1  0.5186040000000  0.4181310000000  0.4766120000000 1.0
C      1  0.5223430000000  0.4093900000000  0.5044670000000 1.0
C      1  0.4951460000000  0.4087070000000  0.5172490000000 1.0
C      1  0.4774690000000  0.4221600000000  0.4988430000000 1.0
C      1  0.4909960000000  0.4279840000000  0.4754670000000 1.0
C      1  0.4852820000000  0.5898290000000  0.4781000000000 1.0
C      1  0.4799170000000  0.5928380000000  0.5071040000000 1.0
C      1  0.5051840000000  0.5888810000000  0.5209770000000 1.0
C      1  0.5262700000000  0.5858200000000  0.5007950000000 1.0
C      1  0.5127930000000  0.5812690000000  0.4752780000000 1.0
C      1  0.4938910000000  0.4883670000000  0.4113960000000 1.0
C      1  0.5772390000000  0.4803270000000  0.4889330000000 1.0
C      1  0.5368490000000  0.4813410000000  0.5606910000000 1.0
C      1  0.4663730000000  0.4886110000000  0.5565460000000 1.0
C      1  0.4348720000000  0.4923830000000  0.4678260000000 1.0
C      1  0.4899660000000  0.5147420000000  0.4146630000000 1.0
C      1  0.4459250000000  0.5144570000000  0.4807000000000 1.0
C      1  0.4592310000000  0.5141980000000  0.5664210000000 1.0
C      1  0.5431620000000  0.5073660000000  0.5593980000000 1.0
C      1  0.5709520000000  0.5037920000000  0.4775950000000 1.0
C      1  0.5339030000000  0.5515690000000  0.5315260000000 1.0
C      1  0.4696580000000  0.5583210000000  0.5388920000000 1.0
C      1  0.4500620000000  0.5614580000000  0.4893110000000 1.0
C      1  0.4848000000000  0.5514870000000  0.4512410000000 1.0
C      1  0.5441660000000  0.5485080000000  0.4796720000000 1.0
C      1  0.4713030000000  0.4413710000000  0.5423900000000 1.0
C      1  0.5228410000000  0.4336790000000  0.5453850000000 1.0
C      1  0.5622520000000  0.4362240000000  0.5144760000000 1.0
C      1  0.5084480000000  0.4501070000000  0.4418490000000 1.0
C      1  0.4600970000000  0.4528300000000  0.4800010000000 1.0
C      1  0.4726770000000  0.5131990000000  0.4898890000000 1.0
C      1  0.5020000000000  0.5178130000000  0.4749840000000 1.0
C      1  0.5159870000000  0.5314110000000  0.5020350000000 1.0
C      1  0.4976430000000  0.5355950000000  0.5216300000000 1.0
C      1  0.4784460000000  0.5162130000000  0.5175540000000 1.0
C      1  0.5206480000000  0.4784620000000  0.5030720000000 1.0
C      1  0.4993350000000  0.4852410000000  0.4795730000000 1.0
C      1  0.4808870000000  0.4751760000000  0.5058150000000 1.0
C      1  0.4841940000000  0.4913450000000  0.5333770000000 1.0
C      1  0.5140150000000  0.4806270000000  0.5274450000000 1.0
C      1  0.4588160000000  0.5408310000000  0.5584750000000 1.0
C      1  0.4335730000000  0.5392220000000  0.4853400000000 1.0
C      1  0.4820580000000  0.5367970000000  0.4280040000000 1.0
C      1  0.5632890000000  0.5293500000000  0.4744890000000 1.0
C      1  0.5442350000000  0.5314670000000  0.5473880000000 1.0
C      1  0.5327480000000  0.4547300000000  0.5607420000000 1.0
C      1  0.5714750000000  0.4561420000000  0.4989140000000 1.0
C      1  0.5055090000000  0.4650260000000  0.4186800000000 1.0
C      1  0.4383040000000  0.4655620000000  0.4709810000000 1.0
C      1  0.4613010000000  0.4608960000000  0.5606720000000 1.0
END
