TITL C-1154821-8623-44 0.053832991568274 125000 -357.451047359647 0 0 60 (C1) n - 1
REM
REM in /home/nfs/bkarasulu/CARBON/AIRSS/Generating-Clusters/AIREBO/Higher-Symm/Only-C60
REM
REM
REM
REM
REM
REM ./C.cell (28575a23ae977d3b5fae324c64b13b57)
REM
REM compiler GCC version 9.2.1 20190827 (Red Hat 9.2.1-1)
REM options -cpp -mtune=generic -march=x86-64 -g -O0 -fpre-include=/usr/include/finclude/math-vector-fortran.h
REM seed 132397035 -1562023601 591396343 -351935026 664363973 1852083796 -1957658265 -1456972674 -58371323 -1727756866 -1459372779 2126204701 -1815470652 -1433754178 -1879827880 -1473928432 -50141626 1708964144 954254846 1866205029 -1393873553 1677349267 -215340028 -31798611 -1714300230 1748859971 -1887072038 -1602689618 -1748458071 -1948007523 -314656870 -1684714556 -1083054001
REM
CELL 1.54180   50.00000   50.00000   50.00000   90.00000   90.00000   90.00000
LATT -1
SFAC C  
C      1  0.5567070000000  0.4759250000000  0.4456360000000 1.0
C      1  0.5646790000000  0.4440060000000  0.4982970000000 1.0
C      1  0.5520550000000  0.4637650000000  0.5481920000000 1.0
C      1  0.5580830000000  0.5238190000000  0.5535380000000 1.0
C      1  0.5623420000000  0.5578280000000  0.5034590000000 1.0
C      1  0.5518250000000  0.5364520000000  0.4493930000000 1.0
C      1  0.4671930000000  0.4806530000000  0.5677990000000 1.0
C      1  0.4757740000000  0.5439890000000  0.5428890000000 1.0
C      1  0.4661700000000  0.5646400000000  0.4808890000000 1.0
C      1  0.4669390000000  0.5204700000000  0.4314280000000 1.0
C      1  0.4732850000000  0.4548500000000  0.4543830000000 1.0
C      1  0.4663300000000  0.4329350000000  0.5196680000000 1.0
C      1  0.5493730000000  0.5177750000000  0.4741640000000 1.0
C      1  0.5533530000000  0.4855910000000  0.4746090000000 1.0
C      1  0.5627260000000  0.4710720000000  0.5002270000000 1.0
C      1  0.5529310000000  0.4834540000000  0.5247470000000 1.0
C      1  0.5540490000000  0.5144590000000  0.5243700000000 1.0
C      1  0.5612900000000  0.5309270000000  0.4987010000000 1.0
C      1  0.5074310000000  0.5321770000000  0.4830540000000 1.0
C      1  0.5183460000000  0.5038520000000  0.4701190000000 1.0
C      1  0.5236680000000  0.4770590000000  0.4888540000000 1.0
C      1  0.5040420000000  0.4702460000000  0.5158730000000 1.0
C      1  0.5190270000000  0.4964420000000  0.5292930000000 1.0
C      1  0.5241460000000  0.5247590000000  0.5118530000000 1.0
C      1  0.4410270000000  0.5532030000000  0.4839810000000 1.0
C      1  0.4430970000000  0.5141670000000  0.4445990000000 1.0
C      1  0.4469620000000  0.4603130000000  0.4611530000000 1.0
C      1  0.4422440000000  0.4461010000000  0.5145700000000 1.0
C      1  0.4439210000000  0.4868400000000  0.5542580000000 1.0
C      1  0.4496980000000  0.5379010000000  0.5366590000000 1.0
C      1  0.4400250000000  0.4702370000000  0.4913780000000 1.0
C      1  0.4392400000000  0.4772560000000  0.5232070000000 1.0
C      1  0.4329020000000  0.5088730000000  0.5321320000000 1.0
C      1  0.4364630000000  0.5308290000000  0.5077700000000 1.0
C      1  0.4410330000000  0.5216290000000  0.4765240000000 1.0
C      1  0.4346140000000  0.4910440000000  0.4670460000000 1.0
C      1  0.4860100000000  0.5536750000000  0.4972730000000 1.0
C      1  0.4791530000000  0.5444250000000  0.4361830000000 1.0
C      1  0.4864340000000  0.4728550000000  0.4393950000000 1.0
C      1  0.4899480000000  0.4415350000000  0.5042930000000 1.0
C      1  0.4786180000000  0.4562500000000  0.5638350000000 1.0
C      1  0.4884740000000  0.5285000000000  0.5612220000000 1.0
C      1  0.4923130000000  0.5573190000000  0.5243500000000 1.0
C      1  0.4771540000000  0.5688980000000  0.4552470000000 1.0
C      1  0.4837360000000  0.4997180000000  0.4245470000000 1.0
C      1  0.4880600000000  0.4396020000000  0.4715230000000 1.0
C      1  0.4761820000000  0.4308420000000  0.5462380000000 1.0
C      1  0.4844340000000  0.5009390000000  0.5744410000000 1.0
C      1  0.5404660000000  0.5164890000000  0.5703200000000 1.0
C      1  0.5429770000000  0.5691730000000  0.5199830000000 1.0
C      1  0.5341960000000  0.5536500000000  0.4439870000000 1.0
C      1  0.5385170000000  0.4825500000000  0.4292490000000 1.0
C      1  0.5426200000000  0.4296300000000  0.4905100000000 1.0
C      1  0.5332750000000  0.4476650000000  0.5528050000000 1.0
C      1  0.5205350000000  0.5530480000000  0.5255820000000 1.0
C      1  0.5060700000000  0.5513270000000  0.4553390000000 1.0
C      1  0.5124750000000  0.4935410000000  0.4412180000000 1.0
C      1  0.5172850000000  0.4459070000000  0.4856080000000 1.0
C      1  0.5043720000000  0.4502280000000  0.5433710000000 1.0
C      1  0.5137020000000  0.5066940000000  0.5587690000000 1.0
END
