TITL C-1154801-8518-150 0.00027372312806084 125000 -330.938693123665 0 0 60 (C1) n - 1
REM
REM in /home/nfs/bkarasulu/CARBON/AIRSS/Generating-Clusters/AIREBO/Higher-Symm/Only-C60
REM
REM
REM
REM
REM
REM ./C.cell (28575a23ae977d3b5fae324c64b13b57)
REM
REM compiler GCC version 9.2.1 20190827 (Red Hat 9.2.1-1)
REM options -cpp -mtune=generic -march=x86-64 -g -O0 -fpre-include=/usr/include/finclude/math-vector-fortran.h
REM seed 681519638 -571910504 -1564545885 1972809192 1610182067 -1147640728 2144050854 1060748783 836500158 1705229783 -243792499 -2109156999 -1776748314 1777188593 1982479425 -671174395 -341575165 2063681279 -2023459536 -379129543 -2108797189 -2061974996 -1488618130 142174377 -737065654 1872558204 -285462324 1160692937 1952702360 32247582 -371422764 1900328370 1731459024
REM
CELL 1.54180   50.00000   50.00000   50.00000   90.00000   90.00000   90.00000
LATT -1
SFAC C  
C      1  0.5130180000000  0.4177660000000  0.5255350000000 1.0
C      1  0.5326030000000  0.4235230000000  0.4991270000000 1.0
C      1  0.5165920000000  0.4193920000000  0.4700170000000 1.0
C      1  0.4843510000000  0.4221410000000  0.4674170000000 1.0
C      1  0.4675610000000  0.4266140000000  0.4961970000000 1.0
C      1  0.4815340000000  0.4291000000000  0.5254580000000 1.0
C      1  0.5126520000000  0.5789980000000  0.4646720000000 1.0
C      1  0.5226300000000  0.5861610000000  0.4917910000000 1.0
C      1  0.5149610000000  0.5819000000000  0.5243810000000 1.0
C      1  0.4830730000000  0.5759890000000  0.5290950000000 1.0
C      1  0.4678590000000  0.5800280000000  0.4998910000000 1.0
C      1  0.4788330000000  0.5753930000000  0.4679830000000 1.0
C      1  0.5019570000000  0.5166760000000  0.4738830000000 1.0
C      1  0.4761940000000  0.5246450000000  0.4876130000000 1.0
C      1  0.4776010000000  0.5136610000000  0.5149250000000 1.0
C      1  0.5021270000000  0.5242960000000  0.5279900000000 1.0
C      1  0.5266950000000  0.5136760000000  0.5157280000000 1.0
C      1  0.5283180000000  0.5320580000000  0.4888700000000 1.0
C      1  0.5011890000000  0.4741180000000  0.5289020000000 1.0
C      1  0.4780290000000  0.4832370000000  0.5149490000000 1.0
C      1  0.4782940000000  0.4752960000000  0.4866850000000 1.0
C      1  0.5015270000000  0.4869370000000  0.4740340000000 1.0
C      1  0.5247980000000  0.4753260000000  0.4875200000000 1.0
C      1  0.5250800000000  0.4838810000000  0.5152630000000 1.0
C      1  0.5341810000000  0.4463700000000  0.4758800000000 1.0
C      1  0.5043850000000  0.4427990000000  0.4485840000000 1.0
C      1  0.4668400000000  0.4489740000000  0.4714470000000 1.0
C      1  0.4606710000000  0.4539210000000  0.5153060000000 1.0
C      1  0.5047230000000  0.4451410000000  0.5425030000000 1.0
C      1  0.5414780000000  0.4363000000000  0.5290590000000 1.0
C      1  0.5314720000000  0.5593360000000  0.5056380000000 1.0
C      1  0.5050340000000  0.5541890000000  0.5407510000000 1.0
C      1  0.4542650000000  0.5603370000000  0.5245360000000 1.0
C      1  0.4604100000000  0.5524840000000  0.4840610000000 1.0
C      1  0.4960790000000  0.5582670000000  0.4446670000000 1.0
C      1  0.5249180000000  0.5474830000000  0.4591020000000 1.0
C      1  0.5531470000000  0.5197200000000  0.5341780000000 1.0
C      1  0.5588090000000  0.5216970000000  0.4813790000000 1.0
C      1  0.4905460000000  0.5284930000000  0.4472970000000 1.0
C      1  0.4460130000000  0.5255780000000  0.4707530000000 1.0
C      1  0.4536320000000  0.5304590000000  0.5291120000000 1.0
C      1  0.5024270000000  0.5271890000000  0.5610950000000 1.0
C      1  0.5543030000000  0.4717880000000  0.4722250000000 1.0
C      1  0.5468280000000  0.4659820000000  0.5309270000000 1.0
C      1  0.4975650000000  0.4713590000000  0.5623180000000 1.0
C      1  0.4455730000000  0.4753090000000  0.5357590000000 1.0
C      1  0.4477680000000  0.4751040000000  0.4727410000000 1.0
C      1  0.5029680000000  0.4741540000000  0.4455460000000 1.0
C      1  0.5630570000000  0.4796420000000  0.5041400000000 1.0
C      1  0.5337760000000  0.4885830000000  0.4509030000000 1.0
C      1  0.4702970000000  0.4848880000000  0.4491420000000 1.0
C      1  0.4398260000000  0.4860390000000  0.5039780000000 1.0
C      1  0.4685430000000  0.4868300000000  0.5535860000000 1.0
C      1  0.5293460000000  0.4816650000000  0.5557890000000 1.0
C      1  0.5651800000000  0.5078950000000  0.5066760000000 1.0
C      1  0.5313750000000  0.5101540000000  0.5551740000000 1.0
C      1  0.4711600000000  0.5155040000000  0.5541420000000 1.0
C      1  0.4397790000000  0.5146760000000  0.5023730000000 1.0
C      1  0.4660130000000  0.5134260000000  0.4476820000000 1.0
C      1  0.5401380000000  0.5174560000000  0.4536260000000 1.0
END
