TITL C-1154828-9214-30 0.00015356063641302 125000 -306.181975920999 0 0 60 (D2) n - 1
REM
REM in /home/nfs/bkarasulu/CARBON/AIRSS/Generating-Clusters/AIREBO/Higher-Symm/Only-C60
REM
REM
REM
REM
REM
REM ./C.cell (28575a23ae977d3b5fae324c64b13b57)
REM
REM compiler GCC version 9.2.1 20190827 (Red Hat 9.2.1-1)
REM options -cpp -mtune=generic -march=x86-64 -g -O0 -fpre-include=/usr/include/finclude/math-vector-fortran.h
REM seed -537117918 -1403135185 180029916 1996259620 -1145753284 -484172335 -623629366 1350847826 1718526666 260074192 350697761 1968485109 1084866550 685686870 401965748 -1174350568 -1648329449 -399051846 1709681048 -28565590 -1927756386 52811707 1478601683 1370795887 1434465093 1007207065 -352449281 1200344136 -1646226467 -822936798 1079352871 -443948201 -650899074
REM
CELL 1.54180   50.00000   50.00000   50.00000   90.00000   90.00000   90.00000
LATT -1
SFAC C  
C      1  0.4346950000000  0.5237920000000  0.4725080000000 1.0
C      1  0.4465090000000  0.5260580000000  0.5438460000000 1.0
C      1  0.5117010000000  0.5189090000000  0.5766980000000 1.0
C      1  0.5653130000000  0.5240030000000  0.5269060000000 1.0
C      1  0.5532500000000  0.5256910000000  0.4559320000000 1.0
C      1  0.4891180000000  0.5194210000000  0.4234630000000 1.0
C      1  0.4347140000000  0.4761990000000  0.5275290000000 1.0
C      1  0.4464880000000  0.4739350000000  0.4561840000000 1.0
C      1  0.5116610000000  0.4810930000000  0.4232950000000 1.0
C      1  0.5653010000000  0.4760060000000  0.4730570000000 1.0
C      1  0.5532790000000  0.4743160000000  0.5440380000000 1.0
C      1  0.4891640000000  0.4805770000000  0.5765430000000 1.0
C      1  0.4806440000000  0.5202760000000  0.4804260000000 1.0
C      1  0.4737370000000  0.5218100000000  0.5067040000000 1.0
C      1  0.4931720000000  0.5204890000000  0.5258740000000 1.0
C      1  0.5192380000000  0.5205380000000  0.5192720000000 1.0
C      1  0.5260550000000  0.5216040000000  0.4929560000000 1.0
C      1  0.5067080000000  0.5198530000000  0.4737650000000 1.0
C      1  0.4806580000000  0.4797210000000  0.5195850000000 1.0
C      1  0.4737360000000  0.4781870000000  0.4933100000000 1.0
C      1  0.4931610000000  0.4795100000000  0.4741300000000 1.0
C      1  0.5192300000000  0.4794640000000  0.4807170000000 1.0
C      1  0.5260620000000  0.4784000000000  0.5070290000000 1.0
C      1  0.5067250000000  0.4801480000000  0.5262310000000 1.0
C      1  0.4639500000000  0.4344970000000  0.5427920000000 1.0
C      1  0.4886910000000  0.4370010000000  0.5583760000000 1.0
C      1  0.5176910000000  0.4349310000000  0.5528200000000 1.0
C      1  0.5360030000000  0.4345020000000  0.4569840000000 1.0
C      1  0.5114770000000  0.4372670000000  0.4410960000000 1.0
C      1  0.4823990000000  0.4350210000000  0.4463510000000 1.0
C      1  0.4639170000000  0.5654980000000  0.4572280000000 1.0
C      1  0.4886490000000  0.5629970000000  0.4416300000000 1.0
C      1  0.5176520000000  0.5650710000000  0.4471700000000 1.0
C      1  0.5360180000000  0.5655030000000  0.5429950000000 1.0
C      1  0.5115020000000  0.5627350000000  0.5588970000000 1.0
C      1  0.4824200000000  0.5649770000000  0.5536590000000 1.0
C      1  0.5161390000000  0.5447520000000  0.5808420000000 1.0
C      1  0.5573170000000  0.5510910000000  0.5309020000000 1.0
C      1  0.5414180000000  0.5492620000000  0.4482500000000 1.0
C      1  0.4844550000000  0.5452580000000  0.4194490000000 1.0
C      1  0.4422940000000  0.5508820000000  0.4684970000000 1.0
C      1  0.4584790000000  0.5494160000000  0.5520470000000 1.0
C      1  0.5161000000000  0.4552500000000  0.4191490000000 1.0
C      1  0.5573070000000  0.4489170000000  0.4690650000000 1.0
C      1  0.5414540000000  0.4507430000000  0.5517260000000 1.0
C      1  0.4845070000000  0.4547400000000  0.5805600000000 1.0
C      1  0.4423180000000  0.4491100000000  0.5315350000000 1.0
C      1  0.4584570000000  0.4505780000000  0.4479760000000 1.0
C      1  0.4853940000000  0.5091380000000  0.5557140000000 1.0
C      1  0.5402050000000  0.5071290000000  0.5415620000000 1.0
C      1  0.5545410000000  0.5082920000000  0.4851330000000 1.0
C      1  0.5144590000000  0.5084540000000  0.4433170000000 1.0
C      1  0.4597710000000  0.5066420000000  0.4584790000000 1.0
C      1  0.4451590000000  0.5084280000000  0.5147860000000 1.0
C      1  0.4853640000000  0.4908600000000  0.4442940000000 1.0
C      1  0.5401830000000  0.4928770000000  0.4584150000000 1.0
C      1  0.5545510000000  0.4917160000000  0.5148370000000 1.0
C      1  0.5144920000000  0.4915480000000  0.5566750000000 1.0
C      1  0.4597950000000  0.4933530000000  0.5415440000000 1.0
C      1  0.4451510000000  0.4915650000000  0.4852450000000 1.0
END
