TITL C-1154801-8518-408 -7.66061514321866e-05 125000 -312.399938910843 0 0 60 (C1) n - 1
REM
REM in /home/nfs/bkarasulu/CARBON/AIRSS/Generating-Clusters/AIREBO/Higher-Symm/Only-C60
REM
REM
REM
REM
REM
REM ./C.cell (28575a23ae977d3b5fae324c64b13b57)
REM
REM compiler GCC version 9.2.1 20190827 (Red Hat 9.2.1-1)
REM options -cpp -mtune=generic -march=x86-64 -g -O0 -fpre-include=/usr/include/finclude/math-vector-fortran.h
REM seed 2058488796 -67715908 -1549806388 -1284537237 885169269 941328933 -1952627988 580672977 1663436246 552459215 -114423099 1352489155 1508683620 -654584008 -929440539 872833947 -1492182480 200431004 354108320 -1883961509 -1632271450 2025447197 323266732 1977727554 -468450563 317161248 -1293006947 -1415482936 920658018 972050111 -1793114747 -334520681 -619855140
REM
CELL 1.54180   50.00000   50.00000   50.00000   90.00000   90.00000   90.00000
LATT -1
SFAC C  
C      1  0.4530550000000  0.5562430000000  0.4836230000000 1.0
C      1  0.5509950000000  0.4902910000000  0.4661830000000 1.0
C      1  0.4793380000000  0.4622660000000  0.5492500000000 1.0
C      1  0.5472280000000  0.4481460000000  0.4844110000000 1.0
C      1  0.4550210000000  0.4465630000000  0.5174170000000 1.0
C      1  0.5486750000000  0.5476020000000  0.5156250000000 1.0
C      1  0.4350360000000  0.5209180000000  0.4595320000000 1.0
C      1  0.5646420000000  0.5192470000000  0.5554330000000 1.0
C      1  0.4472340000000  0.4903470000000  0.5307640000000 1.0
C      1  0.5240270000000  0.5458630000000  0.5468780000000 1.0
C      1  0.4744560000000  0.5452040000000  0.4517110000000 1.0
C      1  0.5187030000000  0.4610690000000  0.4498790000000 1.0
C      1  0.5203730000000  0.4980390000000  0.5442770000000 1.0
C      1  0.4858020000000  0.5284080000000  0.5155390000000 1.0
C      1  0.5361760000000  0.5146820000000  0.4968680000000 1.0
C      1  0.4911270000000  0.5106930000000  0.5426880000000 1.0
C      1  0.5068230000000  0.5099340000000  0.4550360000000 1.0
C      1  0.4780030000000  0.4970980000000  0.4547720000000 1.0
C      1  0.5135420000000  0.4622000000000  0.5121290000000 1.0
C      1  0.4889610000000  0.4623110000000  0.4886350000000 1.0
C      1  0.5116510000000  0.5277470000000  0.4806450000000 1.0
C      1  0.4650370000000  0.4844070000000  0.4835840000000 1.0
C      1  0.5352190000000  0.4863970000000  0.5159130000000 1.0
C      1  0.4612800000000  0.5133610000000  0.5013450000000 1.0
C      1  0.5146930000000  0.5463910000000  0.5157970000000 1.0
C      1  0.5589230000000  0.5178550000000  0.5219430000000 1.0
C      1  0.5357650000000  0.5225000000000  0.5541940000000 1.0
C      1  0.4876240000000  0.4435230000000  0.5237090000000 1.0
C      1  0.5148480000000  0.4435740000000  0.4770190000000 1.0
C      1  0.4865730000000  0.5506670000000  0.4823530000000 1.0
C      1  0.4477980000000  0.4715300000000  0.5099110000000 1.0
C      1  0.5528310000000  0.4743970000000  0.4894200000000 1.0
C      1  0.4401410000000  0.5316780000000  0.4856380000000 1.0
C      1  0.4708570000000  0.4880470000000  0.5455270000000 1.0
C      1  0.5265260000000  0.4871830000000  0.4527430000000 1.0
C      1  0.4610310000000  0.5214370000000  0.4475270000000 1.0
C      1  0.4726200000000  0.5820550000000  0.5274880000000 1.0
C      1  0.5858930000000  0.5291790000000  0.4705790000000 1.0
C      1  0.5208370000000  0.4569540000000  0.5828960000000 1.0
C      1  0.5286930000000  0.4083320000000  0.5195170000000 1.0
C      1  0.4738290000000  0.4084870000000  0.4810130000000 1.0
C      1  0.5317630000000  0.5797710000000  0.4734500000000 1.0
C      1  0.4180810000000  0.4670300000000  0.4520200000000 1.0
C      1  0.5828670000000  0.4715000000000  0.5420440000000 1.0
C      1  0.4174070000000  0.5346270000000  0.5308210000000 1.0
C      1  0.4840530000000  0.5459350000000  0.5863980000000 1.0
C      1  0.5135150000000  0.5434630000000  0.4101160000000 1.0
C      1  0.4773070000000  0.4557350000000  0.4165970000000 1.0
C      1  0.4812660000000  0.4295260000000  0.4933510000000 1.0
C      1  0.4383810000000  0.4745780000000  0.4655140000000 1.0
C      1  0.4767240000000  0.4751650000000  0.4331400000000 1.0
C      1  0.5252620000000  0.5584620000000  0.4858830000000 1.0
C      1  0.4784630000000  0.5615500000000  0.5135350000000 1.0
C      1  0.5211700000000  0.4293970000000  0.5072760000000 1.0
C      1  0.5643050000000  0.5238000000000  0.4831130000000 1.0
C      1  0.4351370000000  0.5162270000000  0.5228430000000 1.0
C      1  0.5650020000000  0.4868120000000  0.5323200000000 1.0
C      1  0.5092930000000  0.5281000000000  0.4300560000000 1.0
C      1  0.4875600000000  0.5300100000000  0.5667630000000 1.0
C      1  0.5205590000000  0.4754860000000  0.5653510000000 1.0
END
