TITL C-1154808-8168-599 -0.0012571492409953 125000 -317.456546493067 0 0 60 (C1) n - 1
REM
REM in /home/nfs/bkarasulu/CARBON/AIRSS/Generating-Clusters/AIREBO/Higher-Symm/Only-C60
REM
REM
REM
REM
REM
REM ./C.cell (28575a23ae977d3b5fae324c64b13b57)
REM
REM compiler GCC version 9.2.1 20190827 (Red Hat 9.2.1-1)
REM options -cpp -mtune=generic -march=x86-64 -g -O0 -fpre-include=/usr/include/finclude/math-vector-fortran.h
REM seed 463293367 -93033778 -1997439967 -740286307 -162861354 -804907715 527370064 850511010 776460244 -1592026541 1667556248 737303029 1688607751 1515312640 1168969511 932192158 1652894675 310864145 -1069168994 1336091245 -1087238246 -1878427208 1450759018 144967846 930732905 -164173712 459416685 -1678214804 1993452070 1770020597 787984799 1483199727 -1058015693
REM
CELL 1.54180   50.00000   50.00000   50.00000   90.00000   90.00000   90.00000
LATT -1
SFAC C  
C      1  0.5148270000000  0.4515110000000  0.5010610000000 1.0
C      1  0.5017720000000  0.5561570000000  0.4307500000000 1.0
C      1  0.5740260000000  0.5115350000000  0.5058250000000 1.0
C      1  0.4824730000000  0.4482980000000  0.4587270000000 1.0
C      1  0.4621880000000  0.5365670000000  0.5172800000000 1.0
C      1  0.5402790000000  0.5110270000000  0.5277400000000 1.0
C      1  0.5264390000000  0.5589700000000  0.4455260000000 1.0
C      1  0.4675650000000  0.5750760000000  0.5261800000000 1.0
C      1  0.4632600000000  0.5540310000000  0.5464350000000 1.0
C      1  0.5220940000000  0.5477690000000  0.4765790000000 1.0
C      1  0.4779720000000  0.4516940000000  0.4878760000000 1.0
C      1  0.4668010000000  0.4675470000000  0.4441780000000 1.0
C      1  0.4962880000000  0.5151950000000  0.5324960000000 1.0
C      1  0.5687540000000  0.4928770000000  0.4851510000000 1.0
C      1  0.5702610000000  0.4991560000000  0.5342450000000 1.0
C      1  0.5153060000000  0.5193930000000  0.4640360000000 1.0
C      1  0.4905510000000  0.5097950000000  0.4289460000000 1.0
C      1  0.5070670000000  0.4898060000000  0.4498700000000 1.0
C      1  0.4869970000000  0.5244550000000  0.5011140000000 1.0
C      1  0.4428160000000  0.5481840000000  0.4837920000000 1.0
C      1  0.5101130000000  0.4441580000000  0.4510350000000 1.0
C      1  0.5481460000000  0.4823050000000  0.5544020000000 1.0
C      1  0.5215500000000  0.5031050000000  0.5534430000000 1.0
C      1  0.4737130000000  0.4924890000000  0.5210220000000 1.0
C      1  0.5287030000000  0.5697450000000  0.5265300000000 1.0
C      1  0.5018710000000  0.4767340000000  0.5446220000000 1.0
C      1  0.4635450000000  0.5404520000000  0.4626520000000 1.0
C      1  0.4822130000000  0.5132990000000  0.4704830000000 1.0
C      1  0.5182380000000  0.4654270000000  0.4355790000000 1.0
C      1  0.5372520000000  0.4958270000000  0.4749640000000 1.0
C      1  0.4707610000000  0.5621950000000  0.4966320000000 1.0
C      1  0.5295840000000  0.4398910000000  0.4737530000000 1.0
C      1  0.4928340000000  0.5634520000000  0.4770920000000 1.0
C      1  0.4913590000000  0.4816540000000  0.4789160000000 1.0
C      1  0.5667280000000  0.5374710000000  0.5021570000000 1.0
C      1  0.5484590000000  0.4655460000000  0.4856660000000 1.0
C      1  0.4808160000000  0.5617820000000  0.4494460000000 1.0
C      1  0.4680120000000  0.4958230000000  0.4449850000000 1.0
C      1  0.4501410000000  0.5070230000000  0.5051990000000 1.0
C      1  0.5260560000000  0.4570120000000  0.5536280000000 1.0
C      1  0.5520380000000  0.4494750000000  0.5154230000000 1.0
C      1  0.4518240000000  0.4799880000000  0.5431670000000 1.0
C      1  0.5297050000000  0.4947400000000  0.5054820000000 1.0
C      1  0.4478890000000  0.4531610000000  0.5137670000000 1.0
C      1  0.5045910000000  0.4218410000000  0.5248600000000 1.0
C      1  0.5313010000000  0.4368700000000  0.5339400000000 1.0
C      1  0.4780920000000  0.4383510000000  0.5187870000000 1.0
C      1  0.4244440000000  0.5230550000000  0.5309120000000 1.0
C      1  0.4842880000000  0.4966580000000  0.5658460000000 1.0
C      1  0.4716820000000  0.5245460000000  0.5540290000000 1.0
C      1  0.4413330000000  0.4754760000000  0.5048530000000 1.0
C      1  0.5031740000000  0.4790080000000  0.5106970000000 1.0
C      1  0.5206780000000  0.5387350000000  0.5297590000000 1.0
C      1  0.5375330000000  0.5480910000000  0.5017510000000 1.0
C      1  0.4742040000000  0.4592350000000  0.5431410000000 1.0
C      1  0.4273100000000  0.5300340000000  0.4996940000000 1.0
C      1  0.4444820000000  0.5090380000000  0.5468320000000 1.0
C      1  0.5215300000000  0.4186730000000  0.4984860000000 1.0
C      1  0.5685880000000  0.4658310000000  0.5329690000000 1.0
C      1  0.4974860000000  0.5327580000000  0.4155920000000 1.0
END
