TITL C-1154828-9214-399 -0.000406975468675361 125000 -324.965264645194 0 0 60 (C1) n - 1
REM
REM in /home/nfs/bkarasulu/CARBON/AIRSS/Generating-Clusters/AIREBO/Higher-Symm/Only-C60
REM
REM
REM
REM
REM
REM ./C.cell (28575a23ae977d3b5fae324c64b13b57)
REM
REM compiler GCC version 9.2.1 20190827 (Red Hat 9.2.1-1)
REM options -cpp -mtune=generic -march=x86-64 -g -O0 -fpre-include=/usr/include/finclude/math-vector-fortran.h
REM seed 1356011418 -856751000 -267023105 1763249483 -2097469663 -326520676 883103533 1678525402 395259796 408156272 50144116 -2116524873 -1471998304 -1682879347 1756021539 -1084714249 -541974916 583080649 396213257 1646358995 -1838083618 -968333524 1679695369 -674898742 973912748 -1114992502 -503018729 -632838829 -1972911459 -1702473374 1917794302 -867695217 492934308
REM
CELL 1.54180   50.00000   50.00000   50.00000   90.00000   90.00000   90.00000
LATT -1
SFAC C  
C      1  0.5592050000000  0.5325630000000  0.5541960000000 1.0
C      1  0.5494240000000  0.5552490000000  0.4861020000000 1.0
C      1  0.5219630000000  0.5484470000000  0.4317710000000 1.0
C      1  0.4607500000000  0.5498410000000  0.4645130000000 1.0
C      1  0.4244680000000  0.5461830000000  0.5194910000000 1.0
C      1  0.4891390000000  0.5476540000000  0.5541130000000 1.0
C      1  0.5499210000000  0.4553190000000  0.5465830000000 1.0
C      1  0.5637770000000  0.4805370000000  0.4488460000000 1.0
C      1  0.5006610000000  0.4402410000000  0.4435470000000 1.0
C      1  0.4459440000000  0.4544300000000  0.4644710000000 1.0
C      1  0.4430620000000  0.4595490000000  0.5194110000000 1.0
C      1  0.4980810000000  0.4561010000000  0.5563490000000 1.0
C      1  0.4635070000000  0.4855760000000  0.5418610000000 1.0
C      1  0.5205570000000  0.4894620000000  0.5426160000000 1.0
C      1  0.5578940000000  0.4864330000000  0.4963850000000 1.0
C      1  0.5327420000000  0.4763940000000  0.4503240000000 1.0
C      1  0.4829510000000  0.4873470000000  0.4492790000000 1.0
C      1  0.4470690000000  0.4849610000000  0.4792750000000 1.0
C      1  0.4557220000000  0.5168490000000  0.5367370000000 1.0
C      1  0.5060360000000  0.5124580000000  0.5455990000000 1.0
C      1  0.5578610000000  0.5127040000000  0.5128620000000 1.0
C      1  0.5360330000000  0.5080770000000  0.4587550000000 1.0
C      1  0.4887910000000  0.5181680000000  0.4453870000000 1.0
C      1  0.4453530000000  0.5136940000000  0.4890740000000 1.0
C      1  0.5344250000000  0.5725080000000  0.4717850000000 1.0
C      1  0.5132740000000  0.5628690000000  0.4555390000000 1.0
C      1  0.4502120000000  0.5656980000000  0.4838990000000 1.0
C      1  0.4475630000000  0.5596850000000  0.5117350000000 1.0
C      1  0.5145260000000  0.5572220000000  0.5537240000000 1.0
C      1  0.5383580000000  0.5477080000000  0.5414800000000 1.0
C      1  0.5193310000000  0.4316810000000  0.4909490000000 1.0
C      1  0.4950000000000  0.4308480000000  0.4700730000000 1.0
C      1  0.4682250000000  0.4367820000000  0.4781490000000 1.0
C      1  0.4577570000000  0.4380120000000  0.5350250000000 1.0
C      1  0.5215540000000  0.4418060000000  0.5529900000000 1.0
C      1  0.5324300000000  0.4399620000000  0.5212280000000 1.0
C      1  0.4322940000000  0.4856270000000  0.5300120000000 1.0
C      1  0.4867060000000  0.4832700000000  0.5649010000000 1.0
C      1  0.5479640000000  0.4839820000000  0.5492470000000 1.0
C      1  0.5724670000000  0.4931360000000  0.4710750000000 1.0
C      1  0.5050230000000  0.4669710000000  0.4388100000000 1.0
C      1  0.4514980000000  0.4833670000000  0.4467820000000 1.0
C      1  0.4288520000000  0.5146880000000  0.5159350000000 1.0
C      1  0.4787780000000  0.5162340000000  0.5622160000000 1.0
C      1  0.5632160000000  0.5068170000000  0.5418010000000 1.0
C      1  0.5580350000000  0.5228880000000  0.4804180000000 1.0
C      1  0.5180690000000  0.5212270000000  0.4357200000000 1.0
C      1  0.4569470000000  0.5164770000000  0.4572040000000 1.0
C      1  0.4673970000000  0.4652390000000  0.4963550000000 1.0
C      1  0.4823290000000  0.4610960000000  0.5266300000000 1.0
C      1  0.5119300000000  0.4741310000000  0.5209040000000 1.0
C      1  0.5361040000000  0.4664290000000  0.5013130000000 1.0
C      1  0.5194760000000  0.4619480000000  0.4756150000000 1.0
C      1  0.4925500000000  0.4747760000000  0.4770670000000 1.0
C      1  0.4733480000000  0.5271390000000  0.4948080000000 1.0
C      1  0.4736620000000  0.5428870000000  0.5242110000000 1.0
C      1  0.5044920000000  0.5286570000000  0.5224520000000 1.0
C      1  0.5340860000000  0.5368860000000  0.5095180000000 1.0
C      1  0.5184060000000  0.5230990000000  0.4826810000000 1.0
C      1  0.4928040000000  0.5400070000000  0.4702020000000 1.0
END
