TITL C-1154828-9214-529 0.00195427590229406 125000 -302.794543878616 0 0 60 (C1) n - 1
REM
REM in /home/nfs/bkarasulu/CARBON/AIRSS/Generating-Clusters/AIREBO/Higher-Symm/Only-C60
REM
REM
REM
REM
REM
REM ./C.cell (28575a23ae977d3b5fae324c64b13b57)
REM
REM compiler GCC version 9.2.1 20190827 (Red Hat 9.2.1-1)
REM options -cpp -mtune=generic -march=x86-64 -g -O0 -fpre-include=/usr/include/finclude/math-vector-fortran.h
REM seed 833893885 1008800738 870942628 1146842714 -1562378659 569885682 1900995332 -1307945178 2114222554 -1144679355 1566874881 -432686067 -285809381 -914416415 2038892122 1045493240 -787420245 740032478 1690114265 -1668500594 -274505828 475744301 -284720378 862185505 810003031 -1312408313 -1465014369 -83765741 -2035779703 -1765126254 -1791833038 -1694052787 -1823677994
REM
CELL 1.54180   50.00000   50.00000   50.00000   90.00000   90.00000   90.00000
LATT -1
SFAC C  
C      1  0.4711870000000  0.5369650000000  0.4430480000000 1.0
C      1  0.5044330000000  0.5294040000000  0.4431300000000 1.0
C      1  0.5305770000000  0.5195000000000  0.4624820000000 1.0
C      1  0.5290670000000  0.4642420000000  0.4564720000000 1.0
C      1  0.4972910000000  0.4543810000000  0.4489720000000 1.0
C      1  0.4713750000000  0.4739380000000  0.4557700000000 1.0
C      1  0.4649450000000  0.5075560000000  0.4558020000000 1.0
C      1  0.4973690000000  0.5465090000000  0.4980100000000 1.0
C      1  0.5266040000000  0.5409840000000  0.5084230000000 1.0
C      1  0.5398690000000  0.5019620000000  0.4896600000000 1.0
C      1  0.5195660000000  0.4768440000000  0.5003170000000 1.0
C      1  0.5017430000000  0.4560390000000  0.5091490000000 1.0
C      1  0.4660100000000  0.4987570000000  0.4947150000000 1.0
C      1  0.4742890000000  0.5276840000000  0.4816020000000 1.0
C      1  0.4674020000000  0.5040090000000  0.5456690000000 1.0
C      1  0.4806460000000  0.5347990000000  0.5488790000000 1.0
C      1  0.5142870000000  0.5314260000000  0.5451470000000 1.0
C      1  0.5320080000000  0.5032440000000  0.5510320000000 1.0
C      1  0.5207640000000  0.4742540000000  0.5586510000000 1.0
C      1  0.4952040000000  0.4632040000000  0.5607670000000 1.0
C      1  0.4685310000000  0.4769760000000  0.5539970000000 1.0
C      1  0.5408340000000  0.4449330000000  0.5258640000000 1.0
C      1  0.4872660000000  0.4239310000000  0.5265070000000 1.0
C      1  0.4466590000000  0.4740280000000  0.5207380000000 1.0
C      1  0.4450770000000  0.5383340000000  0.5225070000000 1.0
C      1  0.4946770000000  0.5717630000000  0.5438820000000 1.0
C      1  0.5492330000000  0.5730670000000  0.5137440000000 1.0
C      1  0.5659520000000  0.4927830000000  0.5180860000000 1.0
C      1  0.4422660000000  0.5243890000000  0.5508570000000 1.0
C      1  0.4724280000000  0.5583260000000  0.5692040000000 1.0
C      1  0.5100320000000  0.5545850000000  0.5696830000000 1.0
C      1  0.5658000000000  0.5034660000000  0.5472580000000 1.0
C      1  0.5392950000000  0.4533930000000  0.5517470000000 1.0
C      1  0.4923310000000  0.4358540000000  0.5569500000000 1.0
C      1  0.4398450000000  0.4595920000000  0.5486050000000 1.0
C      1  0.5178770000000  0.4263510000000  0.5119030000000 1.0
C      1  0.4737450000000  0.4559170000000  0.5278170000000 1.0
C      1  0.4417820000000  0.5073510000000  0.5151520000000 1.0
C      1  0.4748170000000  0.5548590000000  0.5220470000000 1.0
C      1  0.5255320000000  0.5615210000000  0.5339770000000 1.0
C      1  0.5397330000000  0.5144070000000  0.5194870000000 1.0
C      1  0.5488490000000  0.4673400000000  0.5074870000000 1.0
C      1  0.4346090000000  0.4844820000000  0.4910360000000 1.0
C      1  0.4559450000000  0.5533650000000  0.4936950000000 1.0
C      1  0.4978460000000  0.5689820000000  0.4754370000000 1.0
C      1  0.5485780000000  0.5562660000000  0.4891100000000 1.0
C      1  0.5670350000000  0.4838480000000  0.4845190000000 1.0
C      1  0.5230900000000  0.4161470000000  0.4831120000000 1.0
C      1  0.4795620000000  0.4347440000000  0.4946380000000 1.0
C      1  0.5598750000000  0.4703560000000  0.4592160000000 1.0
C      1  0.5203170000000  0.4331500000000  0.4622040000000 1.0
C      1  0.4729930000000  0.4428460000000  0.4697730000000 1.0
C      1  0.4412270000000  0.4859640000000  0.4612710000000 1.0
C      1  0.4559280000000  0.5584050000000  0.4638070000000 1.0
C      1  0.4951840000000  0.5600190000000  0.4496980000000 1.0
C      1  0.5511740000000  0.5430540000000  0.4657670000000 1.0
C      1  0.5136540000000  0.4999640000000  0.4322520000000 1.0
C      1  0.4920620000000  0.5147660000000  0.5238700000000 1.0
C      1  0.4983250000000  0.4988950000000  0.4944250000000 1.0
C      1  0.5118390000000  0.4911380000000  0.4639440000000 1.0
END
