TITL C-1154821-8623-433 0.000702681802867576 125000 -313.871575973235 0 0 60 (C1) n - 1
REM
REM in /home/nfs/bkarasulu/CARBON/AIRSS/Generating-Clusters/AIREBO/Higher-Symm/Only-C60
REM
REM
REM
REM
REM
REM ./C.cell (28575a23ae977d3b5fae324c64b13b57)
REM
REM compiler GCC version 9.2.1 20190827 (Red Hat 9.2.1-1)
REM options -cpp -mtune=generic -march=x86-64 -g -O0 -fpre-include=/usr/include/finclude/math-vector-fortran.h
REM seed -555164573 1446732043 -2144180813 1411684677 -1959469057 1317452363 839653879 -1941674817 -1640948346 642031736 -922331663 237682692 -453200829 599337208 795729073 -1847641802 2010202514 32560174 -761367978 -442386277 510299103 -1829663854 -1477045979 442931874 417643533 252839541 1563730331 -1181984133 974087505 -1789774604 -923997682 1978047613 -2061065360
REM
CELL 1.54180   50.00000   50.00000   50.00000   90.00000   90.00000   90.00000
LATT -1
SFAC C  
C      1  0.4494310000000  0.4545900000000  0.5486420000000 1.0
C      1  0.5505290000000  0.4549240000000  0.5506920000000 1.0
C      1  0.5415000000000  0.5338950000000  0.4632220000000 1.0
C      1  0.4515910000000  0.5399230000000  0.4652990000000 1.0
C      1  0.4916080000000  0.5549680000000  0.5567380000000 1.0
C      1  0.5196830000000  0.5532380000000  0.5624550000000 1.0
C      1  0.4490320000000  0.4967460000000  0.4876840000000 1.0
C      1  0.5573120000000  0.4997750000000  0.4875040000000 1.0
C      1  0.4314410000000  0.4743700000000  0.5396390000000 1.0
C      1  0.5687140000000  0.4753650000000  0.5431630000000 1.0
C      1  0.5184030000000  0.4499050000000  0.4438170000000 1.0
C      1  0.4871250000000  0.4432510000000  0.4427180000000 1.0
C      1  0.4851270000000  0.5427980000000  0.4604560000000 1.0
C      1  0.5180910000000  0.5482160000000  0.4536040000000 1.0
C      1  0.4457500000000  0.5453340000000  0.4935510000000 1.0
C      1  0.5468480000000  0.5412350000000  0.4905410000000 1.0
C      1  0.4844230000000  0.4973050000000  0.4496110000000 1.0
C      1  0.5130780000000  0.5025550000000  0.4626930000000 1.0
C      1  0.4533660000000  0.5093790000000  0.4564140000000 1.0
C      1  0.5462590000000  0.5011550000000  0.4553720000000 1.0
C      1  0.4593200000000  0.5461350000000  0.5490430000000 1.0
C      1  0.5359700000000  0.5445180000000  0.5417300000000 1.0
C      1  0.4900030000000  0.4700300000000  0.4631590000000 1.0
C      1  0.5154330000000  0.4663380000000  0.4800990000000 1.0
C      1  0.4258720000000  0.5069870000000  0.5069710000000 1.0
C      1  0.5792870000000  0.5078550000000  0.5097580000000 1.0
C      1  0.5310690000000  0.5069610000000  0.5291360000000 1.0
C      1  0.4696180000000  0.5108960000000  0.5332280000000 1.0
C      1  0.4659090000000  0.4441770000000  0.4975980000000 1.0
C      1  0.5393570000000  0.4494860000000  0.4974110000000 1.0
C      1  0.5263760000000  0.5611060000000  0.4983480000000 1.0
C      1  0.4695910000000  0.5589240000000  0.5038570000000 1.0
C      1  0.4843790000000  0.5408300000000  0.5266710000000 1.0
C      1  0.5153000000000  0.5346400000000  0.5166020000000 1.0
C      1  0.4412660000000  0.5000780000000  0.5485900000000 1.0
C      1  0.5574250000000  0.5011710000000  0.5498310000000 1.0
C      1  0.5096260000000  0.5127160000000  0.4934300000000 1.0
C      1  0.4807830000000  0.5200300000000  0.4834730000000 1.0
C      1  0.4869090000000  0.4887880000000  0.5506140000000 1.0
C      1  0.5141000000000  0.4876850000000  0.5481780000000 1.0
C      1  0.5670070000000  0.4618290000000  0.4945830000000 1.0
C      1  0.4375310000000  0.4585900000000  0.4875560000000 1.0
C      1  0.4752810000000  0.4944370000000  0.5052120000000 1.0
C      1  0.5305610000000  0.4894120000000  0.5000100000000 1.0
C      1  0.5147350000000  0.4529130000000  0.5177210000000 1.0
C      1  0.4842550000000  0.4624600000000  0.5128970000000 1.0
C      1  0.5547940000000  0.5283860000000  0.5175200000000 1.0
C      1  0.4437720000000  0.5307090000000  0.5230120000000 1.0
C      1  0.5774170000000  0.4778040000000  0.5158960000000 1.0
C      1  0.4251070000000  0.4758450000000  0.5117510000000 1.0
C      1  0.5237710000000  0.4609410000000  0.5432210000000 1.0
C      1  0.4757280000000  0.4627290000000  0.5434800000000 1.0
C      1  0.4363200000000  0.4798460000000  0.4610490000000 1.0
C      1  0.5695020000000  0.4761700000000  0.4662780000000 1.0
C      1  0.5113510000000  0.5685680000000  0.4758400000000 1.0
C      1  0.4826840000000  0.5694960000000  0.4813690000000 1.0
C      1  0.4635970000000  0.4514420000000  0.4661190000000 1.0
C      1  0.5296970000000  0.4374940000000  0.4687530000000 1.0
C      1  0.4642310000000  0.5054840000000  0.4235020000000 1.0
C      1  0.5257540000000  0.4771680000000  0.4426860000000 1.0
END
