TITL C-1154808-8168-314 0.000870488357733325 125000 -297.902655770998 0 0 60 (C1) n - 1
REM
REM in /home/nfs/bkarasulu/CARBON/AIRSS/Generating-Clusters/AIREBO/Higher-Symm/Only-C60
REM
REM
REM
REM
REM
REM ./C.cell (28575a23ae977d3b5fae324c64b13b57)
REM
REM compiler GCC version 9.2.1 20190827 (Red Hat 9.2.1-1)
REM options -cpp -mtune=generic -march=x86-64 -g -O0 -fpre-include=/usr/include/finclude/math-vector-fortran.h
REM seed 1928916993 776352021 -1495222643 -1248733908 1499435356 1880306252 1248811003 -1824666957 1302119527 -682087522 744378466 -376398523 -649533550 713699815 -304162816 1847289597 1562183983 -2056524342 -1098729420 1301290665 1946611814 177840526 1157365849 450102210 851935778 1933551588 1233183773 -1180091621 1647276670 -1999505164 1654800415 -1693401264 -638792767
REM
CELL 1.54180   50.00000   50.00000   50.00000   90.00000   90.00000   90.00000
LATT -1
SFAC C  
C      1  0.4815320000000  0.4501390000000  0.5340550000000 1.0
C      1  0.5150320000000  0.5480950000000  0.5259910000000 1.0
C      1  0.4886090000000  0.4468490000000  0.4651530000000 1.0
C      1  0.5116710000000  0.5541070000000  0.4626350000000 1.0
C      1  0.5156810000000  0.4493590000000  0.5282420000000 1.0
C      1  0.4861220000000  0.5493470000000  0.5258110000000 1.0
C      1  0.5168700000000  0.4471720000000  0.4657530000000 1.0
C      1  0.4835990000000  0.5541840000000  0.4632380000000 1.0
C      1  0.5110830000000  0.5315130000000  0.4187620000000 1.0
C      1  0.4890580000000  0.4678830000000  0.4220650000000 1.0
C      1  0.5117650000000  0.5301400000000  0.5678130000000 1.0
C      1  0.4885340000000  0.4750910000000  0.5700610000000 1.0
C      1  0.4836690000000  0.5331670000000  0.4178910000000 1.0
C      1  0.5164370000000  0.4663150000000  0.4204520000000 1.0
C      1  0.4869010000000  0.5323940000000  0.5678740000000 1.0
C      1  0.5136970000000  0.4727510000000  0.5702980000000 1.0
C      1  0.5572300000000  0.5047900000000  0.5580210000000 1.0
C      1  0.4517580000000  0.4880420000000  0.5636210000000 1.0
C      1  0.5508810000000  0.5197840000000  0.4408500000000 1.0
C      1  0.4496780000000  0.4809100000000  0.4423140000000 1.0
C      1  0.4384040000000  0.5144250000000  0.5596830000000 1.0
C      1  0.5523000000000  0.4756890000000  0.5627980000000 1.0
C      1  0.4510110000000  0.5125050000000  0.4400010000000 1.0
C      1  0.5489920000000  0.4883750000000  0.4414250000000 1.0
C      1  0.4692150000000  0.5194120000000  0.5461940000000 1.0
C      1  0.5261870000000  0.4848540000000  0.5430030000000 1.0
C      1  0.4836280000000  0.5172190000000  0.4483700000000 1.0
C      1  0.5164310000000  0.4837890000000  0.4500740000000 1.0
C      1  0.5279970000000  0.5164610000000  0.5458680000000 1.0
C      1  0.4781330000000  0.4887490000000  0.5421600000000 1.0
C      1  0.5176370000000  0.5170950000000  0.4488480000000 1.0
C      1  0.4824510000000  0.4838190000000  0.4513640000000 1.0
C      1  0.4463380000000  0.4832030000000  0.4836290000000 1.0
C      1  0.5536960000000  0.5184620000000  0.4858160000000 1.0
C      1  0.4385830000000  0.4841110000000  0.5123630000000 1.0
C      1  0.5567430000000  0.5129110000000  0.5189010000000 1.0
C      1  0.5538180000000  0.4887610000000  0.4871910000000 1.0
C      1  0.4456220000000  0.5131800000000  0.4861950000000 1.0
C      1  0.5640120000000  0.4792890000000  0.5123530000000 1.0
C      1  0.4408230000000  0.5183240000000  0.5181430000000 1.0
C      1  0.5632370000000  0.5340500000000  0.5521500000000 1.0
C      1  0.4555460000000  0.4586260000000  0.5551540000000 1.0
C      1  0.5406390000000  0.5496200000000  0.4492820000000 1.0
C      1  0.4596120000000  0.4511960000000  0.4519850000000 1.0
C      1  0.4379320000000  0.5434910000000  0.5524030000000 1.0
C      1  0.5400710000000  0.4486320000000  0.5524130000000 1.0
C      1  0.4545600000000  0.5444170000000  0.4484680000000 1.0
C      1  0.5458660000000  0.4569900000000  0.4509580000000 1.0
C      1  0.4731560000000  0.5271090000000  0.4791750000000 1.0
C      1  0.5271430000000  0.4750970000000  0.4811640000000 1.0
C      1  0.4742900000000  0.5206100000000  0.5125710000000 1.0
C      1  0.5165090000000  0.4780650000000  0.5110820000000 1.0
C      1  0.5248920000000  0.5289600000000  0.4796250000000 1.0
C      1  0.4750340000000  0.4720690000000  0.4824010000000 1.0
C      1  0.5240020000000  0.5192180000000  0.5121900000000 1.0
C      1  0.4856290000000  0.4754740000000  0.5117540000000 1.0
C      1  0.4520990000000  0.5496630000000  0.5265570000000 1.0
C      1  0.5483240000000  0.4577850000000  0.5236090000000 1.0
C      1  0.4507240000000  0.4610580000000  0.5246220000000 1.0
C      1  0.5489070000000  0.5452030000000  0.5271580000000 1.0
END
