TITL C-1154824-75-445 -0.00151705111554403 125000 -323.848699950818 0 0 60 (Ci) n - 1
REM
REM in /home/nfs/bkarasulu/CARBON/AIRSS/Generating-Clusters/AIREBO/Higher-Symm/Only-C60
REM
REM
REM
REM
REM
REM ./C.cell (28575a23ae977d3b5fae324c64b13b57)
REM
REM compiler GCC version 9.2.1 20190827 (Red Hat 9.2.1-1)
REM options -cpp -mtune=generic -march=x86-64 -g -O0 -fpre-include=/usr/include/finclude/math-vector-fortran.h
REM seed -546221868 1524103857 2045804825 -1597323795 -1926210887 -1604116148 873056288 755673335 -1972436762 -262187548 -479062594 -16131674 -922136572 -1599625683 588529275 290031680 -2122688352 1085501676 -233383039 728201478 -1150950755 1686668481 -1056726678 1081351203 -1383192992 962560842 -332850510 2075178150 -1282033253 1754772207 1293054045 -150869219 -1303243865
REM
CELL 1.54180   50.00000   50.00000   50.00000   90.00000   90.00000   90.00000
LATT -1
SFAC C  
C      1  0.4585420000000  0.5091840000000  0.5649170000000 1.0
C      1  0.5414580000000  0.4908160000000  0.4350830000000 1.0
C      1  0.4321140000000  0.5226400000000  0.4640560000000 1.0
C      1  0.5678860000000  0.4773600000000  0.5359440000000 1.0
C      1  0.4387190000000  0.4995540000000  0.5492380000000 1.0
C      1  0.5612810000000  0.5004460000000  0.4507620000000 1.0
C      1  0.5628480000000  0.5037270000000  0.5301950000000 1.0
C      1  0.4371520000000  0.4962730000000  0.4698050000000 1.0
C      1  0.5554080000000  0.4576010000000  0.5124320000000 1.0
C      1  0.4445920000000  0.5423990000000  0.4875680000000 1.0
C      1  0.5185280000000  0.4433020000000  0.5065150000000 1.0
C      1  0.4814720000000  0.5566980000000  0.4934850000000 1.0
C      1  0.5314350000000  0.5437220000000  0.4383890000000 1.0
C      1  0.4685650000000  0.4562780000000  0.5616110000000 1.0
C      1  0.5211470000000  0.5239980000000  0.5296550000000 1.0
C      1  0.4788530000000  0.4760020000000  0.4703450000000 1.0
C      1  0.4929700000000  0.5632000000000  0.5186190000000 1.0
C      1  0.5070300000000  0.4368000000000  0.4813810000000 1.0
C      1  0.4934500000000  0.5271500000000  0.4671170000000 1.0
C      1  0.5065500000000  0.4728500000000  0.5328830000000 1.0
C      1  0.4538140000000  0.4535410000000  0.5413610000000 1.0
C      1  0.5461860000000  0.5464590000000  0.4586390000000 1.0
C      1  0.4852340000000  0.4802950000000  0.5143410000000 1.0
C      1  0.5147660000000  0.5197050000000  0.4856590000000 1.0
C      1  0.4908910000000  0.5018640000000  0.5701190000000 1.0
C      1  0.5091090000000  0.4981360000000  0.4298810000000 1.0
C      1  0.5677620000000  0.4557920000000  0.4855190000000 1.0
C      1  0.4322380000000  0.5442080000000  0.5144810000000 1.0
C      1  0.4199670000000  0.5207500000000  0.5211270000000 1.0
C      1  0.5800330000000  0.4792500000000  0.4788730000000 1.0
C      1  0.4488220000000  0.4625340000000  0.5132030000000 1.0
C      1  0.5511780000000  0.5374660000000  0.4867970000000 1.0
C      1  0.5532900000000  0.4398520000000  0.4670920000000 1.0
C      1  0.4467100000000  0.5601480000000  0.5329080000000 1.0
C      1  0.5100680000000  0.4765550000000  0.4785570000000 1.0
C      1  0.4899320000000  0.5234450000000  0.5214430000000 1.0
C      1  0.5275310000000  0.4760970000000  0.5063270000000 1.0
C      1  0.4724690000000  0.5239030000000  0.4936730000000 1.0
C      1  0.5394420000000  0.5079630000000  0.5058940000000 1.0
C      1  0.4605580000000  0.4920370000000  0.4941060000000 1.0
C      1  0.4568220000000  0.4413900000000  0.4931530000000 1.0
C      1  0.5431780000000  0.5586100000000  0.5068470000000 1.0
C      1  0.4800030000000  0.4459300000000  0.4787470000000 1.0
C      1  0.5199970000000  0.5540700000000  0.5212530000000 1.0
C      1  0.4357590000000  0.4927340000000  0.5173750000000 1.0
C      1  0.5642410000000  0.5072660000000  0.4826250000000 1.0
C      1  0.4945570000000  0.4729230000000  0.5630990000000 1.0
C      1  0.5054430000000  0.5270770000000  0.4369010000000 1.0
C      1  0.5523340000000  0.4496930000000  0.5455710000000 1.0
C      1  0.4476660000000  0.5503070000000  0.4544290000000 1.0
C      1  0.4781310000000  0.5448230000000  0.4423700000000 1.0
C      1  0.5218690000000  0.4551770000000  0.5576300000000 1.0
C      1  0.5256220000000  0.4335860000000  0.5317180000000 1.0
C      1  0.4743780000000  0.5664140000000  0.4682820000000 1.0
C      1  0.5179310000000  0.5181980000000  0.5606260000000 1.0
C      1  0.4820690000000  0.4818020000000  0.4393740000000 1.0
C      1  0.5257860000000  0.4435170000000  0.4606170000000 1.0
C      1  0.4742140000000  0.5564830000000  0.5393830000000 1.0
C      1  0.4805020000000  0.5288070000000  0.5516150000000 1.0
C      1  0.5194980000000  0.4711930000000  0.4483850000000 1.0
END
