TITL C-1154803-8277-517 -0.000145490023208257 125000 -331.596401996249 0 0 60 (C1) n - 1
REM
REM in /home/nfs/bkarasulu/CARBON/AIRSS/Generating-Clusters/AIREBO/Higher-Symm/Only-C60
REM
REM
REM
REM
REM
REM ./C.cell (28575a23ae977d3b5fae324c64b13b57)
REM
REM compiler GCC version 9.2.1 20190827 (Red Hat 9.2.1-1)
REM options -cpp -mtune=generic -march=x86-64 -g -O0 -fpre-include=/usr/include/finclude/math-vector-fortran.h
REM seed -1135482404 -1042799306 -2047359039 1960365696 -1422526300 -1349199396 -774071953 1035072433 1026655499 -1206000038 306125748 -199617279 -1675961834 1539369355 1297596071 1721445434 -505973648 1679168288 159744604 1961589794 -1338644355 1057228504 1810607903 739847348 1280382103 1576269760 1494484049 967880866 -625570734 -952910311 1906706797 1914238106 1798091970
REM
CELL 1.54180   50.00000   50.00000   50.00000   90.00000   90.00000   90.00000
LATT -1
SFAC C  
C      1  0.5211660000000  0.5731030000000  0.4794680000000 1.0
C      1  0.5196560000000  0.5221900000000  0.5740330000000 1.0
C      1  0.5188900000000  0.4266510000000  0.5190710000000 1.0
C      1  0.5168000000000  0.4879060000000  0.4269790000000 1.0
C      1  0.5103020000000  0.5742620000000  0.5072620000000 1.0
C      1  0.5055690000000  0.5137050000000  0.4209780000000 1.0
C      1  0.5171840000000  0.4267010000000  0.4891910000000 1.0
C      1  0.5139940000000  0.4914860000000  0.5737610000000 1.0
C      1  0.4339280000000  0.4456500000000  0.5413970000000 1.0
C      1  0.4574020000000  0.4513320000000  0.4323860000000 1.0
C      1  0.4729320000000  0.5652920000000  0.4537240000000 1.0
C      1  0.4710960000000  0.5440710000000  0.5713120000000 1.0
C      1  0.4785660000000  0.4349340000000  0.4413620000000 1.0
C      1  0.4421010000000  0.4590990000000  0.5640640000000 1.0
C      1  0.4703590000000  0.5676120000000  0.5556250000000 1.0
C      1  0.4621880000000  0.5504730000000  0.4320130000000 1.0
C      1  0.4705510000000  0.5126630000000  0.5354370000000 1.0
C      1  0.4756750000000  0.4626400000000  0.5141320000000 1.0
C      1  0.4671190000000  0.4835350000000  0.4679900000000 1.0
C      1  0.4688110000000  0.5321380000000  0.4874340000000 1.0
C      1  0.4750760000000  0.5121020000000  0.4642730000000 1.0
C      1  0.4829950000000  0.4642140000000  0.4853180000000 1.0
C      1  0.4809200000000  0.4850900000000  0.5383020000000 1.0
C      1  0.4791380000000  0.5336890000000  0.5154540000000 1.0
C      1  0.4728000000000  0.5638660000000  0.5284320000000 1.0
C      1  0.4664220000000  0.4716010000000  0.5636680000000 1.0
C      1  0.4801230000000  0.4343160000000  0.4715230000000 1.0
C      1  0.4596480000000  0.5234840000000  0.4377840000000 1.0
C      1  0.4604640000000  0.5566600000000  0.4778010000000 1.0
C      1  0.4506900000000  0.4722570000000  0.4493370000000 1.0
C      1  0.4473440000000  0.4501660000000  0.5180190000000 1.0
C      1  0.4583630000000  0.5226330000000  0.5578820000000 1.0
C      1  0.5506110000000  0.4684200000000  0.5121090000000 1.0
C      1  0.5518010000000  0.4897600000000  0.4677640000000 1.0
C      1  0.5412990000000  0.5331640000000  0.4829400000000 1.0
C      1  0.5441770000000  0.5110660000000  0.5306730000000 1.0
C      1  0.5440510000000  0.4673540000000  0.4851940000000 1.0
C      1  0.5383130000000  0.4846040000000  0.5309280000000 1.0
C      1  0.5358290000000  0.5335490000000  0.5104050000000 1.0
C      1  0.5598310000000  0.5158400000000  0.4723610000000 1.0
C      1  0.4972790000000  0.5287660000000  0.4004220000000 1.0
C      1  0.5017310000000  0.5961490000000  0.5186250000000 1.0
C      1  0.5120810000000  0.4777420000000  0.5959590000000 1.0
C      1  0.5194150000000  0.4046920000000  0.4751410000000 1.0
C      1  0.5425450000000  0.5280440000000  0.5899920000000 1.0
C      1  0.5435890000000  0.5882440000000  0.4736880000000 1.0
C      1  0.5255190000000  0.4693000000000  0.4090430000000 1.0
C      1  0.5440930000000  0.4203750000000  0.5294390000000 1.0
C      1  0.5132930000000  0.4777220000000  0.5459100000000 1.0
C      1  0.5140190000000  0.4559890000000  0.4740150000000 1.0
C      1  0.5045220000000  0.5147430000000  0.4539260000000 1.0
C      1  0.5080310000000  0.5470030000000  0.5202470000000 1.0
C      1  0.5214960000000  0.4853040000000  0.4575500000000 1.0
C      1  0.4992490000000  0.4504030000000  0.5330300000000 1.0
C      1  0.5241490000000  0.5308360000000  0.5454680000000 1.0
C      1  0.5177960000000  0.5401830000000  0.4649660000000 1.0
C      1  0.4933310000000  0.4193670000000  0.5401070000000 1.0
C      1  0.5076990000000  0.4419420000000  0.4437040000000 1.0
C      1  0.5004660000000  0.5665460000000  0.4558710000000 1.0
C      1  0.4945740000000  0.5373740000000  0.5851090000000 1.0
END
