TITL C-1154804-8633-672 0.00238305299669381 125000 -313.605346479659 0 0 60 (C1) n - 1
REM
REM in /home/nfs/bkarasulu/CARBON/AIRSS/Generating-Clusters/AIREBO/Higher-Symm/Only-C60
REM
REM
REM
REM
REM
REM ./C.cell (28575a23ae977d3b5fae324c64b13b57)
REM
REM compiler GCC version 9.2.1 20190827 (Red Hat 9.2.1-1)
REM options -cpp -mtune=generic -march=x86-64 -g -O0 -fpre-include=/usr/include/finclude/math-vector-fortran.h
REM seed -211445740 440545693 1470161781 592600472 1742423769 686872611 -689611799 1484014150 -1777027115 -289891876 747471934 -161921927 2017921439 -1075247921 1602481858 -188110029 2122200146 1932145358 1411938576 -1672406250 -1517079768 1729504680 932670447 770857571 1933280725 -496147636 -1024855395 735607619 -1496346936 -2106579509 1659601630 -1990886312 -205279696
REM
CELL 1.54180   50.00000   50.00000   50.00000   90.00000   90.00000   90.00000
LATT -1
SFAC C  
C      1  0.5387220000000  0.4833240000000  0.4501860000000 1.0
C      1  0.5365280000000  0.5354390000000  0.4690530000000 1.0
C      1  0.5573510000000  0.5576280000000  0.5064440000000 1.0
C      1  0.5342190000000  0.5488300000000  0.5288740000000 1.0
C      1  0.5456530000000  0.5015470000000  0.5488400000000 1.0
C      1  0.5544520000000  0.4498270000000  0.5308150000000 1.0
C      1  0.5400520000000  0.4627260000000  0.5039550000000 1.0
C      1  0.5093180000000  0.5269290000000  0.4835440000000 1.0
C      1  0.5114840000000  0.5305650000000  0.5174330000000 1.0
C      1  0.5153580000000  0.5032840000000  0.5376930000000 1.0
C      1  0.5065260000000  0.4750290000000  0.5209520000000 1.0
C      1  0.5108540000000  0.4592210000000  0.4911400000000 1.0
C      1  0.5080130000000  0.4795510000000  0.4640200000000 1.0
C      1  0.4993430000000  0.5120220000000  0.4546460000000 1.0
C      1  0.4796190000000  0.5674980000000  0.5054520000000 1.0
C      1  0.4793090000000  0.5306910000000  0.5549610000000 1.0
C      1  0.4751150000000  0.4827170000000  0.5578130000000 1.0
C      1  0.4774330000000  0.4359950000000  0.5146410000000 1.0
C      1  0.4733750000000  0.4432790000000  0.4667050000000 1.0
C      1  0.4659160000000  0.4830770000000  0.4364280000000 1.0
C      1  0.4774490000000  0.5448510000000  0.4489270000000 1.0
C      1  0.4689140000000  0.5136810000000  0.4453770000000 1.0
C      1  0.4830490000000  0.5471040000000  0.4789800000000 1.0
C      1  0.4839410000000  0.5433630000000  0.5254110000000 1.0
C      1  0.4914630000000  0.5055580000000  0.5570770000000 1.0
C      1  0.4781530000000  0.4646600000000  0.5327510000000 1.0
C      1  0.4894090000000  0.4386990000000  0.4896260000000 1.0
C      1  0.4827080000000  0.4650860000000  0.4502960000000 1.0
C      1  0.4794740000000  0.5627400000000  0.4303000000000 1.0
C      1  0.4500440000000  0.5740130000000  0.4981380000000 1.0
C      1  0.4498990000000  0.5362320000000  0.5576400000000 1.0
C      1  0.4476310000000  0.4883470000000  0.5612790000000 1.0
C      1  0.4495300000000  0.4376800000000  0.5269280000000 1.0
C      1  0.4456510000000  0.4429490000000  0.4725680000000 1.0
C      1  0.4375540000000  0.4783070000000  0.4387950000000 1.0
C      1  0.4306270000000  0.4863770000000  0.4655690000000 1.0
C      1  0.4479870000000  0.5150090000000  0.4715180000000 1.0
C      1  0.4531370000000  0.5403060000000  0.4936620000000 1.0
C      1  0.4537490000000  0.5277390000000  0.5246320000000 1.0
C      1  0.4408020000000  0.4971820000000  0.5320490000000 1.0
C      1  0.4477320000000  0.4687390000000  0.5147530000000 1.0
C      1  0.4361450000000  0.4667060000000  0.4853580000000 1.0
C      1  0.5568020000000  0.4228320000000  0.5348060000000 1.0
C      1  0.5455170000000  0.4641510000000  0.4311290000000 1.0
C      1  0.5422400000000  0.5154450000000  0.4439930000000 1.0
C      1  0.5451350000000  0.5647890000000  0.4777270000000 1.0
C      1  0.5474580000000  0.5802240000000  0.5297260000000 1.0
C      1  0.5427900000000  0.5327400000000  0.5544290000000 1.0
C      1  0.5527220000000  0.4708410000000  0.5554060000000 1.0
C      1  0.5853940000000  0.5192090000000  0.5212050000000 1.0
C      1  0.5733300000000  0.4970510000000  0.5333290000000 1.0
C      1  0.5749410000000  0.4731760000000  0.5195520000000 1.0
C      1  0.5675990000000  0.4743760000000  0.4899170000000 1.0
C      1  0.5623530000000  0.4929220000000  0.4704530000000 1.0
C      1  0.5620640000000  0.5192550000000  0.4784740000000 1.0
C      1  0.5736620000000  0.5328880000000  0.4999050000000 1.0
C      1  0.4331970000000  0.5032410000000  0.5013890000000 1.0
C      1  0.5300550000000  0.4936440000000  0.4939060000000 1.0
C      1  0.4962650000000  0.4964530000000  0.4910940000000 1.0
C      1  0.4664820000000  0.4995260000000  0.4954890000000 1.0
END
