TITL C-1154804-8633-397 -0.000420870597162116 125000 -334.310666919602 0 0 60 (C1) n - 1
REM
REM in /home/nfs/bkarasulu/CARBON/AIRSS/Generating-Clusters/AIREBO/Higher-Symm/Only-C60
REM
REM
REM
REM
REM
REM ./C.cell (28575a23ae977d3b5fae324c64b13b57)
REM
REM compiler GCC version 9.2.1 20190827 (Red Hat 9.2.1-1)
REM options -cpp -mtune=generic -march=x86-64 -g -O0 -fpre-include=/usr/include/finclude/math-vector-fortran.h
REM seed 304567684 1182415456 -1129455039 -884103976 -1839662309 1985944972 1220104816 1533371632 -564799423 -2032869046 85809214 -539270349 691477942 -1556171555 -1146916046 -606672179 1059538396 -1955659893 -949349431 -393297301 1647742284 -41933477 211486442 -1947185356 -822047335 928330649 6898864 -987075656 -1188548265 1056531449 1737664192 -1180653309 -472919748
REM
CELL 1.54180   50.00000   50.00000   50.00000   90.00000   90.00000   90.00000
LATT -1
SFAC C  
C      1  0.5325210000000  0.4872690000000  0.4878350000000 1.0
C      1  0.5151740000000  0.4993680000000  0.5097150000000 1.0
C      1  0.4668840000000  0.5109020000000  0.4890300000000 1.0
C      1  0.4813740000000  0.4980590000000  0.5138210000000 1.0
C      1  0.5200880000000  0.5222980000000  0.4639080000000 1.0
C      1  0.5185700000000  0.4649700000000  0.5297560000000 1.0
C      1  0.4806970000000  0.4751750000000  0.4598140000000 1.0
C      1  0.4852210000000  0.5325990000000  0.5346090000000 1.0
C      1  0.4514180000000  0.5045530000000  0.5559560000000 1.0
C      1  0.4521800000000  0.4936020000000  0.4391180000000 1.0
C      1  0.5480670000000  0.4980810000000  0.5523640000000 1.0
C      1  0.5491480000000  0.5069140000000  0.4412280000000 1.0
C      1  0.5052860000000  0.4352310000000  0.5520650000000 1.0
C      1  0.5033820000000  0.5600170000000  0.4637850000000 1.0
C      1  0.4944990000000  0.5664850000000  0.5526840000000 1.0
C      1  0.4968100000000  0.4388900000000  0.4625120000000 1.0
C      1  0.5125240000000  0.5672100000000  0.4957370000000 1.0
C      1  0.5082510000000  0.4355400000000  0.5181210000000 1.0
C      1  0.4849290000000  0.4337310000000  0.4934240000000 1.0
C      1  0.4892210000000  0.5625340000000  0.5192550000000 1.0
C      1  0.4770620000000  0.5518890000000  0.4596120000000 1.0
C      1  0.4784590000000  0.4460990000000  0.5491810000000 1.0
C      1  0.5229780000000  0.4475220000000  0.4587130000000 1.0
C      1  0.5223570000000  0.5586440000000  0.5509910000000 1.0
C      1  0.4568770000000  0.5169650000000  0.5270450000000 1.0
C      1  0.4545210000000  0.4880560000000  0.4722210000000 1.0
C      1  0.5443940000000  0.4841310000000  0.5257140000000 1.0
C      1  0.5485250000000  0.5098820000000  0.4742130000000 1.0
C      1  0.4498820000000  0.4666480000000  0.5165390000000 1.0
C      1  0.4417630000000  0.5367100000000  0.4686800000000 1.0
C      1  0.5504390000000  0.5370030000000  0.5181130000000 1.0
C      1  0.5586780000000  0.4614710000000  0.4681220000000 1.0
C      1  0.5252140000000  0.4573460000000  0.5622180000000 1.0
C      1  0.5228310000000  0.5461770000000  0.4467590000000 1.0
C      1  0.4749710000000  0.5447660000000  0.5642240000000 1.0
C      1  0.4762970000000  0.4501920000000  0.4423180000000 1.0
C      1  0.5372440000000  0.4341390000000  0.5058860000000 1.0
C      1  0.5413380000000  0.5583420000000  0.4800560000000 1.0
C      1  0.4614100000000  0.5652670000000  0.5064400000000 1.0
C      1  0.4535440000000  0.4401970000000  0.4819990000000 1.0
C      1  0.4439400000000  0.4656430000000  0.4894140000000 1.0
C      1  0.4487370000000  0.5351970000000  0.5015850000000 1.0
C      1  0.5533220000000  0.5355370000000  0.4905710000000 1.0
C      1  0.5503180000000  0.4637940000000  0.5007700000000 1.0
C      1  0.5088930000000  0.4841460000000  0.4663800000000 1.0
C      1  0.5083300000000  0.5143950000000  0.5380200000000 1.0
C      1  0.4913280000000  0.5127260000000  0.4680330000000 1.0
C      1  0.4961190000000  0.4831120000000  0.5402600000000 1.0
C      1  0.5420850000000  0.5310830000000  0.4296760000000 1.0
C      1  0.5426500000000  0.4782330000000  0.5716000000000 1.0
C      1  0.4605930000000  0.4710470000000  0.4255520000000 1.0
C      1  0.4573610000000  0.5244600000000  0.5744630000000 1.0
C      1  0.4557550000000  0.5654080000000  0.4766620000000 1.0
C      1  0.4696530000000  0.4454160000000  0.5215970000000 1.0
C      1  0.5436700000000  0.4333160000000  0.4761080000000 1.0
C      1  0.5310320000000  0.5586980000000  0.5230750000000 1.0
C      1  0.5354900000000  0.5271340000000  0.5470500000000 1.0
C      1  0.5365410000000  0.4773620000000  0.4493690000000 1.0
C      1  0.4644150000000  0.4770160000000  0.5454750000000 1.0
C      1  0.4647410000000  0.5214010000000  0.4505610000000 1.0
END
