TITL C-1154823-9327-556 -0.00154723175971505 125000 -312.003991250645 0 0 60 (C1) n - 1
REM
REM in /home/nfs/bkarasulu/CARBON/AIRSS/Generating-Clusters/AIREBO/Higher-Symm/Only-C60
REM
REM
REM
REM
REM
REM ./C.cell (28575a23ae977d3b5fae324c64b13b57)
REM
REM compiler GCC version 9.2.1 20190827 (Red Hat 9.2.1-1)
REM options -cpp -mtune=generic -march=x86-64 -g -O0 -fpre-include=/usr/include/finclude/math-vector-fortran.h
REM seed -1039205890 -1346687975 -33200512 -98550177 892638889 -1731015162 -54586690 1794168851 -439252488 209325510 1042047227 853465155 -426641265 111865308 -73161863 794750157 -1890652641 418724218 1799978612 790851158 -1773237301 -668861084 -1709332829 -545488619 -1049774390 755895413 280535642 802278890 55831105 1850369774 429443849 1978968254 1776150504
REM
CELL 1.54180   50.00000   50.00000   50.00000   90.00000   90.00000   90.00000
LATT -1
SFAC C  
C      1  0.4628700000000  0.5088800000000  0.4455370000000 1.0
C      1  0.5432160000000  0.4916590000000  0.4357200000000 1.0
C      1  0.4606330000000  0.5157120000000  0.5544160000000 1.0
C      1  0.5384890000000  0.4856550000000  0.5558160000000 1.0
C      1  0.4969230000000  0.5287690000000  0.4819880000000 1.0
C      1  0.5027140000000  0.4692790000000  0.4831200000000 1.0
C      1  0.4917040000000  0.5284010000000  0.5137510000000 1.0
C      1  0.5075380000000  0.4708150000000  0.5145580000000 1.0
C      1  0.5359900000000  0.5702070000000  0.4824380000000 1.0
C      1  0.4684000000000  0.4310420000000  0.4828210000000 1.0
C      1  0.5303570000000  0.5733530000000  0.5080760000000 1.0
C      1  0.4712920000000  0.4260310000000  0.5084020000000 1.0
C      1  0.4853150000000  0.4926110000000  0.5583930000000 1.0
C      1  0.5128670000000  0.5078460000000  0.5586880000000 1.0
C      1  0.4904420000000  0.4948030000000  0.4480850000000 1.0
C      1  0.5161910000000  0.4999640000000  0.4488110000000 1.0
C      1  0.5353990000000  0.4653580000000  0.4541100000000 1.0
C      1  0.4645990000000  0.5364180000000  0.4558600000000 1.0
C      1  0.5366510000000  0.4615190000000  0.5401960000000 1.0
C      1  0.4628160000000  0.5398020000000  0.5389130000000 1.0
C      1  0.4833690000000  0.4319240000000  0.4541180000000 1.0
C      1  0.5165870000000  0.5710130000000  0.4564680000000 1.0
C      1  0.4952400000000  0.4225940000000  0.5300360000000 1.0
C      1  0.5054850000000  0.5768860000000  0.5284420000000 1.0
C      1  0.5211360000000  0.5245780000000  0.5302530000000 1.0
C      1  0.4783760000000  0.4746290000000  0.5303690000000 1.0
C      1  0.5260320000000  0.5172080000000  0.4734850000000 1.0
C      1  0.4725010000000  0.4808470000000  0.4726720000000 1.0
C      1  0.4469030000000  0.4723700000000  0.5176930000000 1.0
C      1  0.5525550000000  0.5263660000000  0.5173660000000 1.0
C      1  0.4441740000000  0.4790440000000  0.4913970000000 1.0
C      1  0.5549860000000  0.5196130000000  0.4911500000000 1.0
C      1  0.5156470000000  0.5372340000000  0.4278210000000 1.0
C      1  0.4809420000000  0.4618600000000  0.4278200000000 1.0
C      1  0.5077090000000  0.5392770000000  0.5648050000000 1.0
C      1  0.4910330000000  0.4611250000000  0.5656660000000 1.0
C      1  0.4671820000000  0.5113610000000  0.4867060000000 1.0
C      1  0.5322950000000  0.4869040000000  0.4875910000000 1.0
C      1  0.4713760000000  0.5048510000000  0.5177240000000 1.0
C      1  0.5287210000000  0.4939930000000  0.5182530000000 1.0
C      1  0.5660690000000  0.4926970000000  0.4856430000000 1.0
C      1  0.4330490000000  0.5061570000000  0.4871060000000 1.0
C      1  0.5547930000000  0.5052010000000  0.5395170000000 1.0
C      1  0.4449760000000  0.4947570000000  0.5388940000000 1.0
C      1  0.5484870000000  0.4578790000000  0.5139220000000 1.0
C      1  0.4491260000000  0.5484590000000  0.5146090000000 1.0
C      1  0.5461380000000  0.4561910000000  0.4829560000000 1.0
C      1  0.4558310000000  0.5429760000000  0.4871180000000 1.0
C      1  0.4690030000000  0.4428160000000  0.5378820000000 1.0
C      1  0.5311190000000  0.5562990000000  0.5373670000000 1.0
C      1  0.4579860000000  0.4532300000000  0.4591470000000 1.0
C      1  0.5385660000000  0.5454580000000  0.4593110000000 1.0
C      1  0.4953950000000  0.5462640000000  0.4533350000000 1.0
C      1  0.5047540000000  0.4567770000000  0.4515620000000 1.0
C      1  0.4918700000000  0.5500420000000  0.5399820000000 1.0
C      1  0.5079840000000  0.4500750000000  0.5415090000000 1.0
C      1  0.4664490000000  0.4443500000000  0.5709810000000 1.0
C      1  0.5324770000000  0.5555950000000  0.5706110000000 1.0
C      1  0.4564160000000  0.4784360000000  0.4361710000000 1.0
C      1  0.5428550000000  0.5245380000000  0.4328400000000 1.0
END
