TITL C-1154828-9214-350 0.00113537297916307 125000 -326.546056898729 0 0 60 (C1) n - 1
REM
REM in /home/nfs/bkarasulu/CARBON/AIRSS/Generating-Clusters/AIREBO/Higher-Symm/Only-C60
REM
REM
REM
REM
REM
REM ./C.cell (28575a23ae977d3b5fae324c64b13b57)
REM
REM compiler GCC version 9.2.1 20190827 (Red Hat 9.2.1-1)
REM options -cpp -mtune=generic -march=x86-64 -g -O0 -fpre-include=/usr/include/finclude/math-vector-fortran.h
REM seed 760039608 -403174734 719885044 89465811 1230633880 730853979 -854218415 1501035332 155785177 -1193309495 -1894325864 -1333401305 -1049461907 110274273 1606609856 511917473 1738901694 -363557407 293193543 -1236190904 -1579126847 -605199674 979763008 636522587 685642465 -621772877 -222383111 675618359 419200913 940942702 1855858576 1471119810 -610433403
REM
CELL 1.54180   50.00000   50.00000   50.00000   90.00000   90.00000   90.00000
LATT -1
SFAC C  
C      1  0.5519980000000  0.5336620000000  0.5067220000000 1.0
C      1  0.5462900000000  0.4895090000000  0.4790630000000 1.0
C      1  0.5499030000000  0.4846170000000  0.5185920000000 1.0
C      1  0.4364800000000  0.5231630000000  0.5129000000000 1.0
C      1  0.4255790000000  0.4929770000000  0.4752430000000 1.0
C      1  0.4371890000000  0.4849370000000  0.5246410000000 1.0
C      1  0.5120250000000  0.4935420000000  0.4468040000000 1.0
C      1  0.5085810000000  0.4548190000000  0.5310480000000 1.0
C      1  0.5076900000000  0.5536910000000  0.5294670000000 1.0
C      1  0.4815010000000  0.4934690000000  0.4554360000000 1.0
C      1  0.4797690000000  0.4580180000000  0.5230310000000 1.0
C      1  0.4785110000000  0.5433670000000  0.5273610000000 1.0
C      1  0.4356620000000  0.4978740000000  0.5545590000000 1.0
C      1  0.4552470000000  0.5338930000000  0.4744690000000 1.0
C      1  0.4395740000000  0.4648630000000  0.4754130000000 1.0
C      1  0.5458530000000  0.4968580000000  0.5487390000000 1.0
C      1  0.5478510000000  0.5507210000000  0.4776010000000 1.0
C      1  0.5455200000000  0.4584120000000  0.4689790000000 1.0
C      1  0.5430120000000  0.4579000000000  0.4386820000000 1.0
C      1  0.5417840000000  0.4690640000000  0.5629250000000 1.0
C      1  0.5400950000000  0.5740650000000  0.4979470000000 1.0
C      1  0.5084830000000  0.4662140000000  0.4052360000000 1.0
C      1  0.5082450000000  0.4371880000000  0.5773310000000 1.0
C      1  0.5080730000000  0.6033830000000  0.5196790000000 1.0
C      1  0.4689420000000  0.5212440000000  0.5029550000000 1.0
C      1  0.4691730000000  0.4789950000000  0.4820040000000 1.0
C      1  0.4693440000000  0.4892250000000  0.5144430000000 1.0
C      1  0.5209050000000  0.5397120000000  0.5049720000000 1.0
C      1  0.5123650000000  0.4911700000000  0.4807390000000 1.0
C      1  0.5190670000000  0.4792460000000  0.5118750000000 1.0
C      1  0.4362460000000  0.4567250000000  0.5074570000000 1.0
C      1  0.4357250000000  0.5262190000000  0.5410880000000 1.0
C      1  0.4366690000000  0.5127840000000  0.4591920000000 1.0
C      1  0.5499530000000  0.4562190000000  0.5019650000000 1.0
C      1  0.5514410000000  0.5289980000000  0.5384560000000 1.0
C      1  0.5493180000000  0.5189180000000  0.4656360000000 1.0
C      1  0.5264970000000  0.5432560000000  0.5513220000000 1.0
C      1  0.5296780000000  0.5178130000000  0.4424520000000 1.0
C      1  0.5266030000000  0.4386360000000  0.5116350000000 1.0
C      1  0.4605750000000  0.5413190000000  0.5496210000000 1.0
C      1  0.4637180000000  0.5113990000000  0.4429150000000 1.0
C      1  0.4608870000000  0.4401240000000  0.5124900000000 1.0
C      1  0.5194940000000  0.4408620000000  0.4811300000000 1.0
C      1  0.5233530000000  0.5161540000000  0.5632940000000 1.0
C      1  0.5269510000000  0.5482860000000  0.4507620000000 1.0
C      1  0.4617650000000  0.4397050000000  0.4818710000000 1.0
C      1  0.4647200000000  0.5125360000000  0.5646980000000 1.0
C      1  0.4702460000000  0.5424720000000  0.4475600000000 1.0
C      1  0.4941450000000  0.5560940000000  0.4493390000000 1.0
C      1  0.4885840000000  0.4316670000000  0.4698530000000 1.0
C      1  0.4980510000000  0.5069960000000  0.5675160000000 1.0
C      1  0.4835700000000  0.4978460000000  0.5415380000000 1.0
C      1  0.4956730000000  0.4630980000000  0.4772390000000 1.0
C      1  0.5079440000000  0.5483690000000  0.4774700000000 1.0
C      1  0.5209180000000  0.4707630000000  0.4291500000000 1.0
C      1  0.5189490000000  0.5788640000000  0.5141340000000 1.0
C      1  0.5192690000000  0.4542360000000  0.5589650000000 1.0
C      1  0.4199540000000  0.5011970000000  0.5014310000000 1.0
C      1  0.5635540000000  0.5062930000000  0.5007980000000 1.0
C      1  0.4995460000000  0.5192580000000  0.4897920000000 1.0
END
