TITL C-1154810-7815-609 0.00133615011188256 125000 -339.249584640939 0 0 60 (C1) n - 1
REM
REM in /home/nfs/bkarasulu/CARBON/AIRSS/Generating-Clusters/AIREBO/Higher-Symm/Only-C60
REM
REM
REM
REM
REM
REM ./C.cell (28575a23ae977d3b5fae324c64b13b57)
REM
REM compiler GCC version 9.2.1 20190827 (Red Hat 9.2.1-1)
REM options -cpp -mtune=generic -march=x86-64 -g -O0 -fpre-include=/usr/include/finclude/math-vector-fortran.h
REM seed -1478524102 -711927244 2140403714 -1294447899 -1654353494 306151721 -25926523 1815031572 -962327037 -413212061 1999513387 -854657765 1040081128 1579955162 -1094079104 1328081358 1655466697 -1474721530 1766626777 1696180908 760077520 -883561043 1807871032 -529253558 -11198556 1722224946 -776724412 1596034007 -1900311124 -2041784504 1069669711 1127972297 -748735735
REM
CELL 1.54180   50.00000   50.00000   50.00000   90.00000   90.00000   90.00000
LATT -1
SFAC C  
C      1  0.4563440000000  0.4606490000000  0.5349210000000 1.0
C      1  0.5054370000000  0.4734320000000  0.4794360000000 1.0
C      1  0.4883540000000  0.5682160000000  0.5308280000000 1.0
C      1  0.5003340000000  0.5735270000000  0.5060920000000 1.0
C      1  0.4743560000000  0.4800480000000  0.4689190000000 1.0
C      1  0.5044620000000  0.4126400000000  0.4842080000000 1.0
C      1  0.5080640000000  0.4699890000000  0.5599700000000 1.0
C      1  0.4907260000000  0.5504210000000  0.4353530000000 1.0
C      1  0.4680030000000  0.5425920000000  0.5316910000000 1.0
C      1  0.5262260000000  0.4966540000000  0.4838680000000 1.0
C      1  0.4432950000000  0.4848200000000  0.5270950000000 1.0
C      1  0.5048370000000  0.4247340000000  0.4593040000000 1.0
C      1  0.4686470000000  0.5490280000000  0.5633170000000 1.0
C      1  0.4259370000000  0.4789740000000  0.4818630000000 1.0
C      1  0.4503690000000  0.4391070000000  0.4865530000000 1.0
C      1  0.4575310000000  0.4375480000000  0.5135780000000 1.0
C      1  0.4892010000000  0.5245450000000  0.4235250000000 1.0
C      1  0.4887050000000  0.4437400000000  0.5193340000000 1.0
C      1  0.4843490000000  0.4569480000000  0.5504170000000 1.0
C      1  0.5105490000000  0.5011230000000  0.4360520000000 1.0
C      1  0.5345070000000  0.4420380000000  0.5067000000000 1.0
C      1  0.4609790000000  0.5118940000000  0.4293950000000 1.0
C      1  0.4862150000000  0.4946890000000  0.5353640000000 1.0
C      1  0.4582100000000  0.5256500000000  0.4945650000000 1.0
C      1  0.4438420000000  0.5265740000000  0.4470330000000 1.0
C      1  0.4812960000000  0.5023670000000  0.4920090000000 1.0
C      1  0.4561010000000  0.5388630000000  0.4699110000000 1.0
C      1  0.4216780000000  0.4838240000000  0.5089040000000 1.0
C      1  0.4902240000000  0.5051500000000  0.5646060000000 1.0
C      1  0.5571050000000  0.4824380000000  0.4831040000000 1.0
C      1  0.5413350000000  0.4540240000000  0.4810840000000 1.0
C      1  0.5270830000000  0.4747310000000  0.4347080000000 1.0
C      1  0.5242500000000  0.5165270000000  0.4592230000000 1.0
C      1  0.4818430000000  0.5519130000000  0.4621880000000 1.0
C      1  0.4490710000000  0.4644970000000  0.4744460000000 1.0
C      1  0.5216340000000  0.5577940000000  0.4991720000000 1.0
C      1  0.5217810000000  0.5486220000000  0.4687730000000 1.0
C      1  0.4855230000000  0.5332830000000  0.5776000000000 1.0
C      1  0.5188650000000  0.4858150000000  0.5318770000000 1.0
C      1  0.4604410000000  0.5106080000000  0.5249830000000 1.0
C      1  0.5636420000000  0.4722590000000  0.5380580000000 1.0
C      1  0.5569100000000  0.4997510000000  0.5429170000000 1.0
C      1  0.5250600000000  0.5472790000000  0.5503840000000 1.0
C      1  0.4789380000000  0.4909530000000  0.4413800000000 1.0
C      1  0.5573800000000  0.5176480000000  0.5208730000000 1.0
C      1  0.5173270000000  0.4528460000000  0.4583310000000 1.0
C      1  0.5399700000000  0.4594690000000  0.5273090000000 1.0
C      1  0.4944980000000  0.5319570000000  0.5150940000000 1.0
C      1  0.5294220000000  0.4977180000000  0.5619310000000 1.0
C      1  0.5537250000000  0.4675490000000  0.4524520000000 1.0
C      1  0.5332560000000  0.5385830000000  0.5219210000000 1.0
C      1  0.4888540000000  0.4736350000000  0.5087650000000 1.0
C      1  0.5105050000000  0.4278950000000  0.5072830000000 1.0
C      1  0.5077790000000  0.5684300000000  0.5512540000000 1.0
C      1  0.5173280000000  0.5252920000000  0.5694660000000 1.0
C      1  0.4960000000000  0.5316960000000  0.4830870000000 1.0
C      1  0.5268350000000  0.5688660000000  0.4493510000000 1.0
C      1  0.5622180000000  0.5109170000000  0.4938450000000 1.0
C      1  0.5197310000000  0.5096140000000  0.5105510000000 1.0
C      1  0.5529150000000  0.5276100000000  0.4737790000000 1.0
END
