TITL C-1154824-75-381 -0.00022224639773756 125000 -337.48487563388 0 0 60 (C1) n - 1
REM
REM in /home/nfs/bkarasulu/CARBON/AIRSS/Generating-Clusters/AIREBO/Higher-Symm/Only-C60
REM
REM
REM
REM
REM
REM ./C.cell (28575a23ae977d3b5fae324c64b13b57)
REM
REM compiler GCC version 9.2.1 20190827 (Red Hat 9.2.1-1)
REM options -cpp -mtune=generic -march=x86-64 -g -O0 -fpre-include=/usr/include/finclude/math-vector-fortran.h
REM seed -1075554403 -879060419 -1684712518 609014724 -12289652 1753794963 -1895629756 -1613034491 798839975 1487255294 -1313659506 1515895761 1759381552 -1915918286 -986715419 -759996391 -809175010 -1140799955 1471516398 178369074 655719026 -1901728939 -772794778 899050159 388052559 1918897415 -1405343979 -916560214 -1830402364 1693172422 411316610 -2120904561 -1486491364
REM
CELL 1.54180   50.00000   50.00000   50.00000   90.00000   90.00000   90.00000
LATT -1
SFAC C  
C      1  0.4630960000000  0.5166200000000  0.5531540000000 1.0
C      1  0.5389010000000  0.4804140000000  0.5572500000000 1.0
C      1  0.5405490000000  0.5088270000000  0.5628730000000 1.0
C      1  0.4603440000000  0.4859460000000  0.5530050000000 1.0
C      1  0.5281820000000  0.5371630000000  0.5116090000000 1.0
C      1  0.4696960000000  0.4631840000000  0.5009690000000 1.0
C      1  0.4764220000000  0.5352320000000  0.5090020000000 1.0
C      1  0.5282200000000  0.4591150000000  0.5134790000000 1.0
C      1  0.5190920000000  0.4746500000000  0.4873270000000 1.0
C      1  0.4857960000000  0.5163960000000  0.4829320000000 1.0
C      1  0.4908820000000  0.4846070000000  0.4876360000000 1.0
C      1  0.5155660000000  0.5325550000000  0.4801780000000 1.0
C      1  0.4299980000000  0.5289910000000  0.5153550000000 1.0
C      1  0.5723590000000  0.4743560000000  0.5168740000000 1.0
C      1  0.5665890000000  0.5294530000000  0.5235420000000 1.0
C      1  0.4241290000000  0.4715080000000  0.5212500000000 1.0
C      1  0.5844340000000  0.5202690000000  0.4991120000000 1.0
C      1  0.4111160000000  0.4853410000000  0.4963500000000 1.0
C      1  0.4096110000000  0.5130250000000  0.4957690000000 1.0
C      1  0.5891690000000  0.4929920000000  0.4966400000000 1.0
C      1  0.4626340000000  0.4850030000000  0.4682080000000 1.0
C      1  0.5400510000000  0.5154310000000  0.4654970000000 1.0
C      1  0.5416210000000  0.4835010000000  0.4634480000000 1.0
C      1  0.4571470000000  0.5185280000000  0.4667630000000 1.0
C      1  0.5152930000000  0.5614360000000  0.4686010000000 1.0
C      1  0.4813620000000  0.4195550000000  0.4762830000000 1.0
C      1  0.4896160000000  0.5677530000000  0.4575060000000 1.0
C      1  0.5079010000000  0.4120920000000  0.4711220000000 1.0
C      1  0.4936340000000  0.4265980000000  0.5210520000000 1.0
C      1  0.5135340000000  0.5650470000000  0.5083390000000 1.0
C      1  0.5207490000000  0.4305780000000  0.5136720000000 1.0
C      1  0.4856950000000  0.5629320000000  0.5048690000000 1.0
C      1  0.4885370000000  0.5096160000000  0.5220950000000 1.0
C      1  0.5134530000000  0.4855170000000  0.5250920000000 1.0
C      1  0.5180200000000  0.5181170000000  0.5313050000000 1.0
C      1  0.4804740000000  0.4769650000000  0.5271030000000 1.0
C      1  0.5277770000000  0.5817260000000  0.4874400000000 1.0
C      1  0.4760390000000  0.4342100000000  0.4999960000000 1.0
C      1  0.4750250000000  0.5756750000000  0.4812900000000 1.0
C      1  0.5275440000000  0.4147940000000  0.4909630000000 1.0
C      1  0.5533640000000  0.5287620000000  0.4920420000000 1.0
C      1  0.4419100000000  0.4733830000000  0.4925670000000 1.0
C      1  0.4343570000000  0.5282850000000  0.4832180000000 1.0
C      1  0.5656130000000  0.4748070000000  0.4848970000000 1.0
C      1  0.5295000000000  0.5298040000000  0.4388230000000 1.0
C      1  0.4421360000000  0.4722510000000  0.4452020000000 1.0
C      1  0.4610690000000  0.5331520000000  0.4399300000000 1.0
C      1  0.5585990000000  0.4771970000000  0.4386290000000 1.0
C      1  0.4837150000000  0.5496090000000  0.4364880000000 1.0
C      1  0.5126860000000  0.4767040000000  0.4469240000000 1.0
C      1  0.5072310000000  0.5379780000000  0.4254950000000 1.0
C      1  0.4882290000000  0.4801350000000  0.4463520000000 1.0
C      1  0.5132560000000  0.5224980000000  0.5623850000000 1.0
C      1  0.4897700000000  0.4693430000000  0.5589190000000 1.0
C      1  0.4858150000000  0.5263310000000  0.5679240000000 1.0
C      1  0.5150830000000  0.4675640000000  0.5669010000000 1.0
C      1  0.5607100000000  0.5239240000000  0.5496450000000 1.0
C      1  0.4329390000000  0.4729030000000  0.5463160000000 1.0
C      1  0.4540370000000  0.5289700000000  0.5295510000000 1.0
C      1  0.5497230000000  0.4706830000000  0.5328430000000 1.0
END
