TITL C-1154802-8274-215 0.0248705253996622 125000 -309.946316845063 0 0 60 (C1) n - 1
REM
REM in /home/nfs/bkarasulu/CARBON/AIRSS/Generating-Clusters/AIREBO/Higher-Symm/Only-C60
REM
REM
REM
REM
REM
REM ./C.cell (28575a23ae977d3b5fae324c64b13b57)
REM
REM compiler GCC version 9.2.1 20190827 (Red Hat 9.2.1-1)
REM options -cpp -mtune=generic -march=x86-64 -g -O0 -fpre-include=/usr/include/finclude/math-vector-fortran.h
REM seed 1789634789 -303264559 117591702 -1252459737 -175171281 -839913911 1546419334 17741220 -1328664150 -1897249884 -640487036 2147320410 393991478 1131343107 150958645 -1705550220 -22957972 -1766976598 741420219 -888121146 -1795255675 -713787504 189338548 -2078763398 1714501206 1619485564 1820396664 -2060466875 -1713415181 746424049 -597252382 -2093626756 514023376
REM
CELL 1.54180   50.00000   50.00000   50.00000   90.00000   90.00000   90.00000
LATT -1
SFAC C  
C      1  0.4938040000000  0.5816940000000  0.4849270000000 1.0
C      1  0.5698710000000  0.5225610000000  0.4753850000000 1.0
C      1  0.5434260000000  0.4386500000000  0.4763540000000 1.0
C      1  0.4574260000000  0.4344420000000  0.4802940000000 1.0
C      1  0.4323230000000  0.5208930000000  0.4717700000000 1.0
C      1  0.4516300000000  0.4731270000000  0.5410720000000 1.0
C      1  0.4542720000000  0.5378370000000  0.5412850000000 1.0
C      1  0.5196280000000  0.5534840000000  0.5448920000000 1.0
C      1  0.5626900000000  0.4966720000000  0.5451440000000 1.0
C      1  0.5140950000000  0.4423330000000  0.5447630000000 1.0
C      1  0.5318590000000  0.4269430000000  0.5223500000000 1.0
C      1  0.4407860000000  0.4634290000000  0.5151280000000 1.0
C      1  0.4308820000000  0.5357420000000  0.5186760000000 1.0
C      1  0.5229530000000  0.5695130000000  0.5220830000000 1.0
C      1  0.5829440000000  0.4993990000000  0.5179580000000 1.0
C      1  0.4777730000000  0.5329040000000  0.4826500000000 1.0
C      1  0.5068180000000  0.5263480000000  0.4819190000000 1.0
C      1  0.5336680000000  0.4977140000000  0.4894110000000 1.0
C      1  0.5006670000000  0.4632730000000  0.4857750000000 1.0
C      1  0.4800480000000  0.4872320000000  0.4879850000000 1.0
C      1  0.5869220000000  0.5423130000000  0.4673750000000 1.0
C      1  0.5655920000000  0.4309950000000  0.4623110000000 1.0
C      1  0.4465020000000  0.4093240000000  0.4800560000000 1.0
C      1  0.4109310000000  0.5118520000000  0.4573370000000 1.0
C      1  0.4865720000000  0.6080550000000  0.4873790000000 1.0
C      1  0.4802010000000  0.4875180000000  0.5442180000000 1.0
C      1  0.4820390000000  0.5187790000000  0.5395000000000 1.0
C      1  0.5121410000000  0.5253560000000  0.5382890000000 1.0
C      1  0.5286090000000  0.4975050000000  0.5417490000000 1.0
C      1  0.5079250000000  0.4752410000000  0.5424670000000 1.0
C      1  0.5760110000000  0.4984720000000  0.4889730000000 1.0
C      1  0.5285470000000  0.4235440000000  0.4947190000000 1.0
C      1  0.4435450000000  0.4574810000000  0.4877220000000 1.0
C      1  0.4325660000000  0.5412780000000  0.4911520000000 1.0
C      1  0.5185020000000  0.5718750000000  0.4942410000000 1.0
C      1  0.5378130000000  0.5241610000000  0.4681070000000 1.0
C      1  0.5312550000000  0.4696420000000  0.4720650000000 1.0
C      1  0.4859780000000  0.4383910000000  0.4711760000000 1.0
C      1  0.4626050000000  0.5070540000000  0.4665610000000 1.0
C      1  0.4748170000000  0.5625370000000  0.4709060000000 1.0
C      1  0.4431700000000  0.4793650000000  0.4700510000000 1.0
C      1  0.4454620000000  0.5648890000000  0.4828480000000 1.0
C      1  0.5351960000000  0.5568940000000  0.4769420000000 1.0
C      1  0.5643640000000  0.4750330000000  0.4776990000000 1.0
C      1  0.5035190000000  0.4157220000000  0.4846340000000 1.0
C      1  0.5101650000000  0.4299030000000  0.5687840000000 1.0
C      1  0.4370260000000  0.4688330000000  0.5636430000000 1.0
C      1  0.4482630000000  0.5500130000000  0.5650030000000 1.0
C      1  0.5220780000000  0.5619630000000  0.5707480000000 1.0
C      1  0.5745000000000  0.4957810000000  0.5696750000000 1.0
C      1  0.4764570000000  0.5639360000000  0.4428450000000 1.0
C      1  0.5340190000000  0.5144690000000  0.4404410000000 1.0
C      1  0.5262880000000  0.4770610000000  0.4435840000000 1.0
C      1  0.4881020000000  0.4397150000000  0.4430330000000 1.0
C      1  0.4722280000000  0.5080600000000  0.4391780000000 1.0
C      1  0.5063700000000  0.4565990000000  0.5148280000000 1.0
C      1  0.4695380000000  0.4911830000000  0.5135570000000 1.0
C      1  0.4698910000000  0.5326960000000  0.5115040000000 1.0
C      1  0.5197260000000  0.5203280000000  0.5091570000000 1.0
C      1  0.5470050000000  0.4919980000000  0.5157200000000 1.0
END
