TITL C-1154828-9214-129 0.00529915455472658 125000 -328.80706036723 0 0 60 (C1) n - 1
REM
REM in /home/nfs/bkarasulu/CARBON/AIRSS/Generating-Clusters/AIREBO/Higher-Symm/Only-C60
REM
REM
REM
REM
REM
REM ./C.cell (28575a23ae977d3b5fae324c64b13b57)
REM
REM compiler GCC version 9.2.1 20190827 (Red Hat 9.2.1-1)
REM options -cpp -mtune=generic -march=x86-64 -g -O0 -fpre-include=/usr/include/finclude/math-vector-fortran.h
REM seed 60000847 -756942984 1273871002 1991652874 -623825516 -998195980 1726432452 2130071912 2025521769 -1691521843 689636658 -1674310870 273261006 1696084230 -274838936 -462347866 -2144646629 -2031774211 -2039503392 543872606 -1069683437 -891120664 417323102 1575701626 -1476335914 -790695202 -251766552 -318841473 1962641144 -1575891391 -421860429 1210561518 -1537643965
REM
CELL 1.54180   50.00000   50.00000   50.00000   90.00000   90.00000   90.00000
LATT -1
SFAC C  
C      1  0.5311770000000  0.5534120000000  0.4850210000000 1.0
C      1  0.5339170000000  0.4473850000000  0.5170010000000 1.0
C      1  0.4733990000000  0.5474680000000  0.4796470000000 1.0
C      1  0.4735890000000  0.4531300000000  0.5183420000000 1.0
C      1  0.5333050000000  0.4491560000000  0.4826280000000 1.0
C      1  0.5346030000000  0.5503980000000  0.5190480000000 1.0
C      1  0.4718610000000  0.4623580000000  0.4856310000000 1.0
C      1  0.4743410000000  0.5393870000000  0.5127020000000 1.0
C      1  0.5468880000000  0.5413060000000  0.4568560000000 1.0
C      1  0.5487800000000  0.4589000000000  0.5460260000000 1.0
C      1  0.4617600000000  0.5329740000000  0.4512340000000 1.0
C      1  0.4610720000000  0.4598360000000  0.5488020000000 1.0
C      1  0.5493660000000  0.4599090000000  0.4541510000000 1.0
C      1  0.5504980000000  0.5397900000000  0.5476440000000 1.0
C      1  0.4573110000000  0.4677530000000  0.4568040000000 1.0
C      1  0.4592510000000  0.5357580000000  0.5406720000000 1.0
C      1  0.4873920000000  0.5694040000000  0.5094160000000 1.0
C      1  0.4838710000000  0.4319420000000  0.4864890000000 1.0
C      1  0.5165990000000  0.5754590000000  0.5148290000000 1.0
C      1  0.5121420000000  0.4248570000000  0.4760840000000 1.0
C      1  0.4872130000000  0.4239980000000  0.5177580000000 1.0
C      1  0.4839520000000  0.5777410000000  0.4782290000000 1.0
C      1  0.5162350000000  0.4233140000000  0.5077720000000 1.0
C      1  0.5142760000000  0.5816540000000  0.4828810000000 1.0
C      1  0.5149920000000  0.4719810000000  0.5309380000000 1.0
C      1  0.5113210000000  0.5300970000000  0.4701980000000 1.0
C      1  0.4868140000000  0.4841930000000  0.5224550000000 1.0
C      1  0.4845320000000  0.5153080000000  0.4788730000000 1.0
C      1  0.5165350000000  0.5252980000000  0.5331800000000 1.0
C      1  0.5164420000000  0.4756090000000  0.4695000000000 1.0
C      1  0.4931630000000  0.5146330000000  0.5178760000000 1.0
C      1  0.4920370000000  0.4859500000000  0.4829490000000 1.0
C      1  0.4590200000000  0.4855600000000  0.4278900000000 1.0
C      1  0.4587050000000  0.5134970000000  0.5663690000000 1.0
C      1  0.5369840000000  0.4858450000000  0.4367760000000 1.0
C      1  0.5361820000000  0.5153430000000  0.5665390000000 1.0
C      1  0.4618580000000  0.5123330000000  0.4250200000000 1.0
C      1  0.4624730000000  0.4873500000000  0.5688790000000 1.0
C      1  0.5384270000000  0.5149160000000  0.4368930000000 1.0
C      1  0.5381180000000  0.4858310000000  0.5638730000000 1.0
C      1  0.4536350000000  0.4853760000000  0.5299300000000 1.0
C      1  0.4506660000000  0.5153340000000  0.4758230000000 1.0
C      1  0.5461880000000  0.4841560000000  0.5247980000000 1.0
C      1  0.5410570000000  0.5158090000000  0.4767450000000 1.0
C      1  0.4406860000000  0.5135290000000  0.5279800000000 1.0
C      1  0.4405930000000  0.4855150000000  0.4768240000000 1.0
C      1  0.5463930000000  0.5136380000000  0.5281430000000 1.0
C      1  0.5478490000000  0.4854390000000  0.4751430000000 1.0
C      1  0.4858350000000  0.4661060000000  0.5708860000000 1.0
C      1  0.4865870000000  0.5316750000000  0.4286410000000 1.0
C      1  0.5111010000000  0.4703100000000  0.5622120000000 1.0
C      1  0.5115090000000  0.5297530000000  0.4392900000000 1.0
C      1  0.4815680000000  0.5350560000000  0.5665110000000 1.0
C      1  0.4828220000000  0.4663370000000  0.4340290000000 1.0
C      1  0.5076050000000  0.5279560000000  0.5630610000000 1.0
C      1  0.5084240000000  0.4731770000000  0.4391490000000 1.0
C      1  0.4313200000000  0.4820780000000  0.5056300000000 1.0
C      1  0.4291860000000  0.5155770000000  0.5001290000000 1.0
C      1  0.5658990000000  0.4794910000000  0.5002450000000 1.0
C      1  0.5606770000000  0.5126570000000  0.5009590000000 1.0
END
