TITL C-1154801-8518-402 -0.0338052638969751 125000 -350.584697303243 0 0 60 (C1) n - 1
REM
REM in /home/nfs/bkarasulu/CARBON/AIRSS/Generating-Clusters/AIREBO/Higher-Symm/Only-C60
REM
REM
REM
REM
REM
REM ./C.cell (28575a23ae977d3b5fae324c64b13b57)
REM
REM compiler GCC version 9.2.1 20190827 (Red Hat 9.2.1-1)
REM options -cpp -mtune=generic -march=x86-64 -g -O0 -fpre-include=/usr/include/finclude/math-vector-fortran.h
REM seed 715428981 1589147933 901830809 143968319 -1933397034 -1386347551 2140559408 1550251 1300330444 1322452974 -1814759421 14531478 1033761474 1325589822 -971677026 394157325 -2139340717 -1150018274 -578091697 509039373 2140957613 -703849368 -1477362251 -947497647 393650405 -437729057 -2027987027 1638134166 1683026117 2017084986 -1529797199 831669905 539246560
REM
CELL 1.54180   50.00000   50.00000   50.00000   90.00000   90.00000   90.00000
LATT -1
SFAC C  
C      1  0.6088750000000  0.5508460000000  0.5161950000000 1.0
C      1  0.5901130000000  0.3865040000000  0.4714110000000 1.0
C      1  0.5333210000000  0.5006040000000  0.4301760000000 1.0
C      1  0.5158310000000  0.4493870000000  0.3915800000000 1.0
C      1  0.4672990000000  0.6140740000000  0.4099910000000 1.0
C      1  0.4298480000000  0.4998650000000  0.4666150000000 1.0
C      1  0.3906660000000  0.5509970000000  0.4830220000000 1.0
C      1  0.4088410000000  0.3877840000000  0.5305780000000 1.0
C      1  0.4671400000000  0.5003360000000  0.5687550000000 1.0
C      1  0.4881620000000  0.4417440000000  0.6091020000000 1.0
C      1  0.5287770000000  0.6144610000000  0.5900030000000 1.0
C      1  0.5696920000000  0.5001110000000  0.5337940000000 1.0
C      1  0.4216420000000  0.5477820000000  0.4840840000000 1.0
C      1  0.4305720000000  0.4014140000000  0.5251990000000 1.0
C      1  0.4699650000000  0.5217010000000  0.5530780000000 1.0
C      1  0.4848720000000  0.4520380000000  0.5799080000000 1.0
C      1  0.5236010000000  0.6005190000000  0.5684210000000 1.0
C      1  0.5538160000000  0.4789270000000  0.5307260000000 1.0
C      1  0.5778900000000  0.5476900000000  0.5152630000000 1.0
C      1  0.5685540000000  0.4004400000000  0.4766990000000 1.0
C      1  0.5301440000000  0.5218940000000  0.4458870000000 1.0
C      1  0.5150400000000  0.4528600000000  0.4225360000000 1.0
C      1  0.4759180000000  0.6001490000000  0.4304550000000 1.0
C      1  0.4457590000000  0.4787850000000  0.4701650000000 1.0
C      1  0.4714320000000  0.4678930000000  0.6139230000000 1.0
C      1  0.4593490000000  0.4763860000000  0.6361150000000 1.0
C      1  0.5864870000000  0.5216450000000  0.5310560000000 1.0
C      1  0.6175690000000  0.5261850000000  0.5334280000000 1.0
C      1  0.6386560000000  0.5168040000000  0.5461130000000 1.0
C      1  0.5306350000000  0.4789030000000  0.4135890000000 1.0
C      1  0.5328700000000  0.4740620000000  0.3825440000000 1.0
C      1  0.5453870000000  0.4833030000000  0.3612960000000 1.0
C      1  0.4130150000000  0.5214270000000  0.4688490000000 1.0
C      1  0.3819510000000  0.5259680000000  0.4663290000000 1.0
C      1  0.3608650000000  0.5163450000000  0.4538270000000 1.0
C      1  0.4702230000000  0.4788130000000  0.5849880000000 1.0
C      1  0.4728340000000  0.5445200000000  0.5395230000000 1.0
C      1  0.4892890000000  0.4413400000000  0.5550910000000 1.0
C      1  0.5162490000000  0.5878590000000  0.5461700000000 1.0
C      1  0.5400380000000  0.4562610000000  0.5277180000000 1.0
C      1  0.5538460000000  0.5591860000000  0.5104960000000 1.0
C      1  0.5463440000000  0.4131010000000  0.4841720000000 1.0
C      1  0.5269920000000  0.5446460000000  0.4594890000000 1.0
C      1  0.5104430000000  0.4415930000000  0.4467210000000 1.0
C      1  0.4833180000000  0.5876180000000  0.4527630000000 1.0
C      1  0.4595770000000  0.4562210000000  0.4736760000000 1.0
C      1  0.4457500000000  0.5592250000000  0.4886570000000 1.0
C      1  0.4529430000000  0.4137410000000  0.5176480000000 1.0
C      1  0.4903550000000  0.5722780000000  0.4746290000000 1.0
C      1  0.4785060000000  0.4387400000000  0.4839500000000 1.0
C      1  0.4719390000000  0.5654350000000  0.4950050000000 1.0
C      1  0.4749000000000  0.4288850000000  0.5104590000000 1.0
C      1  0.4828520000000  0.5622900000000  0.5207180000000 1.0
C      1  0.4954240000000  0.4355490000000  0.5287600000000 1.0
C      1  0.5092710000000  0.5723940000000  0.5243750000000 1.0
C      1  0.5210830000000  0.4386460000000  0.5177150000000 1.0
C      1  0.5277070000000  0.5654880000000  0.5040320000000 1.0
C      1  0.5245890000000  0.4285690000000  0.4912700000000 1.0
C      1  0.5168190000000  0.5623010000000  0.4783180000000 1.0
C      1  0.5041540000000  0.4354640000000  0.4729450000000 1.0
END
