TITL C-1154830-9999-190 -9.76146174008721e-05 125000 -337.22597608321 0 0 60 (C1) n - 1
REM
REM in /home/nfs/bkarasulu/CARBON/AIRSS/Generating-Clusters/AIREBO/Higher-Symm/Only-C60
REM
REM
REM
REM
REM
REM ./C.cell (28575a23ae977d3b5fae324c64b13b57)
REM
REM compiler GCC version 9.2.1 20190827 (Red Hat 9.2.1-1)
REM options -cpp -mtune=generic -march=x86-64 -g -O0 -fpre-include=/usr/include/finclude/math-vector-fortran.h
REM seed -450030037 1403562527 2020131308 447743739 827737953 -1777311336 1385769620 1259030533 -589784791 1369330453 712724342 1866899799 -1565481152 1670577912 1839407550 -53732301 -1314698974 1784659071 -445588181 1231873529 1509065107 -1685290796 -1890541034 -1034540474 1642716850 943636765 -1476122249 721343007 1750172342 -897681894 341462198 -160034642 -1695136483
REM
CELL 1.54180   50.00000   50.00000   50.00000   90.00000   90.00000   90.00000
LATT -1
SFAC C  
C      1  0.5005830000000  0.4177320000000  0.4685570000000 1.0
C      1  0.4365020000000  0.4551820000000  0.4638310000000 1.0
C      1  0.4409150000000  0.5273830000000  0.4694970000000 1.0
C      1  0.4766290000000  0.5677260000000  0.4782120000000 1.0
C      1  0.5325950000000  0.5745360000000  0.4717180000000 1.0
C      1  0.5697380000000  0.4888390000000  0.4738100000000 1.0
C      1  0.5393490000000  0.4450730000000  0.4784530000000 1.0
C      1  0.4208330000000  0.5178970000000  0.4922710000000 1.0
C      1  0.4514010000000  0.5534030000000  0.4865650000000 1.0
C      1  0.5108410000000  0.5700020000000  0.4920110000000 1.0
C      1  0.5810260000000  0.5108310000000  0.4877850000000 1.0
C      1  0.5558710000000  0.4691080000000  0.4946610000000 1.0
C      1  0.5183160000000  0.4261170000000  0.4889800000000 1.0
C      1  0.4373050000000  0.4450600000000  0.4891010000000 1.0
C      1  0.5337810000000  0.5177310000000  0.5415610000000 1.0
C      1  0.5243790000000  0.4879610000000  0.5551380000000 1.0
C      1  0.5014820000000  0.4695220000000  0.5485590000000 1.0
C      1  0.4745800000000  0.4759000000000  0.5476440000000 1.0
C      1  0.4632530000000  0.5015210000000  0.5495320000000 1.0
C      1  0.4763820000000  0.5260030000000  0.5492440000000 1.0
C      1  0.5053870000000  0.5310050000000  0.5547410000000 1.0
C      1  0.4922160000000  0.5432010000000  0.4508860000000 1.0
C      1  0.5081110000000  0.5089380000000  0.4389100000000 1.0
C      1  0.5250030000000  0.4832350000000  0.4411330000000 1.0
C      1  0.5092570000000  0.4559510000000  0.4330540000000 1.0
C      1  0.4753710000000  0.4581350000000  0.4366100000000 1.0
C      1  0.4570140000000  0.4993360000000  0.4584890000000 1.0
C      1  0.4754240000000  0.5193430000000  0.4389420000000 1.0
C      1  0.4734200000000  0.5239100000000  0.5020360000000 1.0
C      1  0.4963400000000  0.5408220000000  0.4848370000000 1.0
C      1  0.5195730000000  0.5174160000000  0.4903740000000 1.0
C      1  0.5345840000000  0.4954560000000  0.4913610000000 1.0
C      1  0.5238540000000  0.4728250000000  0.4714260000000 1.0
C      1  0.4944590000000  0.4740590000000  0.4851200000000 1.0
C      1  0.4710490000000  0.4967520000000  0.4861720000000 1.0
C      1  0.4484030000000  0.5528800000000  0.5136470000000 1.0
C      1  0.5130400000000  0.5727420000000  0.5212010000000 1.0
C      1  0.5769710000000  0.5215310000000  0.5129410000000 1.0
C      1  0.5607940000000  0.4643110000000  0.5244660000000 1.0
C      1  0.5128320000000  0.4283980000000  0.5160950000000 1.0
C      1  0.4421550000000  0.4498000000000  0.5152250000000 1.0
C      1  0.4241890000000  0.5138410000000  0.5187270000000 1.0
C      1  0.4615860000000  0.5461050000000  0.5364710000000 1.0
C      1  0.5142500000000  0.5588690000000  0.5418830000000 1.0
C      1  0.5571280000000  0.5252910000000  0.5314640000000 1.0
C      1  0.5509750000000  0.4736190000000  0.5452590000000 1.0
C      1  0.5089280000000  0.4452260000000  0.5368620000000 1.0
C      1  0.4572590000000  0.4564270000000  0.5366440000000 1.0
C      1  0.4362190000000  0.5033340000000  0.5407440000000 1.0
C      1  0.4451450000000  0.5293700000000  0.4358160000000 1.0
C      1  0.4785720000000  0.5739310000000  0.4472380000000 1.0
C      1  0.5385240000000  0.5585750000000  0.4496380000000 1.0
C      1  0.5569460000000  0.4871000000000  0.4495580000000 1.0
C      1  0.5381170000000  0.4457630000000  0.4457280000000 1.0
C      1  0.4903230000000  0.4319800000000  0.4469640000000 1.0
C      1  0.4539380000000  0.4708310000000  0.4482070000000 1.0
C      1  0.5217850000000  0.5400810000000  0.4394420000000 1.0
C      1  0.5184210000000  0.5112480000000  0.5772110000000 1.0
C      1  0.4990500000000  0.5041220000000  0.4693420000000 1.0
C      1  0.5203010000000  0.5123800000000  0.6028530000000 1.0
END
