TITL C-1154810-7815-426 -0.0222337745900521 125000 -342.667652546464 0 0 60 (C1) n - 1
REM
REM in /home/nfs/bkarasulu/CARBON/AIRSS/Generating-Clusters/AIREBO/Higher-Symm/Only-C60
REM
REM
REM
REM
REM
REM ./C.cell (28575a23ae977d3b5fae324c64b13b57)
REM
REM compiler GCC version 9.2.1 20190827 (Red Hat 9.2.1-1)
REM options -cpp -mtune=generic -march=x86-64 -g -O0 -fpre-include=/usr/include/finclude/math-vector-fortran.h
REM seed 1810680936 269510051 -1138443927 -285722228 -1738559967 1304989388 1212377768 338461442 604702226 662978412 1666642250 -748344180 1216951339 -866360314 -949134776 1199624147 -52120842 -1081513020 553799628 1092758149 -1914136004 -1687754289 -1606412923 -1980473040 817261057 914948211 582347560 -1114186062 -240572412 -1845985920 -208612795 865009298 1753523331
REM
CELL 1.54180   50.00000   50.00000   50.00000   90.00000   90.00000   90.00000
LATT -1
SFAC C  
C      1  0.5670800000000  0.4680070000000  0.4558880000000 1.0
C      1  0.5481120000000  0.4723540000000  0.5644120000000 1.0
C      1  0.4350420000000  0.4706530000000  0.5504980000000 1.0
C      1  0.4508620000000  0.4747180000000  0.4354120000000 1.0
C      1  0.5719820000000  0.4687600000000  0.5445830000000 1.0
C      1  0.5458710000000  0.4690920000000  0.4302750000000 1.0
C      1  0.4300150000000  0.4737790000000  0.4575740000000 1.0
C      1  0.4520660000000  0.4701990000000  0.5742610000000 1.0
C      1  0.5602860000000  0.5548060000000  0.5290840000000 1.0
C      1  0.4707040000000  0.5446900000000  0.5598100000000 1.0
C      1  0.4345440000000  0.5520390000000  0.4642730000000 1.0
C      1  0.5433790000000  0.5564640000000  0.4404610000000 1.0
C      1  0.5689150000000  0.5430530000000  0.4764250000000 1.0
C      1  0.4747650000000  0.5539170000000  0.4387170000000 1.0
C      1  0.4304760000000  0.5387330000000  0.5351280000000 1.0
C      1  0.5224440000000  0.5708230000000  0.5494940000000 1.0
C      1  0.4862700000000  0.5058330000000  0.5337980000000 1.0
C      1  0.4625140000000  0.5106100000000  0.4831090000000 1.0
C      1  0.5164160000000  0.5089490000000  0.4631580000000 1.0
C      1  0.5368100000000  0.5044240000000  0.5151680000000 1.0
C      1  0.4833120000000  0.5085880000000  0.4609320000000 1.0
C      1  0.4610840000000  0.5016620000000  0.5159130000000 1.0
C      1  0.5145800000000  0.4923910000000  0.5323040000000 1.0
C      1  0.5383300000000  0.4976860000000  0.4839240000000 1.0
C      1  0.4817620000000  0.4771070000000  0.5487860000000 1.0
C      1  0.4493150000000  0.4822460000000  0.4826380000000 1.0
C      1  0.5224880000000  0.4803920000000  0.4508140000000 1.0
C      1  0.5492330000000  0.4748130000000  0.5212830000000 1.0
C      1  0.4792840000000  0.4812030000000  0.4487190000000 1.0
C      1  0.4485950000000  0.4752700000000  0.5219510000000 1.0
C      1  0.5207580000000  0.4687460000000  0.5486140000000 1.0
C      1  0.5490330000000  0.4713140000000  0.4791800000000 1.0
C      1  0.4409440000000  0.5266380000000  0.5124880000000 1.0
C      1  0.4928280000000  0.5375700000000  0.4492940000000 1.0
C      1  0.5401540000000  0.5313950000000  0.4860460000000 1.0
C      1  0.5133390000000  0.5467280000000  0.5366800000000 1.0
C      1  0.4419370000000  0.5358290000000  0.4849400000000 1.0
C      1  0.4908080000000  0.5336200000000  0.5441090000000 1.0
C      1  0.5367420000000  0.5359640000000  0.5180090000000 1.0
C      1  0.5231790000000  0.5409630000000  0.4579690000000 1.0
C      1  0.5802310000000  0.4694730000000  0.5113570000000 1.0
C      1  0.4856900000000  0.4734980000000  0.5783400000000 1.0
C      1  0.4212310000000  0.4692680000000  0.4904800000000 1.0
C      1  0.5130800000000  0.4730830000000  0.4208160000000 1.0
C      1  0.5881320000000  0.4672530000000  0.4826340000000 1.0
C      1  0.4802690000000  0.4691570000000  0.4184940000000 1.0
C      1  0.4158860000000  0.4712930000000  0.5221010000000 1.0
C      1  0.5184490000000  0.4692410000000  0.5813570000000 1.0
C      1  0.4688120000000  0.4601640000000  0.4879190000000 1.0
C      1  0.5129160000000  0.4579420000000  0.4686560000000 1.0
C      1  0.5320100000000  0.4505070000000  0.5148930000000 1.0
C      1  0.4856290000000  0.4531990000000  0.5337190000000 1.0
C      1  0.4662710000000  0.4516440000000  0.5140700000000 1.0
C      1  0.5124510000000  0.4420200000000  0.5342500000000 1.0
C      1  0.5323160000000  0.4486050000000  0.4873310000000 1.0
C      1  0.4863370000000  0.4595890000000  0.4680530000000 1.0
C      1  0.5683900000000  0.5567950000000  0.4523550000000 1.0
C      1  0.5499550000000  0.5746770000000  0.5457870000000 1.0
C      1  0.4447000000000  0.5514750000000  0.5548000000000 1.0
C      1  0.4509860000000  0.5648740000000  0.4464670000000 1.0
END
