TITL C-1154824-75-181 -0.00209060081627666 125000 -322.538637874117 0 0 60 (C1) n - 1
REM
REM in /home/nfs/bkarasulu/CARBON/AIRSS/Generating-Clusters/AIREBO/Higher-Symm/Only-C60
REM
REM
REM
REM
REM
REM ./C.cell (28575a23ae977d3b5fae324c64b13b57)
REM
REM compiler GCC version 9.2.1 20190827 (Red Hat 9.2.1-1)
REM options -cpp -mtune=generic -march=x86-64 -g -O0 -fpre-include=/usr/include/finclude/math-vector-fortran.h
REM seed -772770785 -1439044412 -929142496 1332153479 963056482 -379167916 -74394804 -1877557912 984394902 1613784201 -1293691893 1456679051 -1848789486 286812470 -1233035971 -750521504 259566 601675452 213398325 -208092036 1897591913 -1099656211 -485569590 -280668435 475043427 325144585 338744553 1929794350 -1339471804 -2008533165 -1523446516 -1535959216 755129791
REM
CELL 1.54180   50.00000   50.00000   50.00000   90.00000   90.00000   90.00000
LATT -1
SFAC C  
C      1  0.4779800000000  0.5150000000000  0.5417580000000 1.0
C      1  0.4732670000000  0.4796200000000  0.4604050000000 1.0
C      1  0.5236100000000  0.5121580000000  0.5455820000000 1.0
C      1  0.5345320000000  0.4857370000000  0.4593070000000 1.0
C      1  0.4725840000000  0.5078390000000  0.4581090000000 1.0
C      1  0.4782540000000  0.4870290000000  0.5464990000000 1.0
C      1  0.5298510000000  0.5136980000000  0.4579780000000 1.0
C      1  0.5231550000000  0.4839560000000  0.5430290000000 1.0
C      1  0.5454920000000  0.5361870000000  0.5223900000000 1.0
C      1  0.5550820000000  0.4549400000000  0.4727820000000 1.0
C      1  0.4527580000000  0.5455200000000  0.5236890000000 1.0
C      1  0.4461370000000  0.4560560000000  0.4756880000000 1.0
C      1  0.5451640000000  0.5475420000000  0.4725210000000 1.0
C      1  0.5456890000000  0.4579030000000  0.5236280000000 1.0
C      1  0.4511340000000  0.5488100000000  0.4737930000000 1.0
C      1  0.4478490000000  0.4535840000000  0.5231480000000 1.0
C      1  0.5578930000000  0.5187800000000  0.4858640000000 1.0
C      1  0.5651190000000  0.4780150000000  0.5186760000000 1.0
C      1  0.4342800000000  0.5216040000000  0.4861560000000 1.0
C      1  0.4397940000000  0.4792760000000  0.5161230000000 1.0
C      1  0.5633320000000  0.5107420000000  0.5173680000000 1.0
C      1  0.5636810000000  0.4856100000000  0.4864280000000 1.0
C      1  0.4476520000000  0.5127020000000  0.5161230000000 1.0
C      1  0.4428420000000  0.4887080000000  0.4846030000000 1.0
C      1  0.4804510000000  0.5201290000000  0.5107890000000 1.0
C      1  0.4711990000000  0.4714240000000  0.4927710000000 1.0
C      1  0.5128610000000  0.5279590000000  0.5174570000000 1.0
C      1  0.5321200000000  0.4732870000000  0.4893060000000 1.0
C      1  0.4670080000000  0.5219470000000  0.4824900000000 1.0
C      1  0.4855890000000  0.4723010000000  0.5184530000000 1.0
C      1  0.5248080000000  0.5251960000000  0.4872300000000 1.0
C      1  0.5164260000000  0.4730090000000  0.5151710000000 1.0
C      1  0.5281380000000  0.5679760000000  0.4631960000000 1.0
C      1  0.5238420000000  0.4365120000000  0.5290970000000 1.0
C      1  0.4694750000000  0.5682170000000  0.4653140000000 1.0
C      1  0.4713530000000  0.4364070000000  0.5274320000000 1.0
C      1  0.5274490000000  0.5635800000000  0.5266910000000 1.0
C      1  0.5298620000000  0.4373850000000  0.4671960000000 1.0
C      1  0.4750250000000  0.5622460000000  0.5256290000000 1.0
C      1  0.4709970000000  0.4387020000000  0.4669910000000 1.0
C      1  0.5233580000000  0.4851850000000  0.4309390000000 1.0
C      1  0.5250630000000  0.5185260000000  0.5760730000000 1.0
C      1  0.4756750000000  0.4833630000000  0.4269450000000 1.0
C      1  0.4754060000000  0.5161080000000  0.5735850000000 1.0
C      1  0.5255270000000  0.4845050000000  0.5743450000000 1.0
C      1  0.5220080000000  0.5202240000000  0.4301870000000 1.0
C      1  0.4761130000000  0.4824860000000  0.5777120000000 1.0
C      1  0.4767100000000  0.5172260000000  0.4306770000000 1.0
C      1  0.4998290000000  0.5338990000000  0.5692690000000 1.0
C      1  0.4981070000000  0.5356710000000  0.4299270000000 1.0
C      1  0.5009150000000  0.4680420000000  0.4315390000000 1.0
C      1  0.5012340000000  0.4659570000000  0.5710930000000 1.0
C      1  0.4983650000000  0.5548600000000  0.4533120000000 1.0
C      1  0.4971440000000  0.4520500000000  0.5432190000000 1.0
C      1  0.5007570000000  0.4511190000000  0.4561790000000 1.0
C      1  0.5011170000000  0.5494260000000  0.5428980000000 1.0
C      1  0.4986720000000  0.4276330000000  0.5121390000000 1.0
C      1  0.5001350000000  0.4294260000000  0.4822330000000 1.0
C      1  0.4993510000000  0.5747550000000  0.4804300000000 1.0
C      1  0.5007780000000  0.5722470000000  0.5104420000000 1.0
END
