TITL C-1154802-8274-480 7.84754097734941e-05 125000 -345.544503012786 0 0 60 (C1) n - 1
REM
REM in /home/nfs/bkarasulu/CARBON/AIRSS/Generating-Clusters/AIREBO/Higher-Symm/Only-C60
REM
REM
REM
REM
REM
REM ./C.cell (28575a23ae977d3b5fae324c64b13b57)
REM
REM compiler GCC version 9.2.1 20190827 (Red Hat 9.2.1-1)
REM options -cpp -mtune=generic -march=x86-64 -g -O0 -fpre-include=/usr/include/finclude/math-vector-fortran.h
REM seed 752725088 -380293472 -1992786690 768026737 1439349320 1314190339 -168397739 1722350288 1411002020 -1250693069 -1258303668 -811183932 -1055110228 -227010270 -1956449383 1939660150 7827418 -1944636614 -2063994451 -1494559662 1872323217 -1215881973 1118300021 530787750 -1948506035 -1690563699 -1056565323 153513392 -466419046 -949159525 434377679 -1233105248 1069788138
REM
CELL 1.54180   50.00000   50.00000   50.00000   90.00000   90.00000   90.00000
LATT -1
SFAC C  
C      1  0.4886870000000  0.5628340000000  0.5172040000000 1.0
C      1  0.4859950000000  0.5058250000000  0.5674790000000 1.0
C      1  0.4961960000000  0.4359550000000  0.5280870000000 1.0
C      1  0.4840290000000  0.4833660000000  0.4525110000000 1.0
C      1  0.4885190000000  0.5230920000000  0.4518940000000 1.0
C      1  0.4913810000000  0.5474560000000  0.4901570000000 1.0
C      1  0.4838960000000  0.5034800000000  0.4263460000000 1.0
C      1  0.4814450000000  0.4417960000000  0.4991270000000 1.0
C      1  0.4879030000000  0.4622790000000  0.5449050000000 1.0
C      1  0.4837690000000  0.5280880000000  0.5444020000000 1.0
C      1  0.5421270000000  0.4323780000000  0.4695310000000 1.0
C      1  0.5175130000000  0.5055390000000  0.4234780000000 1.0
C      1  0.5380080000000  0.5667510000000  0.4619640000000 1.0
C      1  0.5268500000000  0.5359640000000  0.5704460000000 1.0
C      1  0.5362050000000  0.4489690000000  0.5522270000000 1.0
C      1  0.5249630000000  0.4313330000000  0.5274160000000 1.0
C      1  0.5172860000000  0.5032650000000  0.5719960000000 1.0
C      1  0.5145880000000  0.5654040000000  0.5304000000000 1.0
C      1  0.5299980000000  0.5326180000000  0.4301800000000 1.0
C      1  0.5369640000000  0.4542290000000  0.4519340000000 1.0
C      1  0.4339890000000  0.4603430000000  0.4828490000000 1.0
C      1  0.4327770000000  0.5055490000000  0.4501810000000 1.0
C      1  0.4423060000000  0.5431910000000  0.4884880000000 1.0
C      1  0.4442840000000  0.5253570000000  0.5387130000000 1.0
C      1  0.4407200000000  0.4717720000000  0.5391490000000 1.0
C      1  0.4343110000000  0.4592280000000  0.5158880000000 1.0
C      1  0.4403060000000  0.5016020000000  0.5501590000000 1.0
C      1  0.4390570000000  0.5455330000000  0.5147800000000 1.0
C      1  0.4372750000000  0.5300080000000  0.4603440000000 1.0
C      1  0.4361870000000  0.4762820000000  0.4616100000000 1.0
C      1  0.5106460000000  0.4513360000000  0.4852950000000 1.0
C      1  0.5324330000000  0.4963030000000  0.4598570000000 1.0
C      1  0.5223610000000  0.5467420000000  0.4815650000000 1.0
C      1  0.5165900000000  0.5267480000000  0.5396380000000 1.0
C      1  0.5187350000000  0.4701810000000  0.5342050000000 1.0
C      1  0.5270230000000  0.4699150000000  0.5053950000000 1.0
C      1  0.5306210000000  0.4979710000000  0.5422880000000 1.0
C      1  0.5306880000000  0.5430470000000  0.5130790000000 1.0
C      1  0.5181290000000  0.5237360000000  0.4590400000000 1.0
C      1  0.5099580000000  0.4711750000000  0.4602150000000 1.0
C      1  0.5199640000000  0.5619700000000  0.5582720000000 1.0
C      1  0.5302400000000  0.4716650000000  0.5723320000000 1.0
C      1  0.5334980000000  0.4313460000000  0.4992690000000 1.0
C      1  0.5339310000000  0.4799050000000  0.4298540000000 1.0
C      1  0.5412450000000  0.5580770000000  0.4355700000000 1.0
C      1  0.4682830000000  0.5418280000000  0.4665760000000 1.0
C      1  0.4664490000000  0.4818900000000  0.5593260000000 1.0
C      1  0.4648610000000  0.5524510000000  0.5350610000000 1.0
C      1  0.4560530000000  0.4859500000000  0.4356210000000 1.0
C      1  0.4512070000000  0.4375650000000  0.4978900000000 1.0
C      1  0.5509390000000  0.4835050000000  0.5020740000000 1.0
C      1  0.5559230000000  0.4967890000000  0.4775900000000 1.0
C      1  0.5548960000000  0.5018530000000  0.5240440000000 1.0
C      1  0.5674790000000  0.5225150000000  0.4849710000000 1.0
C      1  0.5577780000000  0.5281620000000  0.5121630000000 1.0
C      1  0.4859160000000  0.5102760000000  0.5201370000000 1.0
C      1  0.4791410000000  0.4934710000000  0.4799310000000 1.0
C      1  0.4843500000000  0.5172460000000  0.4936100000000 1.0
C      1  0.4829730000000  0.4839090000000  0.5230120000000 1.0
C      1  0.4797230000000  0.4729860000000  0.4982710000000 1.0
END
