TITL C-1154803-8277-448 -1147.13195020486 125000 -325.363512419656 0 0 60 (C1) n - 1
REM
REM in /home/nfs/bkarasulu/CARBON/AIRSS/Generating-Clusters/AIREBO/Higher-Symm/Only-C60
REM
REM
REM
REM
REM
REM ./C.cell (28575a23ae977d3b5fae324c64b13b57)
REM
REM compiler GCC version 9.2.1 20190827 (Red Hat 9.2.1-1)
REM options -cpp -mtune=generic -march=x86-64 -g -O0 -fpre-include=/usr/include/finclude/math-vector-fortran.h
REM seed -472463452 1988321764 -1008781356 1574887461 487377845 1800104843 -764032537 1627722249 619772770 -80026406 -1268676441 1276486143 264173900 991520957 473293143 -552027017 1540830642 1376951351 1413907610 -1336875329 881908636 -1911560721 -588012742 1252088643 233642918 850635448 -2133417018 91147099 1636239995 1930061245 1244278487 2031580617 -199642321
REM
CELL 1.54180   50.00000   50.00000   50.00000   90.00000   90.00000   90.00000
LATT -1
SFAC C  
C      1  0.4931960000000  0.4716100000000  0.5630250000000 1.0
C      1  0.4912280000000  0.5620150000000  0.5257900000000 1.0
C      1  0.4924620000000  0.5298520000000  0.4378710000000 1.0
C      1  0.4861010000000  0.4377000000000  0.4726090000000 1.0
C      1  0.4919190000000  0.5276520000000  0.5598140000000 1.0
C      1  0.4872270000000  0.4384910000000  0.5268550000000 1.0
C      1  0.4943200000000  0.4748290000000  0.4379480000000 1.0
C      1  0.4880190000000  0.5647780000000  0.4736130000000 1.0
C      1  0.5517120000000  0.5383590000000  0.5175950000000 1.0
C      1  0.5508910000000  0.5152600000000  0.4655080000000 1.0
C      1  0.5490510000000  0.4605940000000  0.4840190000000 1.0
C      1  0.5524400000000  0.4842220000000  0.5356310000000 1.0
C      1  0.5487450000000  0.4618280000000  0.5141350000000 1.0
C      1  0.5523630000000  0.4846890000000  0.4650710000000 1.0
C      1  0.5485980000000  0.5370980000000  0.4872500000000 1.0
C      1  0.5509460000000  0.5145130000000  0.5364870000000 1.0
C      1  0.4736570000000  0.5365240000000  0.5158940000000 1.0
C      1  0.4787430000000  0.5172060000000  0.4662990000000 1.0
C      1  0.4814030000000  0.4669340000000  0.4836640000000 1.0
C      1  0.4832870000000  0.4863710000000  0.5355800000000 1.0
C      1  0.4773160000000  0.4675170000000  0.5121840000000 1.0
C      1  0.4745470000000  0.4860700000000  0.4612610000000 1.0
C      1  0.4825250000000  0.5364740000000  0.4871430000000 1.0
C      1  0.4705600000000  0.5137990000000  0.5386360000000 1.0
C      1  0.4551640000000  0.5646390000000  0.4824180000000 1.0
C      1  0.4749000000000  0.4878360000000  0.4204760000000 1.0
C      1  0.4568280000000  0.4335850000000  0.5138640000000 1.0
C      1  0.4740290000000  0.5135290000000  0.5784800000000 1.0
C      1  0.4562490000000  0.4360710000000  0.4846270000000 1.0
C      1  0.4657370000000  0.5137400000000  0.4292570000000 1.0
C      1  0.4708700000000  0.5754970000000  0.5079860000000 1.0
C      1  0.4667150000000  0.4864160000000  0.5716920000000 1.0
C      1  0.4429930000000  0.4805210000000  0.4651260000000 1.0
C      1  0.4513600000000  0.4605960000000  0.5330640000000 1.0
C      1  0.4373500000000  0.5084760000000  0.5359280000000 1.0
C      1  0.4428300000000  0.5362420000000  0.4827420000000 1.0
C      1  0.4461200000000  0.5136680000000  0.4573930000000 1.0
C      1  0.4438550000000  0.5245740000000  0.5109640000000 1.0
C      1  0.4463540000000  0.4826830000000  0.5503650000000 1.0
C      1  0.4378520000000  0.4544790000000  0.4711040000000 1.0
C      1  0.5342770000000  0.4246830000000  0.5127850000000 1.0
C      1  0.5394680000000  0.5140780000000  0.5746150000000 1.0
C      1  0.5373540000000  0.5753530000000  0.4862530000000 1.0
C      1  0.5425390000000  0.4886590000000  0.4266410000000 1.0
C      1  0.5394580000000  0.5759170000000  0.5122650000000 1.0
C      1  0.5418660000000  0.4882710000000  0.5739160000000 1.0
C      1  0.5340850000000  0.4237610000000  0.4867760000000 1.0
C      1  0.5418070000000  0.5145830000000  0.4266900000000 1.0
C      1  0.5213310000000  0.5230450000000  0.4505770000000 1.0
C      1  0.5172290000000  0.4504820000000  0.4774740000000 1.0
C      1  0.5224790000000  0.4774930000000  0.5502550000000 1.0
C      1  0.5206370000000  0.5513420000000  0.5223800000000 1.0
C      1  0.5223060000000  0.4789650000000  0.4502160000000 1.0
C      1  0.5178210000000  0.5495810000000  0.4797530000000 1.0
C      1  0.5202830000000  0.5219390000000  0.5492460000000 1.0
C      1  0.5170510000000  0.4514580000000  0.5208820000000 1.0
C      1  0.5170370000000  0.4853490000000  0.5176160000000 1.0
C      1  0.5153730000000  0.5158300000000  0.4832660000000 1.0
C      1  0.5171600000000  0.4839600000000  0.4834970000000 1.0
C      1  0.5175660000000  0.5183120000000  0.5155310000000 1.0
END
