TITL C-1154826-9507-500 0.000706248347931415 125000 -311.746692997382 0 0 60 (C1) n - 1
REM
REM in /home/nfs/bkarasulu/CARBON/AIRSS/Generating-Clusters/AIREBO/Higher-Symm/Only-C60
REM
REM
REM
REM
REM
REM ./C.cell (28575a23ae977d3b5fae324c64b13b57)
REM
REM compiler GCC version 9.2.1 20190827 (Red Hat 9.2.1-1)
REM options -cpp -mtune=generic -march=x86-64 -g -O0 -fpre-include=/usr/include/finclude/math-vector-fortran.h
REM seed 374319089 1010871588 -1313601802 1279066127 829058417 -964715633 -910364566 837728581 1678713316 490404151 1928422457 1474523825 -1749546974 -389381605 259166898 -1586370065 -801971103 -1111784250 -1399017847 131145043 -448011337 1711371468 -1313807556 453429035 6431063 -1221122396 -2013575180 1323262418 -1039890316 -1665955693 569441707 1473878500 1344134988
REM
CELL 1.54180   50.00000   50.00000   50.00000   90.00000   90.00000   90.00000
LATT -1
SFAC C  
C      1  0.5306100000000  0.5352590000000  0.4837120000000 1.0
C      1  0.4721430000000  0.5322210000000  0.5354630000000 1.0
C      1  0.5377110000000  0.4731800000000  0.5309460000000 1.0
C      1  0.5349240000000  0.4533960000000  0.5084270000000 1.0
C      1  0.4592820000000  0.4571030000000  0.4815940000000 1.0
C      1  0.4694840000000  0.5555460000000  0.5154760000000 1.0
C      1  0.4817580000000  0.4588730000000  0.4580820000000 1.0
C      1  0.5173970000000  0.4707240000000  0.5536540000000 1.0
C      1  0.5071530000000  0.5343590000000  0.4628020000000 1.0
C      1  0.5546810000000  0.5177730000000  0.4733320000000 1.0
C      1  0.4530070000000  0.5090720000000  0.5335860000000 1.0
C      1  0.4578460000000  0.4812280000000  0.4596120000000 1.0
C      1  0.4605330000000  0.5564240000000  0.4841060000000 1.0
C      1  0.5057570000000  0.5306550000000  0.5403180000000 1.0
C      1  0.4618660000000  0.4740710000000  0.5394820000000 1.0
C      1  0.4569960000000  0.4567720000000  0.5155260000000 1.0
C      1  0.5402860000000  0.4620600000000  0.4732900000000 1.0
C      1  0.5262340000000  0.5254590000000  0.5159900000000 1.0
C      1  0.5157320000000  0.4570830000000  0.4567370000000 1.0
C      1  0.4846280000000  0.4641700000000  0.5546320000000 1.0
C      1  0.4735220000000  0.5392970000000  0.4639420000000 1.0
C      1  0.4571250000000  0.5151710000000  0.4575570000000 1.0
C      1  0.5467180000000  0.5055500000000  0.5257040000000 1.0
C      1  0.5547890000000  0.4854440000000  0.4638000000000 1.0
C      1  0.4314570000000  0.4423040000000  0.4885490000000 1.0
C      1  0.4887250000000  0.4313820000000  0.4426260000000 1.0
C      1  0.4437640000000  0.4882740000000  0.4313490000000 1.0
C      1  0.4415180000000  0.5744640000000  0.5137440000000 1.0
C      1  0.5421930000000  0.5645650000000  0.4836230000000 1.0
C      1  0.5592890000000  0.4316530000000  0.5067100000000 1.0
C      1  0.4776950000000  0.5451820000000  0.5645950000000 1.0
C      1  0.5117240000000  0.5600790000000  0.4402940000000 1.0
C      1  0.5136340000000  0.4412020000000  0.5689500000000 1.0
C      1  0.4316940000000  0.5077200000000  0.5584700000000 1.0
C      1  0.5636970000000  0.5168190000000  0.4412050000000 1.0
C      1  0.5663130000000  0.4770900000000  0.5454690000000 1.0
C      1  0.5580250000000  0.4375170000000  0.4800030000000 1.0
C      1  0.5158480000000  0.4285930000000  0.4381790000000 1.0
C      1  0.5674640000000  0.4871940000000  0.4362090000000 1.0
C      1  0.5517980000000  0.5882200000000  0.4826360000000 1.0
C      1  0.4363430000000  0.5740780000000  0.4835990000000 1.0
C      1  0.4278750000000  0.4391550000000  0.5157520000000 1.0
C      1  0.5027090000000  0.5556080000000  0.5670650000000 1.0
C      1  0.4844620000000  0.5565690000000  0.4387390000000 1.0
C      1  0.4835530000000  0.4386570000000  0.5710410000000 1.0
C      1  0.5697770000000  0.5026740000000  0.5541180000000 1.0
C      1  0.4411270000000  0.5155120000000  0.4275260000000 1.0
C      1  0.4371660000000  0.4809290000000  0.5570320000000 1.0
C      1  0.5156680000000  0.5180560000000  0.5662200000000 1.0
C      1  0.5751100000000  0.5125320000000  0.5161870000000 1.0
C      1  0.5078980000000  0.4403560000000  0.5094720000000 1.0
C      1  0.4969100000000  0.5697630000000  0.5170350000000 1.0
C      1  0.5078630000000  0.4842240000000  0.4418000000000 1.0
C      1  0.5212480000000  0.4946460000000  0.5725960000000 1.0
C      1  0.5087600000000  0.5081530000000  0.4464000000000 1.0
C      1  0.5784290000000  0.5208830000000  0.4926260000000 1.0
C      1  0.4390660000000  0.5092370000000  0.5070390000000 1.0
C      1  0.4387710000000  0.5076720000000  0.4826220000000 1.0
C      1  0.5187770000000  0.5580460000000  0.5143580000000 1.0
C      1  0.4834720000000  0.4401030000000  0.5083930000000 1.0
END
