TITL C-1154828-9214-181 0.0445239305344638 125000 -336.290685214295 0 0 60 (C1) n - 1
REM
REM in /home/nfs/bkarasulu/CARBON/AIRSS/Generating-Clusters/AIREBO/Higher-Symm/Only-C60
REM
REM
REM
REM
REM
REM ./C.cell (28575a23ae977d3b5fae324c64b13b57)
REM
REM compiler GCC version 9.2.1 20190827 (Red Hat 9.2.1-1)
REM options -cpp -mtune=generic -march=x86-64 -g -O0 -fpre-include=/usr/include/finclude/math-vector-fortran.h
REM seed 518874877 -917355246 1422757358 -325624739 -573742581 -1378379989 -1080580537 1384584885 -1385367662 1545919541 -987910776 576301672 -1870335191 572947543 -2030754667 467778181 -1252972399 -1278339935 -1802146534 1846149948 -2066933483 654239043 752926384 276125301 185058976 2000667268 -1509394788 1704131056 1989407584 1910366269 1458260965 210937161 -427404243
REM
CELL 1.54180   50.00000   50.00000   50.00000   90.00000   90.00000   90.00000
LATT -1
SFAC C  
C      1  0.5042360000000  0.5316490000000  0.5147390000000 1.0
C      1  0.4983810000000  0.4705320000000  0.5161500000000 1.0
C      1  0.4938330000000  0.4861500000000  0.4862880000000 1.0
C      1  0.5089450000000  0.5168350000000  0.4844880000000 1.0
C      1  0.5369580000000  0.5002770000000  0.4814590000000 1.0
C      1  0.4675290000000  0.5017580000000  0.4759920000000 1.0
C      1  0.5630740000000  0.4410970000000  0.5020390000000 1.0
C      1  0.4367120000000  0.5497590000000  0.4976260000000 1.0
C      1  0.4831500000000  0.5496740000000  0.5552150000000 1.0
C      1  0.5127530000000  0.4499800000000  0.5548980000000 1.0
C      1  0.5472710000000  0.4378790000000  0.4798050000000 1.0
C      1  0.4518490000000  0.5585080000000  0.4762870000000 1.0
C      1  0.5266880000000  0.4847990000000  0.5081380000000 1.0
C      1  0.4759670000000  0.5161120000000  0.5056410000000 1.0
C      1  0.4660290000000  0.5155780000000  0.4463340000000 1.0
C      1  0.5397020000000  0.4857450000000  0.4519880000000 1.0
C      1  0.5731610000000  0.5465210000000  0.5029370000000 1.0
C      1  0.4337100000000  0.4690390000000  0.5146960000000 1.0
C      1  0.5478590000000  0.4605180000000  0.4470300000000 1.0
C      1  0.4586510000000  0.5409460000000  0.4410020000000 1.0
C      1  0.4869960000000  0.5899100000000  0.4870810000000 1.0
C      1  0.5068320000000  0.4117680000000  0.4848900000000 1.0
C      1  0.4487960000000  0.4857050000000  0.5318150000000 1.0
C      1  0.5538340000000  0.5081700000000  0.5255810000000 1.0
C      1  0.5415490000000  0.5544340000000  0.5357340000000 1.0
C      1  0.4619020000000  0.4435070000000  0.5379560000000 1.0
C      1  0.5376630000000  0.5185740000000  0.4490330000000 1.0
C      1  0.4626390000000  0.4824770000000  0.4449480000000 1.0
C      1  0.5027930000000  0.4386300000000  0.5243780000000 1.0
C      1  0.4943070000000  0.5611510000000  0.5250610000000 1.0
C      1  0.5395640000000  0.5671270000000  0.4617010000000 1.0
C      1  0.4512290000000  0.4373550000000  0.4630710000000 1.0
C      1  0.5051800000000  0.5816310000000  0.5060950000000 1.0
C      1  0.4894890000000  0.4211000000000  0.5040270000000 1.0
C      1  0.4103450000000  0.4745820000000  0.5029080000000 1.0
C      1  0.5697560000000  0.5191320000000  0.5063460000000 1.0
C      1  0.4456370000000  0.5431480000000  0.5234520000000 1.0
C      1  0.5541050000000  0.4487280000000  0.5275690000000 1.0
C      1  0.4622510000000  0.5621900000000  0.5355030000000 1.0
C      1  0.5333470000000  0.4329370000000  0.5381550000000 1.0
C      1  0.5043770000000  0.5501890000000  0.4796530000000 1.0
C      1  0.4953680000000  0.4529590000000  0.4806420000000 1.0
C      1  0.5462030000000  0.4779460000000  0.5319560000000 1.0
C      1  0.4575490000000  0.5145740000000  0.5302410000000 1.0
C      1  0.5139960000000  0.5111080000000  0.5554880000000 1.0
C      1  0.4910520000000  0.4872720000000  0.5623900000000 1.0
C      1  0.4891280000000  0.4970830000000  0.4310160000000 1.0
C      1  0.5161280000000  0.4999120000000  0.4329480000000 1.0
C      1  0.5290980000000  0.5254410000000  0.5340060000000 1.0
C      1  0.4771470000000  0.4718080000000  0.5402390000000 1.0
C      1  0.5244370000000  0.4795180000000  0.5578420000000 1.0
C      1  0.4813060000000  0.5189100000000  0.5542090000000 1.0
C      1  0.5514910000000  0.5626450000000  0.5114460000000 1.0
C      1  0.4480740000000  0.4442620000000  0.5135520000000 1.0
C      1  0.4790690000000  0.5654750000000  0.4730520000000 1.0
C      1  0.5198700000000  0.4355630000000  0.4736740000000 1.0
C      1  0.4662710000000  0.4377450000000  0.4900070000000 1.0
C      1  0.5301250000000  0.5690120000000  0.4917280000000 1.0
C      1  0.5451930000000  0.5455340000000  0.4497300000000 1.0
C      1  0.4494490000000  0.4574290000000  0.4481240000000 1.0
END
