TITL C-1154828-9214-617 -0.00120809598554584 125000 -355.593912128803 0 0 60 (C1) n - 1
REM
REM in /home/nfs/bkarasulu/CARBON/AIRSS/Generating-Clusters/AIREBO/Higher-Symm/Only-C60
REM
REM
REM
REM
REM
REM ./C.cell (28575a23ae977d3b5fae324c64b13b57)
REM
REM compiler GCC version 9.2.1 20190827 (Red Hat 9.2.1-1)
REM options -cpp -mtune=generic -march=x86-64 -g -O0 -fpre-include=/usr/include/finclude/math-vector-fortran.h
REM seed -1119721974 515865058 -1132732268 2142742077 404361330 -809048766 418753412 -526589593 -998675466 -545791925 -1304940886 -322742992 2080885931 186207908 -1556736875 173522488 -1273789237 1116662123 76007985 768296303 1701087862 892016084 -611520278 -1946777407 -2094118769 2120345669 68483695 1745084950 -1226810272 91100539 1334045851 84640171 1953124132
REM
CELL 1.54180   50.00000   50.00000   50.00000   90.00000   90.00000   90.00000
LATT -1
SFAC C  
C      1  0.5021020000000  0.4398700000000  0.5459260000000 1.0
C      1  0.5014160000000  0.4512850000000  0.4571220000000 1.0
C      1  0.4952910000000  0.4238050000000  0.4749190000000 1.0
C      1  0.5143460000000  0.4221800000000  0.5198470000000 1.0
C      1  0.5272950000000  0.5109580000000  0.5645470000000 1.0
C      1  0.4774230000000  0.5153750000000  0.4333840000000 1.0
C      1  0.5002230000000  0.5858180000000  0.4833130000000 1.0
C      1  0.5061870000000  0.5853650000000  0.5114790000000 1.0
C      1  0.5064280000000  0.4739960000000  0.4434810000000 1.0
C      1  0.4879960000000  0.4616380000000  0.5549000000000 1.0
C      1  0.4921090000000  0.4067900000000  0.5021220000000 1.0
C      1  0.5248740000000  0.4244410000000  0.4891760000000 1.0
C      1  0.5719860000000  0.4964580000000  0.5015560000000 1.0
C      1  0.4223500000000  0.5029600000000  0.4933150000000 1.0
C      1  0.5681950000000  0.5103410000000  0.5326200000000 1.0
C      1  0.4356810000000  0.5151980000000  0.4641690000000 1.0
C      1  0.4342660000000  0.4853620000000  0.5418170000000 1.0
C      1  0.5545730000000  0.4780670000000  0.4549100000000 1.0
C      1  0.5177900000000  0.5206980000000  0.5155160000000 1.0
C      1  0.4933240000000  0.5257310000000  0.4984380000000 1.0
C      1  0.5465890000000  0.4311660000000  0.4756280000000 1.0
C      1  0.4778910000000  0.3858880000000  0.5074300000000 1.0
C      1  0.5246830000000  0.5677440000000  0.5228140000000 1.0
C      1  0.4792520000000  0.5713520000000  0.4717980000000 1.0
C      1  0.4746500000000  0.4504880000000  0.4723720000000 1.0
C      1  0.5328250000000  0.4428230000000  0.5380130000000 1.0
C      1  0.4272920000000  0.5051490000000  0.5217050000000 1.0
C      1  0.5621200000000  0.4979420000000  0.4748390000000 1.0
C      1  0.5434020000000  0.4675250000000  0.5333650000000 1.0
C      1  0.4628080000000  0.4743780000000  0.4760070000000 1.0
C      1  0.5055940000000  0.4856330000000  0.5576550000000 1.0
C      1  0.4869860000000  0.4940260000000  0.4484970000000 1.0
C      1  0.5055440000000  0.4846620000000  0.5060980000000 1.0
C      1  0.4763960000000  0.4915880000000  0.5094020000000 1.0
C      1  0.4635270000000  0.5551570000000  0.4569470000000 1.0
C      1  0.5375850000000  0.5486980000000  0.5368010000000 1.0
C      1  0.5444570000000  0.5226140000000  0.5450210000000 1.0
C      1  0.4560790000000  0.5291960000000  0.4484570000000 1.0
C      1  0.4681560000000  0.5158390000000  0.5754330000000 1.0
C      1  0.5283020000000  0.5068940000000  0.4180000000000 1.0
C      1  0.4676490000000  0.5230790000000  0.5141750000000 1.0
C      1  0.5252050000000  0.5041710000000  0.4886620000000 1.0
C      1  0.5268810000000  0.5369610000000  0.4289280000000 1.0
C      1  0.4562190000000  0.5412230000000  0.5719820000000 1.0
C      1  0.5392490000000  0.5415390000000  0.4534020000000 1.0
C      1  0.4430640000000  0.5464530000000  0.5482120000000 1.0
C      1  0.4370180000000  0.4838150000000  0.4724750000000 1.0
C      1  0.5682090000000  0.4785110000000  0.5280270000000 1.0
C      1  0.4829310000000  0.5006290000000  0.4776640000000 1.0
C      1  0.5222290000000  0.4886500000000  0.5317940000000 1.0
C      1  0.5145700000000  0.6026520000000  0.4676080000000 1.0
C      1  0.4943340000000  0.6039050000000  0.5273210000000 1.0
C      1  0.4508470000000  0.4939320000000  0.5693190000000 1.0
C      1  0.5320950000000  0.4845770000000  0.4361000000000 1.0
C      1  0.5587620000000  0.4509050000000  0.4613730000000 1.0
C      1  0.4609690000000  0.4680670000000  0.5532020000000 1.0
C      1  0.4434700000000  0.5285350000000  0.5265980000000 1.0
C      1  0.5433210000000  0.5211590000000  0.4717050000000 1.0
C      1  0.4957180000000  0.5112970000000  0.5753920000000 1.0
C      1  0.4992640000000  0.5248400000000  0.4172220000000 1.0
END
