TITL C-1154801-8518-323 -0.00317600848146382 125000 -317.670611288798 0 0 60 (C1) n - 1
REM
REM in /home/nfs/bkarasulu/CARBON/AIRSS/Generating-Clusters/AIREBO/Higher-Symm/Only-C60
REM
REM
REM
REM
REM
REM ./C.cell (28575a23ae977d3b5fae324c64b13b57)
REM
REM compiler GCC version 9.2.1 20190827 (Red Hat 9.2.1-1)
REM options -cpp -mtune=generic -march=x86-64 -g -O0 -fpre-include=/usr/include/finclude/math-vector-fortran.h
REM seed 319723848 -1096924434 387026224 1070516607 -1807119937 425105595 2068354758 22962276 -44242112 -63763457 996579272 -16256851 653755629 -799157844 12682886 -2039482435 1223391024 173716733 764861238 -1185530179 -655495264 341785045 2117623859 332311795 -520343685 1654176918 -1060688715 -1423709050 432172234 -215563549 -1909973626 1758726109 126911110
REM
CELL 1.54180   50.00000   50.00000   50.00000   90.00000   90.00000   90.00000
LATT -1
SFAC C  
C      1  0.5174460000000  0.4431990000000  0.5266320000000 1.0
C      1  0.5099600000000  0.4584860000000  0.4375160000000 1.0
C      1  0.5181170000000  0.5530090000000  0.4666780000000 1.0
C      1  0.5150160000000  0.5380680000000  0.5579670000000 1.0
C      1  0.4838290000000  0.4438080000000  0.5305970000000 1.0
C      1  0.4764530000000  0.4618180000000  0.4406700000000 1.0
C      1  0.4845370000000  0.5568360000000  0.4682090000000 1.0
C      1  0.4810540000000  0.5390620000000  0.5567040000000 1.0
C      1  0.5576680000000  0.5148780000000  0.4504980000000 1.0
C      1  0.5534910000000  0.5490480000000  0.5279150000000 1.0
C      1  0.5559140000000  0.4858300000000  0.5583790000000 1.0
C      1  0.5502530000000  0.4635630000000  0.4791950000000 1.0
C      1  0.4429770000000  0.5219520000000  0.4469290000000 1.0
C      1  0.4422120000000  0.5456460000000  0.5279160000000 1.0
C      1  0.4442170000000  0.4803530000000  0.5535790000000 1.0
C      1  0.4410870000000  0.4526710000000  0.4738650000000 1.0
C      1  0.5147010000000  0.4189660000000  0.4993550000000 1.0
C      1  0.5134790000000  0.4920490000000  0.4235800000000 1.0
C      1  0.5126850000000  0.5727810000000  0.4916700000000 1.0
C      1  0.5131250000000  0.5106520000000  0.5819290000000 1.0
C      1  0.4861850000000  0.4250960000000  0.5042660000000 1.0
C      1  0.4839180000000  0.4890740000000  0.4254500000000 1.0
C      1  0.4826470000000  0.5756950000000  0.4952180000000 1.0
C      1  0.4847120000000  0.5129950000000  0.5741520000000 1.0
C      1  0.4842380000000  0.4641220000000  0.4961710000000 1.0
C      1  0.4828760000000  0.5023320000000  0.4630720000000 1.0
C      1  0.4842570000000  0.5364740000000  0.5025410000000 1.0
C      1  0.4864900000000  0.4969630000000  0.5371380000000 1.0
C      1  0.5130050000000  0.4673690000000  0.4927500000000 1.0
C      1  0.5118570000000  0.5011320000000  0.4624390000000 1.0
C      1  0.5132290000000  0.5345770000000  0.5030200000000 1.0
C      1  0.5165880000000  0.4955050000000  0.5371840000000 1.0
C      1  0.4416980000000  0.4826660000000  0.5206380000000 1.0
C      1  0.4399360000000  0.4845750000000  0.4871060000000 1.0
C      1  0.4398750000000  0.5166260000000  0.4798280000000 1.0
C      1  0.4419090000000  0.5143880000000  0.5134380000000 1.0
C      1  0.5572430000000  0.4857560000000  0.5267580000000 1.0
C      1  0.5615300000000  0.4844150000000  0.4940740000000 1.0
C      1  0.5566500000000  0.5151090000000  0.4831410000000 1.0
C      1  0.5583380000000  0.5170880000000  0.5162340000000 1.0
C      1  0.4639460000000  0.4387970000000  0.4884330000000 1.0
C      1  0.4662570000000  0.5110810000000  0.4366570000000 1.0
C      1  0.4630140000000  0.5608540000000  0.5119800000000 1.0
C      1  0.4676210000000  0.4910450000000  0.5632040000000 1.0
C      1  0.5316080000000  0.4402880000000  0.4893570000000 1.0
C      1  0.5343980000000  0.5066720000000  0.4390320000000 1.0
C      1  0.5292500000000  0.5617730000000  0.5142690000000 1.0
C      1  0.5300720000000  0.4943030000000  0.5656690000000 1.0
C      1  0.4705070000000  0.5282570000000  0.4752460000000 1.0
C      1  0.4696690000000  0.5255930000000  0.5295890000000 1.0
C      1  0.4722480000000  0.4725530000000  0.5241480000000 1.0
C      1  0.4672920000000  0.4740250000000  0.4698640000000 1.0
C      1  0.5269180000000  0.5243550000000  0.4765550000000 1.0
C      1  0.5289770000000  0.5255810000000  0.5311710000000 1.0
C      1  0.5281590000000  0.4718550000000  0.5200390000000 1.0
C      1  0.5235280000000  0.4714510000000  0.4613970000000 1.0
C      1  0.5012050000000  0.5641450000000  0.4393640000000 1.0
C      1  0.4993010000000  0.5657010000000  0.5674430000000 1.0
C      1  0.5045240000000  0.4329060000000  0.5553390000000 1.0
C      1  0.4907110000000  0.4341330000000  0.4268460000000 1.0
END
