TITL C-1154802-8274-692 -0.000564656375998553 125000 -307.109014026592 0 0 60 (C1) n - 1
REM
REM in /home/nfs/bkarasulu/CARBON/AIRSS/Generating-Clusters/AIREBO/Higher-Symm/Only-C60
REM
REM
REM
REM
REM
REM ./C.cell (28575a23ae977d3b5fae324c64b13b57)
REM
REM compiler GCC version 9.2.1 20190827 (Red Hat 9.2.1-1)
REM options -cpp -mtune=generic -march=x86-64 -g -O0 -fpre-include=/usr/include/finclude/math-vector-fortran.h
REM seed -672596808 1776528204 1548319821 -360657970 1770621185 209253929 -48844814 -968929123 2064013693 1895639999 -1577127535 464561037 1341359730 -110703357 -1771378082 -595268867 -1242842181 1640500761 1769445662 1483402536 1872581641 -158445149 743075458 2055842646 -1358787100 1804364652 -1615878225 401428981 800476706 -1844441960 644938238 1748419110 -856848025
REM
CELL 1.54180   50.00000   50.00000   50.00000   90.00000   90.00000   90.00000
LATT -1
SFAC C  
C      1  0.4120840000000  0.4675750000000  0.5020360000000 1.0
C      1  0.4190480000000  0.4767870000000  0.5276540000000 1.0
C      1  0.4227040000000  0.5073370000000  0.5342760000000 1.0
C      1  0.4212520000000  0.5277550000000  0.5165270000000 1.0
C      1  0.4157450000000  0.5268610000000  0.4851760000000 1.0
C      1  0.4217640000000  0.5026580000000  0.4675540000000 1.0
C      1  0.4257420000000  0.4765440000000  0.4789030000000 1.0
C      1  0.4999060000000  0.4731540000000  0.5131760000000 1.0
C      1  0.5026280000000  0.4949150000000  0.5392210000000 1.0
C      1  0.4917470000000  0.5239600000000  0.5259880000000 1.0
C      1  0.5025320000000  0.5420920000000  0.4997810000000 1.0
C      1  0.5130450000000  0.5209760000000  0.4787630000000 1.0
C      1  0.5027080000000  0.4961110000000  0.4610980000000 1.0
C      1  0.5087120000000  0.4704080000000  0.4805710000000 1.0
C      1  0.5085800000000  0.4397860000000  0.4548770000000 1.0
C      1  0.5053730000000  0.4274490000000  0.5162760000000 1.0
C      1  0.5051760000000  0.4660550000000  0.5664950000000 1.0
C      1  0.5045200000000  0.5333440000000  0.5667280000000 1.0
C      1  0.5060560000000  0.5762750000000  0.5196470000000 1.0
C      1  0.5024120000000  0.5575990000000  0.4551340000000 1.0
C      1  0.5059300000000  0.4973730000000  0.4272720000000 1.0
C      1  0.4949640000000  0.5452040000000  0.5901050000000 1.0
C      1  0.4999550000000  0.6021960000000  0.5270060000000 1.0
C      1  0.4869160000000  0.5740970000000  0.4389740000000 1.0
C      1  0.4978690000000  0.4971040000000  0.4009240000000 1.0
C      1  0.4976100000000  0.4192570000000  0.4404900000000 1.0
C      1  0.4938010000000  0.4035030000000  0.5221510000000 1.0
C      1  0.4959380000000  0.4534560000000  0.5894210000000 1.0
C      1  0.5245720000000  0.5300700000000  0.5325180000000 1.0
C      1  0.5349870000000  0.5511460000000  0.4930250000000 1.0
C      1  0.5374660000000  0.5240440000000  0.4575280000000 1.0
C      1  0.5336710000000  0.4846440000000  0.4528970000000 1.0
C      1  0.5354330000000  0.4552610000000  0.4799760000000 1.0
C      1  0.5296910000000  0.4583730000000  0.5203610000000 1.0
C      1  0.5350960000000  0.4956730000000  0.5496200000000 1.0
C      1  0.4495580000000  0.5180520000000  0.4660200000000 1.0
C      1  0.4707480000000  0.4973260000000  0.4636780000000 1.0
C      1  0.4575710000000  0.4705190000000  0.4798260000000 1.0
C      1  0.4671220000000  0.4693750000000  0.5128770000000 1.0
C      1  0.4502680000000  0.4875200000000  0.5361990000000 1.0
C      1  0.4595160000000  0.5187500000000  0.5235750000000 1.0
C      1  0.4474740000000  0.5346310000000  0.4960020000000 1.0
C      1  0.5618220000000  0.5184810000000  0.4743690000000 1.0
C      1  0.5558370000000  0.4896180000000  0.4679750000000 1.0
C      1  0.5656230000000  0.4659790000000  0.4864470000000 1.0
C      1  0.5542170000000  0.4697270000000  0.5154140000000 1.0
C      1  0.5572210000000  0.4930280000000  0.5308660000000 1.0
C      1  0.5503240000000  0.5216470000000  0.5233650000000 1.0
C      1  0.5560810000000  0.5341240000000  0.4983510000000 1.0
C      1  0.5140840000000  0.4319680000000  0.4875360000000 1.0
C      1  0.5098690000000  0.4483850000000  0.5427330000000 1.0
C      1  0.5095420000000  0.4996720000000  0.5700970000000 1.0
C      1  0.5096840000000  0.5558160000000  0.5416670000000 1.0
C      1  0.5087890000000  0.5706120000000  0.4861330000000 1.0
C      1  0.5122160000000  0.5287280000000  0.4400420000000 1.0
C      1  0.5139040000000  0.4650230000000  0.4394460000000 1.0
C      1  0.5251450000000  0.4956240000000  0.5066150000000 1.0
C      1  0.4533580000000  0.4969740000000  0.4992960000000 1.0
C      1  0.4933650000000  0.5034370000000  0.4991640000000 1.0
C      1  0.5900920000000  0.4543810000000  0.4816840000000 1.0
END
