TITL C-1154802-8274-519 -0.000528078375464475 125000 -324.557003609986 0 0 60 (C1) n - 1
REM
REM in /home/nfs/bkarasulu/CARBON/AIRSS/Generating-Clusters/AIREBO/Higher-Symm/Only-C60
REM
REM
REM
REM
REM
REM ./C.cell (28575a23ae977d3b5fae324c64b13b57)
REM
REM compiler GCC version 9.2.1 20190827 (Red Hat 9.2.1-1)
REM options -cpp -mtune=generic -march=x86-64 -g -O0 -fpre-include=/usr/include/finclude/math-vector-fortran.h
REM seed 1287656956 -1747863295 1457837291 1631415270 -216311058 717868962 533855650 557034673 -2144232138 48632398 -1892188275 -314622273 1744453506 1357001247 -409153749 -683941873 -1481320983 339225404 -681025399 308499495 2004017529 -1248546054 718474378 2017146843 -2138538316 137245561 -1655726284 -552502491 612282396 -1194431218 93710083 -1896105758 562026645
REM
CELL 1.54180   50.00000   50.00000   50.00000   90.00000   90.00000   90.00000
LATT -1
SFAC C  
C      1  0.4461200000000  0.5185920000000  0.5530740000000 1.0
C      1  0.5574720000000  0.4887360000000  0.4515850000000 1.0
C      1  0.4709870000000  0.4752640000000  0.4466500000000 1.0
C      1  0.5277920000000  0.5192040000000  0.5456410000000 1.0
C      1  0.5088580000000  0.5224440000000  0.4908060000000 1.0
C      1  0.4826600000000  0.4711130000000  0.5054140000000 1.0
C      1  0.5199150000000  0.4558920000000  0.4419610000000 1.0
C      1  0.4881350000000  0.5453700000000  0.5622390000000 1.0
C      1  0.6102840000000  0.4647840000000  0.5043190000000 1.0
C      1  0.4059990000000  0.5637580000000  0.4827370000000 1.0
C      1  0.4979270000000  0.5307410000000  0.5340830000000 1.0
C      1  0.4929450000000  0.4540770000000  0.4604730000000 1.0
C      1  0.5133380000000  0.5010890000000  0.4273660000000 1.0
C      1  0.4891520000000  0.4978120000000  0.5743380000000 1.0
C      1  0.4805250000000  0.5114900000000  0.4810530000000 1.0
C      1  0.5145180000000  0.4768600000000  0.5117540000000 1.0
C      1  0.4399370000000  0.4749840000000  0.4892040000000 1.0
C      1  0.5479520000000  0.5279930000000  0.5122490000000 1.0
C      1  0.5006510000000  0.5222070000000  0.4475200000000 1.0
C      1  0.4944650000000  0.4754300000000  0.5526510000000 1.0
C      1  0.5780530000000  0.5049670000000  0.4732440000000 1.0
C      1  0.4349780000000  0.5034160000000  0.5322630000000 1.0
C      1  0.4934170000000  0.4430220000000  0.5161030000000 1.0
C      1  0.5121340000000  0.5534830000000  0.4875630000000 1.0
C      1  0.4900060000000  0.5673640000000  0.5010140000000 1.0
C      1  0.5155310000000  0.4350900000000  0.5013840000000 1.0
C      1  0.4410110000000  0.4874030000000  0.4571700000000 1.0
C      1  0.5595240000000  0.5104510000000  0.5371000000000 1.0
C      1  0.5463350000000  0.4645930000000  0.5449930000000 1.0
C      1  0.4449090000000  0.5296620000000  0.4535700000000 1.0
C      1  0.4584930000000  0.5008620000000  0.5728010000000 1.0
C      1  0.5439410000000  0.5061140000000  0.4325680000000 1.0
C      1  0.5313160000000  0.5325250000000  0.4437680000000 1.0
C      1  0.4626690000000  0.4701490000000  0.5629280000000 1.0
C      1  0.4256430000000  0.5497300000000  0.4910270000000 1.0
C      1  0.5866530000000  0.4737030000000  0.5000700000000 1.0
C      1  0.4676710000000  0.5545770000000  0.5176660000000 1.0
C      1  0.5387930000000  0.4559120000000  0.4878210000000 1.0
C      1  0.5217160000000  0.5063250000000  0.5147670000000 1.0
C      1  0.4719390000000  0.4818580000000  0.4799920000000 1.0
C      1  0.5176050000000  0.5003490000000  0.4673380000000 1.0
C      1  0.4741060000000  0.4895260000000  0.5299130000000 1.0
C      1  0.4720760000000  0.5264200000000  0.4546880000000 1.0
C      1  0.5199510000000  0.4672790000000  0.5409100000000 1.0
C      1  0.4338150000000  0.5127660000000  0.4788290000000 1.0
C      1  0.5611830000000  0.4814650000000  0.5295840000000 1.0
C      1  0.5439620000000  0.4634370000000  0.4563730000000 1.0
C      1  0.4621660000000  0.5439780000000  0.5455090000000 1.0
C      1  0.5005470000000  0.4767450000000  0.4293940000000 1.0
C      1  0.5052350000000  0.5204520000000  0.5711950000000 1.0
C      1  0.4522750000000  0.5329980000000  0.4990280000000 1.0
C      1  0.5550910000000  0.4805420000000  0.4979090000000 1.0
C      1  0.4680610000000  0.4505190000000  0.5360190000000 1.0
C      1  0.5380400000000  0.5404420000000  0.4706190000000 1.0
C      1  0.4213490000000  0.4984900000000  0.5053410000000 1.0
C      1  0.5784310000000  0.5143070000000  0.5059360000000 1.0
C      1  0.4464480000000  0.4730050000000  0.5222580000000 1.0
C      1  0.5459930000000  0.5099500000000  0.4834150000000 1.0
C      1  0.4776300000000  0.5164190000000  0.5145730000000 1.0
C      1  0.5116720000000  0.4718690000000  0.4782340000000 1.0
END
