TITL C-1154826-9507-656 -0.000102198996184361 125000 -319.02284856182 0 0 60 (C1) n - 1
REM
REM in /home/nfs/bkarasulu/CARBON/AIRSS/Generating-Clusters/AIREBO/Higher-Symm/Only-C60
REM
REM
REM
REM
REM
REM ./C.cell (28575a23ae977d3b5fae324c64b13b57)
REM
REM compiler GCC version 9.2.1 20190827 (Red Hat 9.2.1-1)
REM options -cpp -mtune=generic -march=x86-64 -g -O0 -fpre-include=/usr/include/finclude/math-vector-fortran.h
REM seed -33383468 1057937188 -697360243 1047781469 -1678019908 1200715073 682576021 332802677 722163980 -1283609891 2031887294 1549929053 -501268120 1316716402 2099933142 -222391031 -109037447 -1494710695 473485409 1874575022 745206884 335945017 1408529293 1878040492 2133396501 -2020919572 -686699535 -54571092 686093900 -502617858 -1348814936 410832482 1656114552
REM
CELL 1.54180   50.00000   50.00000   50.00000   90.00000   90.00000   90.00000
LATT -1
SFAC C  
C      1  0.4540570000000  0.5189800000000  0.4539170000000 1.0
C      1  0.5175780000000  0.5160760000000  0.4421090000000 1.0
C      1  0.5583560000000  0.5216670000000  0.4930940000000 1.0
C      1  0.5412200000000  0.5226800000000  0.5510160000000 1.0
C      1  0.4789210000000  0.5220800000000  0.5619340000000 1.0
C      1  0.4423440000000  0.5151600000000  0.5161460000000 1.0
C      1  0.5653920000000  0.4318440000000  0.4997880000000 1.0
C      1  0.5427660000000  0.4430420000000  0.5513840000000 1.0
C      1  0.4809180000000  0.4346690000000  0.5677280000000 1.0
C      1  0.4366820000000  0.4369310000000  0.5003270000000 1.0
C      1  0.4520000000000  0.4498710000000  0.4286480000000 1.0
C      1  0.5220860000000  0.4414620000000  0.4297630000000 1.0
C      1  0.4674880000000  0.5283830000000  0.5323320000000 1.0
C      1  0.4530930000000  0.5236510000000  0.4857080000000 1.0
C      1  0.4875560000000  0.5210480000000  0.4562870000000 1.0
C      1  0.5346630000000  0.5200670000000  0.4701110000000 1.0
C      1  0.5442200000000  0.5322980000000  0.5194920000000 1.0
C      1  0.5087500000000  0.5314990000000  0.5486090000000 1.0
C      1  0.5047060000000  0.5586360000000  0.5332920000000 1.0
C      1  0.4750160000000  0.5572800000000  0.5222650000000 1.0
C      1  0.4690590000000  0.5503720000000  0.4923480000000 1.0
C      1  0.4934240000000  0.5491430000000  0.4692060000000 1.0
C      1  0.5218670000000  0.5481200000000  0.4780250000000 1.0
C      1  0.5276550000000  0.5569970000000  0.5131820000000 1.0
C      1  0.5053520000000  0.4639360000000  0.4217160000000 1.0
C      1  0.5512780000000  0.4433000000000  0.4768860000000 1.0
C      1  0.5632530000000  0.4690960000000  0.5540210000000 1.0
C      1  0.4937680000000  0.4635450000000  0.5760500000000 1.0
C      1  0.4558970000000  0.4541440000000  0.5225710000000 1.0
C      1  0.4348510000000  0.4627020000000  0.4481480000000 1.0
C      1  0.4532720000000  0.4722150000000  0.4939040000000 1.0
C      1  0.4693340000000  0.4828750000000  0.4492910000000 1.0
C      1  0.5199250000000  0.4720230000000  0.4579840000000 1.0
C      1  0.5548940000000  0.4700540000000  0.4967350000000 1.0
C      1  0.5274540000000  0.4773530000000  0.5393290000000 1.0
C      1  0.4888860000000  0.4844860000000  0.5497020000000 1.0
C      1  0.5614470000000  0.4520020000000  0.5249510000000 1.0
C      1  0.5119980000000  0.4521730000000  0.5496920000000 1.0
C      1  0.4787770000000  0.4533230000000  0.5406660000000 1.0
C      1  0.4361760000000  0.4533240000000  0.4744330000000 1.0
C      1  0.4781680000000  0.4630580000000  0.4292100000000 1.0
C      1  0.5338440000000  0.4467290000000  0.4564780000000 1.0
C      1  0.4772030000000  0.4959160000000  0.5783630000000 1.0
C      1  0.4399090000000  0.4864990000000  0.5197370000000 1.0
C      1  0.4388020000000  0.4940210000000  0.4450710000000 1.0
C      1  0.5191050000000  0.4896050000000  0.4324150000000 1.0
C      1  0.5721960000000  0.4975510000000  0.4946680000000 1.0
C      1  0.5479550000000  0.4956730000000  0.5542200000000 1.0
C      1  0.5081030000000  0.5826550000000  0.5521110000000 1.0
C      1  0.4573000000000  0.5795840000000  0.5330850000000 1.0
C      1  0.4639760000000  0.5757750000000  0.4724400000000 1.0
C      1  0.4828680000000  0.5765700000000  0.4520960000000 1.0
C      1  0.5378750000000  0.5739570000000  0.4784820000000 1.0
C      1  0.5418210000000  0.5840060000000  0.5037890000000 1.0
C      1  0.5311050000000  0.4927550000000  0.4901440000000 1.0
C      1  0.5287170000000  0.5030150000000  0.5185790000000 1.0
C      1  0.4997880000000  0.5048560000000  0.5324980000000 1.0
C      1  0.4811470000000  0.5088430000000  0.5094640000000 1.0
C      1  0.4705080000000  0.4947770000000  0.4811290000000 1.0
C      1  0.5032350000000  0.4956520000000  0.4732280000000 1.0
END
