TITL C-1154821-8623-182 0.00108897131498734 125000 -322.403215810744 0 0 60 (C1) n - 1
REM
REM in /home/nfs/bkarasulu/CARBON/AIRSS/Generating-Clusters/AIREBO/Higher-Symm/Only-C60
REM
REM
REM
REM
REM
REM ./C.cell (28575a23ae977d3b5fae324c64b13b57)
REM
REM compiler GCC version 9.2.1 20190827 (Red Hat 9.2.1-1)
REM options -cpp -mtune=generic -march=x86-64 -g -O0 -fpre-include=/usr/include/finclude/math-vector-fortran.h
REM seed -1009713086 1960150114 2038548736 1979152552 436629956 -1300298235 -1001743220 1813976163 -1728036125 778839035 -1169046018 882840696 860223703 691597822 -889513313 -1186433548 -1213988878 -667774221 -1165076702 -1729690357 244469210 -1044767672 1725482878 -1763754406 -822829189 -234333577 525333149 1308902607 1151174284 -1259160051 2076430384 1321399275 -638979434
REM
CELL 1.54180   50.00000   50.00000   50.00000   90.00000   90.00000   90.00000
LATT -1
SFAC C  
C      1  0.4784310000000  0.5749010000000  0.5175310000000 1.0
C      1  0.4377240000000  0.4795300000000  0.5446800000000 1.0
C      1  0.4963960000000  0.5284870000000  0.5442110000000 1.0
C      1  0.5306960000000  0.4735520000000  0.4363630000000 1.0
C      1  0.5473120000000  0.5331740000000  0.4853900000000 1.0
C      1  0.4461090000000  0.5086010000000  0.5384880000000 1.0
C      1  0.5324970000000  0.4509450000000  0.4534090000000 1.0
C      1  0.4854030000000  0.4398680000000  0.4867560000000 1.0
C      1  0.4367040000000  0.4660450000000  0.5136110000000 1.0
C      1  0.5150010000000  0.4220410000000  0.4873830000000 1.0
C      1  0.5037040000000  0.4668400000000  0.4964660000000 1.0
C      1  0.4598600000000  0.5457670000000  0.4505560000000 1.0
C      1  0.5009270000000  0.5168160000000  0.5146120000000 1.0
C      1  0.4773800000000  0.4306970000000  0.5181300000000 1.0
C      1  0.4661950000000  0.4583590000000  0.5270590000000 1.0
C      1  0.4723160000000  0.5046550000000  0.5032530000000 1.0
C      1  0.5500260000000  0.5437900000000  0.4594710000000 1.0
C      1  0.5106670000000  0.5416590000000  0.4988700000000 1.0
C      1  0.5214900000000  0.4937210000000  0.5073890000000 1.0
C      1  0.5458420000000  0.5149370000000  0.5478930000000 1.0
C      1  0.5582700000000  0.4802000000000  0.4838070000000 1.0
C      1  0.5165050000000  0.5685650000000  0.5277660000000 1.0
C      1  0.4526030000000  0.5617560000000  0.5045650000000 1.0
C      1  0.5225950000000  0.4487680000000  0.5590670000000 1.0
C      1  0.4990700000000  0.4871190000000  0.4699820000000 1.0
C      1  0.5682390000000  0.4783330000000  0.5099230000000 1.0
C      1  0.5572490000000  0.4534060000000  0.5225660000000 1.0
C      1  0.5341210000000  0.4405840000000  0.5036100000000 1.0
C      1  0.4653110000000  0.5644480000000  0.4738910000000 1.0
C      1  0.4902190000000  0.5645810000000  0.4921010000000 1.0
C      1  0.5007290000000  0.5254020000000  0.4395420000000 1.0
C      1  0.5218240000000  0.5172690000000  0.5623730000000 1.0
C      1  0.5145550000000  0.4559540000000  0.5268190000000 1.0
C      1  0.5472850000000  0.4613210000000  0.5491220000000 1.0
C      1  0.4950840000000  0.4650330000000  0.5535750000000 1.0
C      1  0.4548720000000  0.5575120000000  0.5442040000000 1.0
C      1  0.5470660000000  0.4554800000000  0.4770070000000 1.0
C      1  0.4890820000000  0.5164490000000  0.4765930000000 1.0
C      1  0.4617910000000  0.4632210000000  0.5601440000000 1.0
C      1  0.4778790000000  0.5368490000000  0.4301110000000 1.0
C      1  0.5229030000000  0.5023430000000  0.4511040000000 1.0
C      1  0.5125150000000  0.4313440000000  0.4586440000000 1.0
C      1  0.5104670000000  0.5411360000000  0.4668040000000 1.0
C      1  0.5302080000000  0.5654870000000  0.4540840000000 1.0
C      1  0.4741520000000  0.4788950000000  0.4520940000000 1.0
C      1  0.4583610000000  0.5252430000000  0.4720670000000 1.0
C      1  0.5489160000000  0.5216470000000  0.4407630000000 1.0
C      1  0.5450700000000  0.4902790000000  0.5313800000000 1.0
C      1  0.4383170000000  0.5233640000000  0.4937350000000 1.0
C      1  0.5398490000000  0.5495250000000  0.5120810000000 1.0
C      1  0.4445090000000  0.4915580000000  0.4924820000000 1.0
C      1  0.4512910000000  0.4739360000000  0.4657110000000 1.0
C      1  0.5557850000000  0.5372280000000  0.5359620000000 1.0
C      1  0.4430860000000  0.5348320000000  0.5230570000000 1.0
C      1  0.4737270000000  0.4911950000000  0.5324620000000 1.0
C      1  0.5382220000000  0.5039750000000  0.4814290000000 1.0
C      1  0.4541900000000  0.4533650000000  0.4873480000000 1.0
C      1  0.4887030000000  0.5578380000000  0.5434680000000 1.0
C      1  0.4978480000000  0.4963780000000  0.5536400000000 1.0
C      1  0.4828550000000  0.4337930000000  0.4533920000000 1.0
END
