TITL C-1154828-9214-295 -0.000740092269988407 125000 -331.15016083286 0 0 60 (C1) n - 1
REM
REM in /home/nfs/bkarasulu/CARBON/AIRSS/Generating-Clusters/AIREBO/Higher-Symm/Only-C60
REM
REM
REM
REM
REM
REM ./C.cell (28575a23ae977d3b5fae324c64b13b57)
REM
REM compiler GCC version 9.2.1 20190827 (Red Hat 9.2.1-1)
REM options -cpp -mtune=generic -march=x86-64 -g -O0 -fpre-include=/usr/include/finclude/math-vector-fortran.h
REM seed 1956964789 -1693727311 -1845112085 2009013961 1909523107 104408225 -621689441 -835024636 -844279434 -937213379 313522755 -2127081854 521059678 -860766629 979639965 -1826585116 -248602875 -1589714977 -929155402 -198249129 754898039 -1847988035 -491631125 -902943802 -1755669878 1687220304 89741367 -371639323 -854856117 -1836617132 -2037847965 428746640 -326743445
REM
CELL 1.54180   50.00000   50.00000   50.00000   90.00000   90.00000   90.00000
LATT -1
SFAC C  
C      1  0.4821380000000  0.4852400000000  0.4563420000000 1.0
C      1  0.5497060000000  0.4913020000000  0.4999390000000 1.0
C      1  0.4748270000000  0.4904150000000  0.5447580000000 1.0
C      1  0.5202370000000  0.5129990000000  0.4562330000000 1.0
C      1  0.4507140000000  0.5091390000000  0.5000480000000 1.0
C      1  0.5255080000000  0.5093260000000  0.5439690000000 1.0
C      1  0.5096730000000  0.4722590000000  0.5789040000000 1.0
C      1  0.4277430000000  0.4712760000000  0.4704050000000 1.0
C      1  0.5569690000000  0.4745940000000  0.4500690000000 1.0
C      1  0.4914810000000  0.5278530000000  0.5787620000000 1.0
C      1  0.5711600000000  0.5280340000000  0.4681750000000 1.0
C      1  0.4450000000000  0.5220330000000  0.4486040000000 1.0
C      1  0.5220850000000  0.4375010000000  0.5163950000000 1.0
C      1  0.4727960000000  0.4366190000000  0.5132240000000 1.0
C      1  0.5005250000000  0.4366380000000  0.4720400000000 1.0
C      1  0.4765430000000  0.5618760000000  0.5167180000000 1.0
C      1  0.5261580000000  0.5634560000000  0.5122560000000 1.0
C      1  0.4977170000000  0.5629320000000  0.4717420000000 1.0
C      1  0.5406950000000  0.4604560000000  0.4763620000000 1.0
C      1  0.4972380000000  0.4579590000000  0.5506750000000 1.0
C      1  0.4588660000000  0.4590540000000  0.4755090000000 1.0
C      1  0.4600600000000  0.5382250000000  0.4744320000000 1.0
C      1  0.5027300000000  0.5415240000000  0.5497340000000 1.0
C      1  0.5409000000000  0.5420510000000  0.4739980000000 1.0
C      1  0.5457210000000  0.5333070000000  0.5440390000000 1.0
C      1  0.4393340000000  0.5320050000000  0.5178120000000 1.0
C      1  0.5189050000000  0.5379240000000  0.4331420000000 1.0
C      1  0.4541540000000  0.4669650000000  0.5454290000000 1.0
C      1  0.5598790000000  0.4670090000000  0.5168960000000 1.0
C      1  0.4829600000000  0.4710280000000  0.4244030000000 1.0
C      1  0.5062740000000  0.5247230000000  0.5203630000000 1.0
C      1  0.4812450000000  0.5241180000000  0.4969900000000 1.0
C      1  0.5138290000000  0.5260400000000  0.4869920000000 1.0
C      1  0.4945970000000  0.4752090000000  0.5214760000000 1.0
C      1  0.5193070000000  0.4759780000000  0.4977770000000 1.0
C      1  0.4864910000000  0.4743110000000  0.4882620000000 1.0
C      1  0.4488880000000  0.4878720000000  0.4497440000000 1.0
C      1  0.5680310000000  0.4947100000000  0.4747550000000 1.0
C      1  0.4847110000000  0.4946160000000  0.5744320000000 1.0
C      1  0.5514900000000  0.5084340000000  0.4487150000000 1.0
C      1  0.4329260000000  0.5047900000000  0.4745430000000 1.0
C      1  0.5163210000000  0.5054770000000  0.5739630000000 1.0
C      1  0.4744480000000  0.5625810000000  0.4887140000000 1.0
C      1  0.5227270000000  0.5648450000000  0.4840930000000 1.0
C      1  0.5028310000000  0.5637500000000  0.5279570000000 1.0
C      1  0.5234830000000  0.4374540000000  0.4881720000000 1.0
C      1  0.4762240000000  0.4358250000000  0.4850680000000 1.0
C      1  0.4962470000000  0.4359610000000  0.5286070000000 1.0
C      1  0.4442130000000  0.4762940000000  0.5000360000000 1.0
C      1  0.5235970000000  0.4806990000000  0.4550560000000 1.0
C      1  0.5257440000000  0.4759780000000  0.5488400000000 1.0
C      1  0.5553820000000  0.5242410000000  0.4984060000000 1.0
C      1  0.4786920000000  0.5189850000000  0.4534840000000 1.0
C      1  0.4739220000000  0.5239220000000  0.5496180000000 1.0
C      1  0.5013610000000  0.4579460000000  0.4498290000000 1.0
C      1  0.5396290000000  0.4553520000000  0.5305330000000 1.0
C      1  0.4521190000000  0.4551040000000  0.5211560000000 1.0
C      1  0.4963300000000  0.5444130000000  0.4502070000000 1.0
C      1  0.4593640000000  0.5442010000000  0.5314460000000 1.0
C      1  0.5471530000000  0.5451720000000  0.5197530000000 1.0
END
