TITL C-1154826-9507-511 -0.00049944703442544 125000 -298.071571578294 0 0 60 (C1) n - 1
REM
REM in /home/nfs/bkarasulu/CARBON/AIRSS/Generating-Clusters/AIREBO/Higher-Symm/Only-C60
REM
REM
REM
REM
REM
REM ./C.cell (28575a23ae977d3b5fae324c64b13b57)
REM
REM compiler GCC version 9.2.1 20190827 (Red Hat 9.2.1-1)
REM options -cpp -mtune=generic -march=x86-64 -g -O0 -fpre-include=/usr/include/finclude/math-vector-fortran.h
REM seed 1270233136 2059223419 530305905 858938321 120929544 -1533607381 -919524058 776582622 1185837288 1995207530 -1074484065 -694327311 -2036021557 796029140 -371083204 -1349914290 1033510034 1097595945 454899216 1405583871 -1872027087 72828605 1371316817 988170026 713690864 389064377 -2022131314 -2059197598 -2140879838 -1791020417 1795744497 678498346 1345900899
REM
CELL 1.54180   50.00000   50.00000   50.00000   90.00000   90.00000   90.00000
LATT -1
SFAC C  
C      1  0.5112030000000  0.4787020000000  0.5528530000000 1.0
C      1  0.5234980000000  0.5119710000000  0.4445810000000 1.0
C      1  0.4897870000000  0.5278070000000  0.5543550000000 1.0
C      1  0.4793360000000  0.4882030000000  0.4432440000000 1.0
C      1  0.5074340000000  0.4505300000000  0.5459050000000 1.0
C      1  0.5508420000000  0.5124240000000  0.4519830000000 1.0
C      1  0.4976330000000  0.5574020000000  0.5522180000000 1.0
C      1  0.4482470000000  0.4905730000000  0.4456730000000 1.0
C      1  0.4803800000000  0.5406500000000  0.5086880000000 1.0
C      1  0.4540260000000  0.4790590000000  0.4909580000000 1.0
C      1  0.5148070000000  0.4556170000000  0.5069320000000 1.0
C      1  0.5501770000000  0.5174480000000  0.4927080000000 1.0
C      1  0.4763400000000  0.4632960000000  0.5407600000000 1.0
C      1  0.5357540000000  0.4756020000000  0.4557590000000 1.0
C      1  0.5264680000000  0.5456950000000  0.5646350000000 1.0
C      1  0.4584610000000  0.5215620000000  0.4474380000000 1.0
C      1  0.4676970000000  0.5066870000000  0.4765890000000 1.0
C      1  0.4920510000000  0.4785660000000  0.5175310000000 1.0
C      1  0.5286850000000  0.4943950000000  0.4799450000000 1.0
C      1  0.5243650000000  0.5333870000000  0.5353940000000 1.0
C      1  0.5389540000000  0.4480090000000  0.4842320000000 1.0
C      1  0.5596240000000  0.5377630000000  0.5182910000000 1.0
C      1  0.4576360000000  0.5445930000000  0.4844290000000 1.0
C      1  0.4455060000000  0.4577610000000  0.5160560000000 1.0
C      1  0.4914710000000  0.4870990000000  0.5734880000000 1.0
C      1  0.5145930000000  0.4908980000000  0.4247970000000 1.0
C      1  0.5060530000000  0.5127500000000  0.5729210000000 1.0
C      1  0.4891150000000  0.5104500000000  0.4246560000000 1.0
C      1  0.5009830000000  0.5631800000000  0.5233470000000 1.0
C      1  0.4305720000000  0.4931470000000  0.4707730000000 1.0
C      1  0.4953140000000  0.4329320000000  0.5231110000000 1.0
C      1  0.5680530000000  0.4973500000000  0.4719070000000 1.0
C      1  0.5098530000000  0.5521600000000  0.4541060000000 1.0
C      1  0.4523230000000  0.5176580000000  0.5449950000000 1.0
C      1  0.4841750000000  0.4444260000000  0.4471650000000 1.0
C      1  0.5516870000000  0.4891650000000  0.5495660000000 1.0
C      1  0.5118870000000  0.4619350000000  0.4387820000000 1.0
C      1  0.5395870000000  0.5143780000000  0.5666740000000 1.0
C      1  0.4839890000000  0.5412150000000  0.4382220000000 1.0
C      1  0.4629410000000  0.4885460000000  0.5590080000000 1.0
C      1  0.5625410000000  0.5285540000000  0.5457490000000 1.0
C      1  0.4652910000000  0.5580300000000  0.4611590000000 1.0
C      1  0.4379880000000  0.4751370000000  0.5401350000000 1.0
C      1  0.5247430000000  0.4373840000000  0.4593380000000 1.0
C      1  0.5342240000000  0.5407060000000  0.4749560000000 1.0
C      1  0.4585580000000  0.5432710000000  0.5346400000000 1.0
C      1  0.4646530000000  0.4535340000000  0.4734820000000 1.0
C      1  0.5396030000000  0.4656820000000  0.5279310000000 1.0
C      1  0.5021890000000  0.5406280000000  0.4847740000000 1.0
C      1  0.4561920000000  0.4960120000000  0.5204120000000 1.0
C      1  0.4995200000000  0.4524930000000  0.4764220000000 1.0
C      1  0.5451350000000  0.4966510000000  0.5174010000000 1.0
C      1  0.4651870000000  0.4363960000000  0.5231640000000 1.0
C      1  0.5610640000000  0.4680880000000  0.4754620000000 1.0
C      1  0.5316610000000  0.5568340000000  0.5150630000000 1.0
C      1  0.4377710000000  0.5222050000000  0.4815980000000 1.0
C      1  0.4984780000000  0.5155860000000  0.4651730000000 1.0
C      1  0.4862570000000  0.5112870000000  0.5248250000000 1.0
C      1  0.4992660000000  0.4831940000000  0.4701830000000 1.0
C      1  0.5181740000000  0.5033380000000  0.5334580000000 1.0
END
