TITL C-1154802-8274-311 0.00113027039236915 125000 -315.198460849084 0 0 60 (C1) n - 1
REM
REM in /home/nfs/bkarasulu/CARBON/AIRSS/Generating-Clusters/AIREBO/Higher-Symm/Only-C60
REM
REM
REM
REM
REM
REM ./C.cell (28575a23ae977d3b5fae324c64b13b57)
REM
REM compiler GCC version 9.2.1 20190827 (Red Hat 9.2.1-1)
REM options -cpp -mtune=generic -march=x86-64 -g -O0 -fpre-include=/usr/include/finclude/math-vector-fortran.h
REM seed -798939374 -321261406 -1817472066 865369155 852925006 -1922476350 1813297353 -1284226325 801166077 1645401886 -691566627 -32464415 593985537 -1949446917 718732744 -1922357882 882850280 -1203405944 -2034408266 -253245400 -315363997 1952977686 -2004811923 1031151935 1135489234 836574337 523033743 1602719277 906675929 1729065817 1658284503 -1670815344 2038686661
REM
CELL 1.54180   50.00000   50.00000   50.00000   90.00000   90.00000   90.00000
LATT -1
SFAC C  
C      1  0.4802080000000  0.4729770000000  0.5623670000000 1.0
C      1  0.5611580000000  0.4726880000000  0.5329910000000 1.0
C      1  0.5505540000000  0.4685840000000  0.4530010000000 1.0
C      1  0.4745530000000  0.4696000000000  0.4342150000000 1.0
C      1  0.4332740000000  0.4752410000000  0.5026220000000 1.0
C      1  0.4837040000000  0.5061240000000  0.5690960000000 1.0
C      1  0.5618610000000  0.5055550000000  0.5357010000000 1.0
C      1  0.5589130000000  0.4988010000000  0.4482980000000 1.0
C      1  0.4741770000000  0.5027180000000  0.4315540000000 1.0
C      1  0.4241860000000  0.5009130000000  0.5026830000000 1.0
C      1  0.5241400000000  0.5633680000000  0.4885400000000 1.0
C      1  0.4979360000000  0.5622850000000  0.4735730000000 1.0
C      1  0.4758550000000  0.5653340000000  0.4941440000000 1.0
C      1  0.4885230000000  0.5677240000000  0.5215240000000 1.0
C      1  0.5186000000000  0.5670040000000  0.5187660000000 1.0
C      1  0.5169890000000  0.4666830000000  0.4497560000000 1.0
C      1  0.4607330000000  0.4647430000000  0.4644370000000 1.0
C      1  0.4513470000000  0.4636900000000  0.5286750000000 1.0
C      1  0.5122170000000  0.4625200000000  0.5556540000000 1.0
C      1  0.5535570000000  0.4651350000000  0.5007060000000 1.0
C      1  0.4500160000000  0.5516090000000  0.4900420000000 1.0
C      1  0.4745400000000  0.5553860000000  0.5434120000000 1.0
C      1  0.5331630000000  0.5515950000000  0.5388720000000 1.0
C      1  0.5486430000000  0.5478020000000  0.4787540000000 1.0
C      1  0.4944850000000  0.5489820000000  0.4437250000000 1.0
C      1  0.4573680000000  0.5235130000000  0.4752350000000 1.0
C      1  0.4565340000000  0.5291480000000  0.5317250000000 1.0
C      1  0.5135880000000  0.5295360000000  0.5537240000000 1.0
C      1  0.5479480000000  0.5308360000000  0.5080900000000 1.0
C      1  0.5181760000000  0.5314770000000  0.4580910000000 1.0
C      1  0.4334180000000  0.5280330000000  0.5068100000000 1.0
C      1  0.4755410000000  0.5334540000000  0.5666500000000 1.0
C      1  0.5615100000000  0.5366390000000  0.5386840000000 1.0
C      1  0.5532030000000  0.5283120000000  0.4560640000000 1.0
C      1  0.4798780000000  0.5302830000000  0.4269150000000 1.0
C      1  0.4617480000000  0.4972940000000  0.4598100000000 1.0
C      1  0.4547080000000  0.4963610000000  0.5288030000000 1.0
C      1  0.5114280000000  0.4957670000000  0.5542420000000 1.0
C      1  0.5556830000000  0.4983410000000  0.5033360000000 1.0
C      1  0.5253090000000  0.4992870000000  0.4525570000000 1.0
C      1  0.5064010000000  0.4798620000000  0.5267930000000 1.0
C      1  0.5257300000000  0.4832950000000  0.5031890000000 1.0
C      1  0.5101330000000  0.4837940000000  0.4775640000000 1.0
C      1  0.4805770000000  0.4827240000000  0.4840980000000 1.0
C      1  0.4780290000000  0.4791990000000  0.5142220000000 1.0
C      1  0.4779660000000  0.4311850000000  0.4773190000000 1.0
C      1  0.4761520000000  0.4396930000000  0.5087580000000 1.0
C      1  0.5036140000000  0.4401880000000  0.5239110000000 1.0
C      1  0.5300090000000  0.4317660000000  0.5053390000000 1.0
C      1  0.5107990000000  0.4399560000000  0.4784990000000 1.0
C      1  0.4743430000000  0.5230460000000  0.5034040000000 1.0
C      1  0.4893790000000  0.5199090000000  0.5318230000000 1.0
C      1  0.5199800000000  0.5178580000000  0.5224340000000 1.0
C      1  0.5192420000000  0.5237680000000  0.4911910000000 1.0
C      1  0.4908090000000  0.5201230000000  0.4749570000000 1.0
C      1  0.4507400000000  0.4489890000000  0.4898840000000 1.0
C      1  0.4758160000000  0.4457560000000  0.5422840000000 1.0
C      1  0.5342570000000  0.4518930000000  0.5328550000000 1.0
C      1  0.5440610000000  0.4461220000000  0.4774630000000 1.0
C      1  0.4925900000000  0.4455290000000  0.4501660000000 1.0
END
