TITL C-1154823-9327-358 0.000736899082548453 125000 -320.268579243245 0 0 60 (C1) n - 1
REM
REM in /home/nfs/bkarasulu/CARBON/AIRSS/Generating-Clusters/AIREBO/Higher-Symm/Only-C60
REM
REM
REM
REM
REM
REM ./C.cell (28575a23ae977d3b5fae324c64b13b57)
REM
REM compiler GCC version 9.2.1 20190827 (Red Hat 9.2.1-1)
REM options -cpp -mtune=generic -march=x86-64 -g -O0 -fpre-include=/usr/include/finclude/math-vector-fortran.h
REM seed -1195052825 -396809535 -1952499709 1201339090 -1325060380 922833135 165941982 720573097 -619267113 -2041917866 -1087810860 1675247619 -155543994 507120896 8225943 -550522931 1190729035 -440965716 -1376749019 1758289610 -161455252 -2018737709 820854181 -295455026 -831410375 -1403106968 978759032 1511370660 -2052438219 63922892 802212651 1041976674 527162120
REM
CELL 1.54180   50.00000   50.00000   50.00000   90.00000   90.00000   90.00000
LATT -1
SFAC C  
C      1  0.5103490000000  0.5791050000000  0.5308070000000 1.0
C      1  0.5099120000000  0.5009890000000  0.5775710000000 1.0
C      1  0.5056480000000  0.4093310000000  0.4750630000000 1.0
C      1  0.5146370000000  0.5161620000000  0.4171080000000 1.0
C      1  0.4984880000000  0.4297710000000  0.4978150000000 1.0
C      1  0.4985830000000  0.4983210000000  0.4379060000000 1.0
C      1  0.4925080000000  0.5779990000000  0.5087810000000 1.0
C      1  0.4831950000000  0.5115130000000  0.5704720000000 1.0
C      1  0.5296320000000  0.5218270000000  0.5696280000000 1.0
C      1  0.5126970000000  0.4401820000000  0.5245370000000 1.0
C      1  0.5025430000000  0.4690000000000  0.4364960000000 1.0
C      1  0.5055840000000  0.5758150000000  0.4833230000000 1.0
C      1  0.5253520000000  0.5406510000000  0.4232240000000 1.0
C      1  0.5281040000000  0.5597720000000  0.5392100000000 1.0
C      1  0.5184290000000  0.4757040000000  0.5689470000000 1.0
C      1  0.5058490000000  0.4238840000000  0.4517150000000 1.0
C      1  0.5036950000000  0.4628590000000  0.5432170000000 1.0
C      1  0.5236120000000  0.4521940000000  0.4559220000000 1.0
C      1  0.5094000000000  0.5439250000000  0.4731420000000 1.0
C      1  0.5176640000000  0.5274230000000  0.5382950000000 1.0
C      1  0.5410950000000  0.4969110000000  0.4779990000000 1.0
C      1  0.5420880000000  0.5263490000000  0.4878460000000 1.0
C      1  0.5433000000000  0.4995990000000  0.5254490000000 1.0
C      1  0.5373320000000  0.4758040000000  0.5018850000000 1.0
C      1  0.5419090000000  0.4637950000000  0.5549450000000 1.0
C      1  0.5524200000000  0.4604110000000  0.4494830000000 1.0
C      1  0.5315040000000  0.5509330000000  0.4482680000000 1.0
C      1  0.5533660000000  0.5443340000000  0.5444070000000 1.0
C      1  0.5572100000000  0.5174030000000  0.5396290000000 1.0
C      1  0.5489800000000  0.4604090000000  0.5287780000000 1.0
C      1  0.5595490000000  0.4834390000000  0.4574090000000 1.0
C      1  0.5501370000000  0.5454430000000  0.4703980000000 1.0
C      1  0.4678760000000  0.5636860000000  0.5127820000000 1.0
C      1  0.4573650000000  0.4993900000000  0.5683440000000 1.0
C      1  0.4688730000000  0.4341130000000  0.4921510000000 1.0
C      1  0.4685800000000  0.5033550000000  0.4396860000000 1.0
C      1  0.4811820000000  0.5489340000000  0.4550230000000 1.0
C      1  0.4870470000000  0.5311060000000  0.5501340000000 1.0
C      1  0.4745250000000  0.4565340000000  0.5506410000000 1.0
C      1  0.4854370000000  0.4460110000000  0.4464710000000 1.0
C      1  0.4532730000000  0.4946660000000  0.5198280000000 1.0
C      1  0.4547990000000  0.4708720000000  0.4952650000000 1.0
C      1  0.4546340000000  0.5113640000000  0.4759770000000 1.0
C      1  0.4555170000000  0.5261750000000  0.5065430000000 1.0
C      1  0.4443670000000  0.4414570000000  0.5087620000000 1.0
C      1  0.4523790000000  0.4830810000000  0.4572170000000 1.0
C      1  0.4440510000000  0.5563240000000  0.4946810000000 1.0
C      1  0.4377410000000  0.5108050000000  0.5454210000000 1.0
C      1  0.4563350000000  0.4758050000000  0.5483360000000 1.0
C      1  0.4634900000000  0.4551530000000  0.4662830000000 1.0
C      1  0.4622720000000  0.5306250000000  0.4504600000000 1.0
C      1  0.4688210000000  0.5419690000000  0.5335600000000 1.0
C      1  0.5119530000000  0.4942830000000  0.5331630000000 1.0
C      1  0.5164630000000  0.4567710000000  0.4876010000000 1.0
C      1  0.5130860000000  0.5111180000000  0.4649700000000 1.0
C      1  0.5161050000000  0.5335090000000  0.5048340000000 1.0
C      1  0.4869610000000  0.4937950000000  0.5152990000000 1.0
C      1  0.4887300000000  0.4699470000000  0.4931640000000 1.0
C      1  0.4852540000000  0.4965900000000  0.4755620000000 1.0
C      1  0.4881100000000  0.5213040000000  0.4981680000000 1.0
END
