TITL C-1154802-8274-526 0.00190094038427759 125000 -319.335292381631 0 0 60 (C1) n - 1
REM
REM in /home/nfs/bkarasulu/CARBON/AIRSS/Generating-Clusters/AIREBO/Higher-Symm/Only-C60
REM
REM
REM
REM
REM
REM ./C.cell (28575a23ae977d3b5fae324c64b13b57)
REM
REM compiler GCC version 9.2.1 20190827 (Red Hat 9.2.1-1)
REM options -cpp -mtune=generic -march=x86-64 -g -O0 -fpre-include=/usr/include/finclude/math-vector-fortran.h
REM seed -1019527591 1780251828 -518825325 413345589 2034404640 -1474008976 -1562090632 725264502 -307130050 -1524594979 353546535 1675417059 -786951198 1618235597 203612604 1216669393 -868770997 -1225616239 -1650822057 -888293887 -1167200062 1007352683 2066079590 1849680794 1998796551 1897614278 1864473063 1784320641 -8636299 798303619 2114953508 -1856002457 454258447
REM
CELL 1.54180   50.00000   50.00000   50.00000   90.00000   90.00000   90.00000
LATT -1
SFAC C  
C      1  0.4822390000000  0.4851680000000  0.5318740000000 1.0
C      1  0.4671840000000  0.4869680000000  0.4706350000000 1.0
C      1  0.4754420000000  0.5193670000000  0.4784420000000 1.0
C      1  0.4818980000000  0.4350060000000  0.4682820000000 1.0
C      1  0.5786730000000  0.5325990000000  0.4025180000000 1.0
C      1  0.5509570000000  0.5728920000000  0.5226100000000 1.0
C      1  0.4611420000000  0.5790540000000  0.5040010000000 1.0
C      1  0.4786340000000  0.4623400000000  0.4882450000000 1.0
C      1  0.5260640000000  0.4658830000000  0.5089480000000 1.0
C      1  0.5176580000000  0.5398060000000  0.5488100000000 1.0
C      1  0.4783880000000  0.5187800000000  0.5100530000000 1.0
C      1  0.5069000000000  0.5924320000000  0.4876440000000 1.0
C      1  0.4597750000000  0.5163170000000  0.5700820000000 1.0
C      1  0.4284820000000  0.5245380000000  0.4559180000000 1.0
C      1  0.5110400000000  0.4947870000000  0.5182560000000 1.0
C      1  0.5447500000000  0.4789370000000  0.5325810000000 1.0
C      1  0.4980880000000  0.5570420000000  0.5235560000000 1.0
C      1  0.4387060000000  0.4563510000000  0.5351190000000 1.0
C      1  0.4432140000000  0.5268090000000  0.4788610000000 1.0
C      1  0.4469220000000  0.4640050000000  0.4590190000000 1.0
C      1  0.4466370000000  0.4912740000000  0.5700190000000 1.0
C      1  0.5096100000000  0.4489710000000  0.4839820000000 1.0
C      1  0.4824240000000  0.4750090000000  0.4191570000000 1.0
C      1  0.4745010000000  0.4582170000000  0.5175810000000 1.0
C      1  0.4516840000000  0.4780800000000  0.5450680000000 1.0
C      1  0.5295190000000  0.4510180000000  0.4589640000000 1.0
C      1  0.5279590000000  0.5650590000000  0.5323860000000 1.0
C      1  0.4869270000000  0.5504630000000  0.4715210000000 1.0
C      1  0.4568080000000  0.4310430000000  0.5281710000000 1.0
C      1  0.4758920000000  0.4156710000000  0.5517410000000 1.0
C      1  0.5255580000000  0.5004340000000  0.4880330000000 1.0
C      1  0.5677720000000  0.5616240000000  0.5046940000000 1.0
C      1  0.5616410000000  0.4390790000000  0.4891190000000 1.0
C      1  0.5091420000000  0.4575750000000  0.5571320000000 1.0
C      1  0.4740690000000  0.5427230000000  0.5691540000000 1.0
C      1  0.5025490000000  0.5229850000000  0.4399190000000 1.0
C      1  0.5672190000000  0.5478800000000  0.4814240000000 1.0
C      1  0.4904890000000  0.5704750000000  0.4942740000000 1.0
C      1  0.4629390000000  0.4424840000000  0.4478580000000 1.0
C      1  0.5011080000000  0.5446090000000  0.5741400000000 1.0
C      1  0.5669170000000  0.5333130000000  0.4539790000000 1.0
C      1  0.4716200000000  0.5147670000000  0.5409190000000 1.0
C      1  0.5545700000000  0.4855940000000  0.4774990000000 1.0
C      1  0.5255200000000  0.5121630000000  0.5426500000000 1.0
C      1  0.4351670000000  0.5397140000000  0.5024840000000 1.0
C      1  0.5587470000000  0.5048200000000  0.5358280000000 1.0
C      1  0.5085040000000  0.4255850000000  0.5086430000000 1.0
C      1  0.5403280000000  0.4362070000000  0.5060940000000 1.0
C      1  0.4786620000000  0.4122460000000  0.5117350000000 1.0
C      1  0.5549800000000  0.4592170000000  0.4694470000000 1.0
C      1  0.4494950000000  0.5582460000000  0.5178480000000 1.0
C      1  0.5739930000000  0.5323990000000  0.4283050000000 1.0
C      1  0.5046470000000  0.5052830000000  0.4681770000000 1.0
C      1  0.4949250000000  0.4388250000000  0.5366310000000 1.0
C      1  0.4967900000000  0.5488340000000  0.4458650000000 1.0
C      1  0.5531100000000  0.5176970000000  0.4794410000000 1.0
C      1  0.4731510000000  0.4492030000000  0.4222140000000 1.0
C      1  0.5228720000000  0.4799960000000  0.5533940000000 1.0
C      1  0.4703830000000  0.5477720000000  0.5364070000000 1.0
C      1  0.4850190000000  0.4943660000000  0.4426480000000 1.0
END
