TITL C-1154826-9507-616 0.000887971199590592 125000 -322.49791859833 0 0 60 (C1) n - 1
REM
REM in /home/nfs/bkarasulu/CARBON/AIRSS/Generating-Clusters/AIREBO/Higher-Symm/Only-C60
REM
REM
REM
REM
REM
REM ./C.cell (28575a23ae977d3b5fae324c64b13b57)
REM
REM compiler GCC version 9.2.1 20190827 (Red Hat 9.2.1-1)
REM options -cpp -mtune=generic -march=x86-64 -g -O0 -fpre-include=/usr/include/finclude/math-vector-fortran.h
REM seed -371508361 -1097145574 -2130346111 1977533551 -1221879082 -143412162 -809029707 -2105855775 -63372959 1666538279 964182595 1084542593 -1343232421 464008760 -838724048 442029698 1330039322 -1091302770 -676990878 -430396607 981619828 1019895897 1568752787 -1897996182 -1115524156 -1188601204 -1766335021 -1100479652 1063549308 -875272103 -36082779 1505736263 -1853358783
REM
CELL 1.54180   50.00000   50.00000   50.00000   90.00000   90.00000   90.00000
LATT -1
SFAC C  
C      1  0.4885700000000  0.5427170000000  0.4813430000000 1.0
C      1  0.5386140000000  0.5375460000000  0.4835780000000 1.0
C      1  0.5491200000000  0.5193370000000  0.5069320000000 1.0
C      1  0.5277690000000  0.4567040000000  0.5081190000000 1.0
C      1  0.5031600000000  0.4534830000000  0.4889730000000 1.0
C      1  0.4727560000000  0.4651990000000  0.4854570000000 1.0
C      1  0.4622590000000  0.4961840000000  0.4835450000000 1.0
C      1  0.4638030000000  0.4551350000000  0.4307970000000 1.0
C      1  0.4338400000000  0.5056610000000  0.4431630000000 1.0
C      1  0.4803710000000  0.5215680000000  0.4109030000000 1.0
C      1  0.4924380000000  0.5691060000000  0.4411760000000 1.0
C      1  0.5424910000000  0.5559880000000  0.4346350000000 1.0
C      1  0.5632310000000  0.5005480000000  0.4423930000000 1.0
C      1  0.5186500000000  0.4525880000000  0.4401850000000 1.0
C      1  0.4972910000000  0.4229120000000  0.4877650000000 1.0
C      1  0.4514110000000  0.4454550000000  0.4973120000000 1.0
C      1  0.4418050000000  0.5064140000000  0.4999790000000 1.0
C      1  0.4620640000000  0.5570180000000  0.4947050000000 1.0
C      1  0.5417180000000  0.5675190000000  0.4926140000000 1.0
C      1  0.5763510000000  0.5088110000000  0.5029690000000 1.0
C      1  0.5602890000000  0.4555320000000  0.4995280000000 1.0
C      1  0.5345410000000  0.5161280000000  0.5299590000000 1.0
C      1  0.5208950000000  0.4658500000000  0.5359830000000 1.0
C      1  0.4995440000000  0.4553150000000  0.5917400000000 1.0
C      1  0.4446970000000  0.4733200000000  0.5696820000000 1.0
C      1  0.4490600000000  0.5203130000000  0.6062500000000 1.0
C      1  0.4674060000000  0.5571070000000  0.5640410000000 1.0
C      1  0.5252770000000  0.5473960000000  0.5799540000000 1.0
C      1  0.4668740000000  0.4872610000000  0.5762840000000 1.0
C      1  0.4649760000000  0.5140980000000  0.5853030000000 1.0
C      1  0.4796430000000  0.5343580000000  0.5719960000000 1.0
C      1  0.5076000000000  0.5309400000000  0.5678230000000 1.0
C      1  0.5166220000000  0.5105380000000  0.5504410000000 1.0
C      1  0.5102410000000  0.4836850000000  0.5543970000000 1.0
C      1  0.4926110000000  0.4750930000000  0.5747120000000 1.0
C      1  0.5356970000000  0.5060340000000  0.4400800000000 1.0
C      1  0.5041840000000  0.4699500000000  0.4613030000000 1.0
C      1  0.4730910000000  0.4739150000000  0.4525730000000 1.0
C      1  0.4607280000000  0.5038220000000  0.4517050000000 1.0
C      1  0.4786890000000  0.5229420000000  0.4371090000000 1.0
C      1  0.4959600000000  0.5429370000000  0.4520480000000 1.0
C      1  0.5271970000000  0.5352970000000  0.4521510000000 1.0
C      1  0.4225610000000  0.4869630000000  0.5067500000000 1.0
C      1  0.4374960000000  0.5616290000000  0.5175790000000 1.0
C      1  0.5179520000000  0.5816310000000  0.4958080000000 1.0
C      1  0.5845190000000  0.5374570000000  0.5026910000000 1.0
C      1  0.5939800000000  0.4543560000000  0.5004980000000 1.0
C      1  0.5231370000000  0.4108260000000  0.4889710000000 1.0
C      1  0.4523880000000  0.4187530000000  0.5185430000000 1.0
C      1  0.4416250000000  0.5327280000000  0.5056330000000 1.0
C      1  0.4929030000000  0.5700590000000  0.4967080000000 1.0
C      1  0.5702920000000  0.5595070000000  0.4942500000000 1.0
C      1  0.5798850000000  0.4825970000000  0.5035260000000 1.0
C      1  0.5416460000000  0.4280270000000  0.4987130000000 1.0
C      1  0.4712170000000  0.4180640000000  0.4936280000000 1.0
C      1  0.4248330000000  0.4606800000000  0.4993790000000 1.0
C      1  0.5253090000000  0.5005990000000  0.4145330000000 1.0
C      1  0.5000140000000  0.5102960000000  0.5053730000000 1.0
C      1  0.5165050000000  0.5143700000000  0.4844740000000 1.0
C      1  0.5188860000000  0.4960850000000  0.4641900000000 1.0
END
