TITL C-1154826-9507-296 -73.3293432674684 125000 -315.518000788731 0 0 60 (C1) n - 1
REM
REM in /home/nfs/bkarasulu/CARBON/AIRSS/Generating-Clusters/AIREBO/Higher-Symm/Only-C60
REM
REM
REM
REM
REM
REM ./C.cell (28575a23ae977d3b5fae324c64b13b57)
REM
REM compiler GCC version 9.2.1 20190827 (Red Hat 9.2.1-1)
REM options -cpp -mtune=generic -march=x86-64 -g -O0 -fpre-include=/usr/include/finclude/math-vector-fortran.h
REM seed -1616179122 743579887 421640160 -1072257086 -1007481124 711887759 843065530 -891789805 -688003238 -724183555 1336984047 362411990 710875406 -1934693353 -34950660 968888419 601747943 -446526884 511203082 424104273 1073741562 467973819 -1323932040 969268463 1255514165 1390190952 -2123285064 1351343228 1453002018 280013245 1833756654 1610120022 998020647
REM
CELL 1.54180   50.00000   50.00000   50.00000   90.00000   90.00000   90.00000
LATT -1
SFAC C  
C      1  0.5201340000000  0.5611050000000  0.5063060000000 1.0
C      1  0.5172650000000  0.5302850000000  0.4527500000000 1.0
C      1  0.5206920000000  0.4637870000000  0.4578110000000 1.0
C      1  0.5229790000000  0.4527740000000  0.5243530000000 1.0
C      1  0.5224520000000  0.5127790000000  0.5516600000000 1.0
C      1  0.4301100000000  0.5371530000000  0.4929080000000 1.0
C      1  0.4323080000000  0.5042550000000  0.4591850000000 1.0
C      1  0.4335940000000  0.4629970000000  0.4817130000000 1.0
C      1  0.4334590000000  0.4705490000000  0.5282410000000 1.0
C      1  0.4323800000000  0.5170040000000  0.5353890000000 1.0
C      1  0.5443920000000  0.4410020000000  0.4643790000000 1.0
C      1  0.5470440000000  0.4601190000000  0.5467730000000 1.0
C      1  0.5538590000000  0.5234310000000  0.5485450000000 1.0
C      1  0.5491780000000  0.5591810000000  0.4962970000000 1.0
C      1  0.5423600000000  0.5152820000000  0.4361550000000 1.0
C      1  0.5425810000000  0.5199550000000  0.5181380000000 1.0
C      1  0.5565260000000  0.5291810000000  0.4906980000000 1.0
C      1  0.5469000000000  0.5074540000000  0.4668960000000 1.0
C      1  0.5439130000000  0.4571780000000  0.4894430000000 1.0
C      1  0.5465040000000  0.4886380000000  0.5307900000000 1.0
C      1  0.4825310000000  0.5663090000000  0.5182760000000 1.0
C      1  0.4772820000000  0.5346270000000  0.4529950000000 1.0
C      1  0.4820970000000  0.4645530000000  0.4479810000000 1.0
C      1  0.4867020000000  0.4367970000000  0.5217690000000 1.0
C      1  0.4865220000000  0.5046700000000  0.5663940000000 1.0
C      1  0.5077860000000  0.4620260000000  0.5533460000000 1.0
C      1  0.5050070000000  0.5410720000000  0.5541490000000 1.0
C      1  0.5007640000000  0.5705370000000  0.4830520000000 1.0
C      1  0.5105610000000  0.5057490000000  0.4297990000000 1.0
C      1  0.5084100000000  0.4394200000000  0.4781480000000 1.0
C      1  0.4859980000000  0.5193600000000  0.5367280000000 1.0
C      1  0.4821850000000  0.5441100000000  0.4936640000000 1.0
C      1  0.4876890000000  0.5035180000000  0.4548610000000 1.0
C      1  0.4877870000000  0.4639870000000  0.4804890000000 1.0
C      1  0.4866870000000  0.4689910000000  0.5282420000000 1.0
C      1  0.4194570000000  0.5367890000000  0.5193510000000 1.0
C      1  0.4193630000000  0.5281620000000  0.4680590000000 1.0
C      1  0.4220340000000  0.4776450000000  0.4601660000000 1.0
C      1  0.4224110000000  0.4551640000000  0.5068290000000 1.0
C      1  0.4218770000000  0.4917060000000  0.5434840000000 1.0
C      1  0.4612880000000  0.4809280000000  0.5184160000000 1.0
C      1  0.4609130000000  0.5117560000000  0.5227640000000 1.0
C      1  0.4592000000000  0.5258970000000  0.4948450000000 1.0
C      1  0.4609310000000  0.5038110000000  0.4724940000000 1.0
C      1  0.4612140000000  0.4762800000000  0.4879760000000 1.0
C      1  0.5826940000000  0.5138410000000  0.5029380000000 1.0
C      1  0.5725300000000  0.4940820000000  0.4815440000000 1.0
C      1  0.5684310000000  0.4692560000000  0.4948010000000 1.0
C      1  0.5806600000000  0.4703470000000  0.5211310000000 1.0
C      1  0.5782410000000  0.5003400000000  0.5281290000000 1.0
C      1  0.5116070000000  0.5298500000000  0.5166410000000 1.0
C      1  0.5089280000000  0.5251760000000  0.4845780000000 1.0
C      1  0.5158240000000  0.4944590000000  0.4716940000000 1.0
C      1  0.5152680000000  0.4732520000000  0.4983020000000 1.0
C      1  0.5128260000000  0.4913620000000  0.5269950000000 1.0
C      1  0.4972030000000  0.5548570000000  0.4582050000000 1.0
C      1  0.5049120000000  0.4752940000000  0.4324570000000 1.0
C      1  0.5101390000000  0.4299280000000  0.5049330000000 1.0
C      1  0.5097980000000  0.4861460000000  0.5681460000000 1.0
C      1  0.5056100000000  0.5638400000000  0.5368010000000 1.0
END
