TITL C-1154802-8274-123 -1.06624533757187e-05 125000 -359.856683377336 0 0 60 (C1) n - 1
REM
REM in /home/nfs/bkarasulu/CARBON/AIRSS/Generating-Clusters/AIREBO/Higher-Symm/Only-C60
REM
REM
REM
REM
REM
REM ./C.cell (28575a23ae977d3b5fae324c64b13b57)
REM
REM compiler GCC version 9.2.1 20190827 (Red Hat 9.2.1-1)
REM options -cpp -mtune=generic -march=x86-64 -g -O0 -fpre-include=/usr/include/finclude/math-vector-fortran.h
REM seed -147056036 1748774057 1897721424 1144468715 1106082238 -1957231261 612596324 1077159024 -591384623 -345438591 864137085 1352535398 -64285890 -1620121599 1451652933 -1969902795 1063496952 -688043505 -1754621564 601856239 -1657258727 1212672108 1404817036 -339713495 1298614428 318623410 183478220 -2024688995 1664518132 1629470383 -466021025 -31326292 -347743472
REM
CELL 1.54180   50.00000   50.00000   50.00000   90.00000   90.00000   90.00000
LATT -1
SFAC C  
C      1  0.4465500000000  0.4685070000000  0.5454440000000 1.0
C      1  0.5516450000000  0.4479430000000  0.4969250000000 1.0
C      1  0.4471660000000  0.4753750000000  0.4514960000000 1.0
C      1  0.5418810000000  0.5303300000000  0.4585720000000 1.0
C      1  0.4619750000000  0.5514530000000  0.5051720000000 1.0
C      1  0.5516250000000  0.5259340000000  0.5500320000000 1.0
C      1  0.5014450000000  0.4443880000000  0.5165630000000 1.0
C      1  0.4977970000000  0.4546780000000  0.4583310000000 1.0
C      1  0.4984930000000  0.5059650000000  0.4364030000000 1.0
C      1  0.5018970000000  0.5546470000000  0.4742070000000 1.0
C      1  0.5060120000000  0.5417750000000  0.5493550000000 1.0
C      1  0.4944500000000  0.4846900000000  0.5587530000000 1.0
C      1  0.5241340000000  0.4949160000000  0.4798950000000 1.0
C      1  0.4801290000000  0.5113120000000  0.4788810000000 1.0
C      1  0.5144260000000  0.5247190000000  0.5142230000000 1.0
C      1  0.4748550000000  0.4960760000000  0.5258120000000 1.0
C      1  0.5223410000000  0.4926740000000  0.5108120000000 1.0
C      1  0.4749270000000  0.4845380000000  0.4950430000000 1.0
C      1  0.4349870000000  0.4741070000000  0.4980400000000 1.0
C      1  0.5635290000000  0.4904290000000  0.4750290000000 1.0
C      1  0.4398850000000  0.5168570000000  0.4779780000000 1.0
C      1  0.5612450000000  0.5303750000000  0.5035630000000 1.0
C      1  0.4385240000000  0.5124070000000  0.5266870000000 1.0
C      1  0.5650340000000  0.4869860000000  0.5228300000000 1.0
C      1  0.4697680000000  0.4384140000000  0.5156700000000 1.0
C      1  0.5300790000000  0.4525580000000  0.4539740000000 1.0
C      1  0.4713640000000  0.5132420000000  0.4338510000000 1.0
C      1  0.5274940000000  0.5641630000000  0.4838130000000 1.0
C      1  0.4761820000000  0.5437640000000  0.5507720000000 1.0
C      1  0.5278510000000  0.4849250000000  0.5603430000000 1.0
C      1  0.4618990000000  0.5165560000000  0.5496770000000 1.0
C      1  0.5390950000000  0.4746440000000  0.5343070000000 1.0
C      1  0.4585970000000  0.4547790000000  0.4926790000000 1.0
C      1  0.5416360000000  0.4812670000000  0.4541270000000 1.0
C      1  0.4610530000000  0.5301070000000  0.4581800000000 1.0
C      1  0.5359640000000  0.5484830000000  0.5089270000000 1.0
C      1  0.4973720000000  0.4619940000000  0.4891650000000 1.0
C      1  0.5023190000000  0.4858730000000  0.4577360000000 1.0
C      1  0.5105430000000  0.5237500000000  0.4700970000000 1.0
C      1  0.4870430000000  0.5306560000000  0.5023900000000 1.0
C      1  0.5006490000000  0.5117520000000  0.5414690000000 1.0
C      1  0.5001150000000  0.4748520000000  0.5266030000000 1.0
C      1  0.4405910000000  0.5282580000000  0.5036740000000 1.0
C      1  0.5663190000000  0.5150170000000  0.5269210000000 1.0
C      1  0.4338120000000  0.4842650000000  0.5241850000000 1.0
C      1  0.5670600000000  0.4734280000000  0.4971340000000 1.0
C      1  0.4341560000000  0.4896360000000  0.4740380000000 1.0
C      1  0.5618530000000  0.5180650000000  0.4785080000000 1.0
C      1  0.4735150000000  0.5556790000000  0.4745360000000 1.0
C      1  0.5327570000000  0.5468830000000  0.5418940000000 1.0
C      1  0.4629470000000  0.4849730000000  0.5622310000000 1.0
C      1  0.5333510000000  0.4476390000000  0.5190940000000 1.0
C      1  0.4650430000000  0.4541050000000  0.4613190000000 1.0
C      1  0.5290300000000  0.5080250000000  0.4383450000000 1.0
C      1  0.5462430000000  0.5620260000000  0.4621230000000 1.0
C      1  0.4644820000000  0.5622960000000  0.5339770000000 1.0
C      1  0.5422570000000  0.5066390000000  0.5692330000000 1.0
C      1  0.4547390000000  0.4418850000000  0.5385080000000 1.0
C      1  0.5443960000000  0.4367700000000  0.4715580000000 1.0
C      1  0.4534740000000  0.4915540000000  0.4288980000000 1.0
END
