TITL C-1154810-7815-638 -0.0011815375397088 125000 -310.553267611215 0 0 60 (C1) n - 1
REM
REM in /home/nfs/bkarasulu/CARBON/AIRSS/Generating-Clusters/AIREBO/Higher-Symm/Only-C60
REM
REM
REM
REM
REM
REM ./C.cell (28575a23ae977d3b5fae324c64b13b57)
REM
REM compiler GCC version 9.2.1 20190827 (Red Hat 9.2.1-1)
REM options -cpp -mtune=generic -march=x86-64 -g -O0 -fpre-include=/usr/include/finclude/math-vector-fortran.h
REM seed 325751792 -894001104 -1432354957 -441954274 1717606102 -1921363434 -220644853 -1149422683 751155148 -1264882252 30939648 -1253769137 -950959222 -78871966 1599036398 -78244899 -46453928 748344647 2002219587 -2075858082 -1580476759 782456456 -2097054403 357781536 794685852 122038350 921943258 142612721 60645534 2090127010 -1769622517 964523176 1431114383
REM
CELL 1.54180   50.00000   50.00000   50.00000   90.00000   90.00000   90.00000
LATT -1
SFAC C  
C      1  0.5364660000000  0.4927520000000  0.4277270000000 1.0
C      1  0.4358140000000  0.5014200000000  0.4490970000000 1.0
C      1  0.4305860000000  0.5177150000000  0.5298980000000 1.0
C      1  0.5108660000000  0.5060190000000  0.5778820000000 1.0
C      1  0.5817750000000  0.5085880000000  0.5082260000000 1.0
C      1  0.4333470000000  0.4658690000000  0.4862800000000 1.0
C      1  0.4645280000000  0.4709740000000  0.5501000000000 1.0
C      1  0.5468190000000  0.4728290000000  0.5562590000000 1.0
C      1  0.5699090000000  0.4683690000000  0.4789250000000 1.0
C      1  0.4898120000000  0.4666820000000  0.4284520000000 1.0
C      1  0.4597300000000  0.5697070000000  0.5054710000000 1.0
C      1  0.4866230000000  0.5453140000000  0.5453740000000 1.0
C      1  0.5299960000000  0.5663430000000  0.5339050000000 1.0
C      1  0.5263710000000  0.5989530000000  0.4943860000000 1.0
C      1  0.4869090000000  0.5828480000000  0.4671860000000 1.0
C      1  0.5373890000000  0.4496910000000  0.5356620000000 1.0
C      1  0.5482170000000  0.4459170000000  0.4744910000000 1.0
C      1  0.4830480000000  0.4449940000000  0.4530830000000 1.0
C      1  0.4441670000000  0.4401940000000  0.4992260000000 1.0
C      1  0.4771950000000  0.4459930000000  0.5391950000000 1.0
C      1  0.5181300000000  0.4623230000000  0.4460500000000 1.0
C      1  0.4409310000000  0.4613700000000  0.4536550000000 1.0
C      1  0.4411760000000  0.4773090000000  0.5372840000000 1.0
C      1  0.5129420000000  0.4710850000000  0.5587720000000 1.0
C      1  0.5776420000000  0.4666170000000  0.5110690000000 1.0
C      1  0.5627360000000  0.4906570000000  0.5299420000000 1.0
C      1  0.5597900000000  0.4895140000000  0.4519140000000 1.0
C      1  0.4641880000000  0.4837340000000  0.4429170000000 1.0
C      1  0.4344710000000  0.4923820000000  0.5075470000000 1.0
C      1  0.4886100000000  0.4945310000000  0.5548700000000 1.0
C      1  0.4832780000000  0.5058810000000  0.4251730000000 1.0
C      1  0.4076450000000  0.5075520000000  0.4909320000000 1.0
C      1  0.4728970000000  0.5235280000000  0.5569000000000 1.0
C      1  0.5602020000000  0.5104090000000  0.5575010000000 1.0
C      1  0.5850040000000  0.5105680000000  0.4560890000000 1.0
C      1  0.4208840000000  0.4918700000000  0.4699780000000 1.0
C      1  0.4452670000000  0.5223790000000  0.5523520000000 1.0
C      1  0.5369750000000  0.5007050000000  0.5730650000000 1.0
C      1  0.5833500000000  0.4983280000000  0.4828440000000 1.0
C      1  0.5102200000000  0.4931270000000  0.4220600000000 1.0
C      1  0.5348960000000  0.4916680000000  0.5141510000000 1.0
C      1  0.5323480000000  0.4813850000000  0.4657990000000 1.0
C      1  0.4775180000000  0.4845400000000  0.4724560000000 1.0
C      1  0.4652070000000  0.4982630000000  0.4982400000000 1.0
C      1  0.4871920000000  0.4973280000000  0.5210990000000 1.0
C      1  0.4943780000000  0.4669290000000  0.5200820000000 1.0
C      1  0.5233030000000  0.4631460000000  0.5144730000000 1.0
C      1  0.5210680000000  0.4557330000000  0.4850730000000 1.0
C      1  0.4901100000000  0.4554360000000  0.4802750000000 1.0
C      1  0.4742740000000  0.4432140000000  0.5056750000000 1.0
C      1  0.4948300000000  0.5102030000000  0.4742480000000 1.0
C      1  0.4834370000000  0.5361860000000  0.4815220000000 1.0
C      1  0.4886410000000  0.5285300000000  0.5091680000000 1.0
C      1  0.5200130000000  0.5201690000000  0.5160060000000 1.0
C      1  0.5219500000000  0.5036830000000  0.4859830000000 1.0
C      1  0.4729240000000  0.5625840000000  0.4807830000000 1.0
C      1  0.4708610000000  0.5625950000000  0.5296420000000 1.0
C      1  0.5137640000000  0.5438070000000  0.5361900000000 1.0
C      1  0.5366480000000  0.5845280000000  0.5149000000000 1.0
C      1  0.5107320000000  0.5950330000000  0.4724980000000 1.0
END
