TITL C-1154821-8623-429 0.00356679876168401 125000 -329.778825888697 0 0 60 (C1) n - 1
REM
REM in /home/nfs/bkarasulu/CARBON/AIRSS/Generating-Clusters/AIREBO/Higher-Symm/Only-C60
REM
REM
REM
REM
REM
REM ./C.cell (28575a23ae977d3b5fae324c64b13b57)
REM
REM compiler GCC version 9.2.1 20190827 (Red Hat 9.2.1-1)
REM options -cpp -mtune=generic -march=x86-64 -g -O0 -fpre-include=/usr/include/finclude/math-vector-fortran.h
REM seed 1292017837 -1104789886 -2089961597 -1526345973 -1664944416 -1939401406 859077761 -1435589467 1384339337 386880614 -46608436 81336025 -821241749 1489983525 1970814067 821787642 -1956668804 -41504148 228188110 388852286 1453647887 -445109853 678334952 -792621921 1060868898 1062364218 1771609552 -1707839399 26358736 -1189060440 -1404554699 1169984951 1731872794
REM
CELL 1.54180   50.00000   50.00000   50.00000   90.00000   90.00000   90.00000
LATT -1
SFAC C  
C      1  0.4805740000000  0.5307140000000  0.5327060000000 1.0
C      1  0.4819370000000  0.4801480000000  0.5309730000000 1.0
C      1  0.4866650000000  0.4625460000000  0.5027810000000 1.0
C      1  0.4791690000000  0.4644360000000  0.4751290000000 1.0
C      1  0.4807060000000  0.4914350000000  0.4639110000000 1.0
C      1  0.4848160000000  0.5178980000000  0.4848720000000 1.0
C      1  0.4768230000000  0.5393270000000  0.5075360000000 1.0
C      1  0.5108940000000  0.4894060000000  0.5379930000000 1.0
C      1  0.5125780000000  0.4786690000000  0.5057190000000 1.0
C      1  0.5276150000000  0.4909140000000  0.4776780000000 1.0
C      1  0.5097210000000  0.5011530000000  0.4587290000000 1.0
C      1  0.5170440000000  0.5271260000000  0.4906960000000 1.0
C      1  0.5185360000000  0.5368000000000  0.5220010000000 1.0
C      1  0.5046580000000  0.5166090000000  0.5387550000000 1.0
C      1  0.5043560000000  0.4727910000000  0.5746480000000 1.0
C      1  0.5175330000000  0.4315810000000  0.5314800000000 1.0
C      1  0.5143040000000  0.4302710000000  0.4636550000000 1.0
C      1  0.5129240000000  0.4851020000000  0.4223480000000 1.0
C      1  0.5122120000000  0.5474540000000  0.4402620000000 1.0
C      1  0.5059460000000  0.5782480000000  0.4985410000000 1.0
C      1  0.5237100000000  0.5568640000000  0.5591150000000 1.0
C      1  0.5366830000000  0.4822640000000  0.4360420000000 1.0
C      1  0.5354380000000  0.5350280000000  0.4478100000000 1.0
C      1  0.5292210000000  0.5649890000000  0.4942480000000 1.0
C      1  0.5478970000000  0.5454350000000  0.5472210000000 1.0
C      1  0.5312180000000  0.4758280000000  0.5731350000000 1.0
C      1  0.5426820000000  0.4422480000000  0.5253900000000 1.0
C      1  0.5389210000000  0.4410620000000  0.4703340000000 1.0
C      1  0.4903810000000  0.4299900000000  0.5255020000000 1.0
C      1  0.4875460000000  0.4374350000000  0.4599830000000 1.0
C      1  0.4853050000000  0.4845360000000  0.4248400000000 1.0
C      1  0.4848410000000  0.5471260000000  0.4429380000000 1.0
C      1  0.4786730000000  0.5838300000000  0.4963590000000 1.0
C      1  0.4956680000000  0.5496530000000  0.5642900000000 1.0
C      1  0.4767900000000  0.4722370000000  0.5770450000000 1.0
C      1  0.4379790000000  0.4921270000000  0.5393730000000 1.0
C      1  0.4402670000000  0.4650680000000  0.5135080000000 1.0
C      1  0.4397860000000  0.4690030000000  0.4799800000000 1.0
C      1  0.4410400000000  0.4952920000000  0.4659540000000 1.0
C      1  0.4443830000000  0.5225810000000  0.4784440000000 1.0
C      1  0.4371200000000  0.5378460000000  0.5061970000000 1.0
C      1  0.4411840000000  0.5257660000000  0.5354110000000 1.0
C      1  0.5543960000000  0.4619510000000  0.4827380000000 1.0
C      1  0.5561150000000  0.4891690000000  0.4631280000000 1.0
C      1  0.5498860000000  0.5223500000000  0.4672580000000 1.0
C      1  0.5489300000000  0.5375380000000  0.4962950000000 1.0
C      1  0.5574170000000  0.5287960000000  0.5258250000000 1.0
C      1  0.5506560000000  0.4867710000000  0.5576740000000 1.0
C      1  0.5541880000000  0.4650150000000  0.5108590000000 1.0
C      1  0.4622750000000  0.4792750000000  0.5541620000000 1.0
C      1  0.4644120000000  0.4457280000000  0.5217430000000 1.0
C      1  0.4546830000000  0.4446980000000  0.4650530000000 1.0
C      1  0.4597960000000  0.4939290000000  0.4395640000000 1.0
C      1  0.4682400000000  0.5370120000000  0.4628960000000 1.0
C      1  0.4597020000000  0.5627750000000  0.5011590000000 1.0
C      1  0.4637980000000  0.5419770000000  0.5550930000000 1.0
C      1  0.4729910000000  0.4995420000000  0.5086970000000 1.0
C      1  0.4449890000000  0.4964490000000  0.5085210000000 1.0
C      1  0.5334040000000  0.5027210000000  0.5078190000000 1.0
C      1  0.5568910000000  0.4946050000000  0.5275270000000 1.0
END
