TITL C-1154803-8277-352 -0.00274588653291486 125000 -374.21533810216 0 0 60 (C1) n - 1
REM
REM in /home/nfs/bkarasulu/CARBON/AIRSS/Generating-Clusters/AIREBO/Higher-Symm/Only-C60
REM
REM
REM
REM
REM
REM ./C.cell (28575a23ae977d3b5fae324c64b13b57)
REM
REM compiler GCC version 9.2.1 20190827 (Red Hat 9.2.1-1)
REM options -cpp -mtune=generic -march=x86-64 -g -O0 -fpre-include=/usr/include/finclude/math-vector-fortran.h
REM seed -1976193589 1008467102 1448015697 934397864 -1102201548 216149923 1706956883 -1155181295 917721470 -156288308 -236001488 1102107445 1748846802 -32525314 -990235851 -1271883997 1397599108 -1416153125 -1384259070 2102195454 -368894344 939305743 -1768625505 -1298767594 1172349761 -911242361 -132574036 254626731 -1424283736 -732803239 -1373783225 -143123522 -288282728
REM
CELL 1.54180   50.00000   50.00000   50.00000   90.00000   90.00000   90.00000
LATT -1
SFAC C  
C      1  0.4811100000000  0.4490250000000  0.5293500000000 1.0
C      1  0.5423300000000  0.4481790000000  0.5284130000000 1.0
C      1  0.5622790000000  0.5234140000000  0.5405080000000 1.0
C      1  0.5282980000000  0.5606550000000  0.5323800000000 1.0
C      1  0.4487310000000  0.5387360000000  0.5238100000000 1.0
C      1  0.4410080000000  0.4914160000000  0.5206220000000 1.0
C      1  0.4747830000000  0.5501900000000  0.5251270000000 1.0
C      1  0.5480850000000  0.5407140000000  0.5233650000000 1.0
C      1  0.5709550000000  0.4954700000000  0.5292980000000 1.0
C      1  0.5123260000000  0.4403950000000  0.5212520000000 1.0
C      1  0.4512010000000  0.4650690000000  0.5300690000000 1.0
C      1  0.4448790000000  0.5138320000000  0.5368240000000 1.0
C      1  0.4318450000000  0.5444630000000  0.5023130000000 1.0
C      1  0.4340900000000  0.4946930000000  0.4935290000000 1.0
C      1  0.4797890000000  0.4316590000000  0.4999620000000 1.0
C      1  0.5584900000000  0.4560890000000  0.5085370000000 1.0
C      1  0.5580090000000  0.5139800000000  0.4848050000000 1.0
C      1  0.5184250000000  0.5547600000000  0.5003420000000 1.0
C      1  0.4481190000000  0.4421930000000  0.5086090000000 1.0
C      1  0.4238070000000  0.5198390000000  0.4852250000000 1.0
C      1  0.4879030000000  0.5549460000000  0.5006060000000 1.0
C      1  0.5398350000000  0.5288170000000  0.4983320000000 1.0
C      1  0.5654090000000  0.4873270000000  0.4991600000000 1.0
C      1  0.5122330000000  0.4296000000000  0.4914810000000 1.0
C      1  0.4509550000000  0.4510360000000  0.4803220000000 1.0
C      1  0.5270320000000  0.4432720000000  0.4722710000000 1.0
C      1  0.5627020000000  0.4788580000000  0.4662700000000 1.0
C      1  0.5584430000000  0.5554100000000  0.4648330000000 1.0
C      1  0.4742390000000  0.5533470000000  0.4760160000000 1.0
C      1  0.4322170000000  0.5297350000000  0.4570990000000 1.0
C      1  0.4456750000000  0.5516950000000  0.4756130000000 1.0
C      1  0.5304920000000  0.5591640000000  0.4702800000000 1.0
C      1  0.5648740000000  0.5274150000000  0.4610980000000 1.0
C      1  0.5515440000000  0.4550690000000  0.4800750000000 1.0
C      1  0.4746620000000  0.4382910000000  0.4674250000000 1.0
C      1  0.4436400000000  0.4773490000000  0.4730850000000 1.0
C      1  0.4531640000000  0.4873010000000  0.4480410000000 1.0
C      1  0.4874460000000  0.4520240000000  0.4471360000000 1.0
C      1  0.5324560000000  0.4681930000000  0.4317080000000 1.0
C      1  0.5510850000000  0.5153070000000  0.4389850000000 1.0
C      1  0.5149410000000  0.5478170000000  0.4494870000000 1.0
C      1  0.4726410000000  0.5303510000000  0.4335500000000 1.0
C      1  0.4507640000000  0.5146720000000  0.4419910000000 1.0
C      1  0.4875340000000  0.5456260000000  0.4521780000000 1.0
C      1  0.5295910000000  0.5320740000000  0.4304860000000 1.0
C      1  0.5499720000000  0.4873980000000  0.4428200000000 1.0
C      1  0.5153660000000  0.4525700000000  0.4480990000000 1.0
C      1  0.4704430000000  0.4700450000000  0.4336420000000 1.0
C      1  0.5136460000000  0.5519730000000  0.5547510000000 1.0
C      1  0.4700670000000  0.5351350000000  0.5703290000000 1.0
C      1  0.4532630000000  0.4870330000000  0.5750870000000 1.0
C      1  0.4851330000000  0.4486330000000  0.5646030000000 1.0
C      1  0.5408830000000  0.4621510000000  0.5551870000000 1.0
C      1  0.5466420000000  0.5166020000000  0.5664820000000 1.0
C      1  0.5123340000000  0.4488950000000  0.5542010000000 1.0
C      1  0.4610680000000  0.4646180000000  0.5602150000000 1.0
C      1  0.4546450000000  0.5124970000000  0.5632800000000 1.0
C      1  0.4862490000000  0.5484450000000  0.5510920000000 1.0
C      1  0.5283860000000  0.5367330000000  0.5738610000000 1.0
C      1  0.5518640000000  0.4878040000000  0.5544850000000 1.0
END
