TITL C-1154830-9999-482 0.00259084352131911 125000 -325.581454891982 0 0 60 (C1) n - 1
REM
REM in /home/nfs/bkarasulu/CARBON/AIRSS/Generating-Clusters/AIREBO/Higher-Symm/Only-C60
REM
REM
REM
REM
REM
REM ./C.cell (28575a23ae977d3b5fae324c64b13b57)
REM
REM compiler GCC version 9.2.1 20190827 (Red Hat 9.2.1-1)
REM options -cpp -mtune=generic -march=x86-64 -g -O0 -fpre-include=/usr/include/finclude/math-vector-fortran.h
REM seed 996839276 -495545016 972485572 68324993 658302656 931627880 -1023691624 -1376266971 1276023490 -1988248702 -1641164200 -119540863 -1548269224 92442147 -2085578001 -2121649999 -781766742 904174935 1694268229 -1786782187 -1501836537 -601581871 1559303903 -978763274 2094741209 680892937 -1750901740 -1939851941 1723328279 1184819860 162801532 -26033302 1361825939
REM
CELL 1.54180   50.00000   50.00000   50.00000   90.00000   90.00000   90.00000
LATT -1
SFAC C  
C      1  0.4732540000000  0.5319320000000  0.5308540000000 1.0
C      1  0.5190120000000  0.4969190000000  0.5480910000000 1.0
C      1  0.4863440000000  0.4732230000000  0.5099840000000 1.0
C      1  0.5276410000000  0.4661520000000  0.4697980000000 1.0
C      1  0.4782980000000  0.5145850000000  0.4471690000000 1.0
C      1  0.5155630000000  0.5264570000000  0.4907270000000 1.0
C      1  0.5446890000000  0.5141100000000  0.5634710000000 1.0
C      1  0.4470020000000  0.4530640000000  0.5390540000000 1.0
C      1  0.5478680000000  0.4427590000000  0.4839400000000 1.0
C      1  0.4576640000000  0.4902760000000  0.4352800000000 1.0
C      1  0.5531990000000  0.5463240000000  0.4608170000000 1.0
C      1  0.4517820000000  0.5536300000000  0.5158680000000 1.0
C      1  0.4385470000000  0.5491920000000  0.4923500000000 1.0
C      1  0.5656350000000  0.5293410000000  0.5507020000000 1.0
C      1  0.4361930000000  0.4694200000000  0.5587720000000 1.0
C      1  0.5620370000000  0.4461090000000  0.5070800000000 1.0
C      1  0.4384920000000  0.4762700000000  0.4501500000000 1.0
C      1  0.5629020000000  0.5290970000000  0.4413210000000 1.0
C      1  0.5474440000000  0.5064940000000  0.4332050000000 1.0
C      1  0.4584740000000  0.5427920000000  0.4727840000000 1.0
C      1  0.5435540000000  0.5408390000000  0.5337770000000 1.0
C      1  0.4510180000000  0.4923370000000  0.5674390000000 1.0
C      1  0.5431550000000  0.4540610000000  0.5270630000000 1.0
C      1  0.4567080000000  0.4612500000000  0.4672520000000 1.0
C      1  0.5054540000000  0.5259510000000  0.5367010000000 1.0
C      1  0.4882480000000  0.4856620000000  0.5389640000000 1.0
C      1  0.5156350000000  0.4677870000000  0.5015730000000 1.0
C      1  0.4957280000000  0.4741140000000  0.4640720000000 1.0
C      1  0.5088480000000  0.5119490000000  0.4620400000000 1.0
C      1  0.4858610000000  0.5308510000000  0.4992860000000 1.0
C      1  0.5244900000000  0.5587870000000  0.5483430000000 1.0
C      1  0.4795490000000  0.4859110000000  0.5779510000000 1.0
C      1  0.5197190000000  0.4361390000000  0.5254810000000 1.0
C      1  0.4747090000000  0.4431050000000  0.4514080000000 1.0
C      1  0.5188500000000  0.5129690000000  0.4233590000000 1.0
C      1  0.4805250000000  0.5621010000000  0.4750470000000 1.0
C      1  0.5105810000000  0.5371700000000  0.4408680000000 1.0
C      1  0.4843930000000  0.5634140000000  0.5089780000000 1.0
C      1  0.5163490000000  0.5315230000000  0.5678340000000 1.0
C      1  0.4887680000000  0.4620670000000  0.5604900000000 1.0
C      1  0.5147780000000  0.4352950000000  0.4915780000000 1.0
C      1  0.4853190000000  0.4718340000000  0.4345030000000 1.0
C      1  0.4971170000000  0.4386110000000  0.5422920000000 1.0
C      1  0.4958930000000  0.4293310000000  0.4638320000000 1.0
C      1  0.4960130000000  0.4969790000000  0.4160850000000 1.0
C      1  0.5034430000000  0.5607510000000  0.4586340000000 1.0
C      1  0.5023980000000  0.5712840000000  0.5367260000000 1.0
C      1  0.5014320000000  0.5069950000000  0.5825770000000 1.0
C      1  0.5286290000000  0.5502200000000  0.4738610000000 1.0
C      1  0.4772020000000  0.5609280000000  0.5481670000000 1.0
C      1  0.5191280000000  0.4811380000000  0.5782230000000 1.0
C      1  0.4719510000000  0.4495750000000  0.5267000000000 1.0
C      1  0.5218160000000  0.4375700000000  0.4523280000000 1.0
C      1  0.4744430000000  0.5179510000000  0.4135440000000 1.0
C      1  0.5304240000000  0.5173410000000  0.5157150000000 1.0
C      1  0.4657870000000  0.5053720000000  0.5451730000000 1.0
C      1  0.5342850000000  0.4844710000000  0.5216710000000 1.0
C      1  0.4732400000000  0.4825280000000  0.4849040000000 1.0
C      1  0.5327360000000  0.4935000000000  0.4553770000000 1.0
C      1  0.4697800000000  0.5121950000000  0.4787670000000 1.0
END
