TITL C-1154802-8274-172 0.00033203251448184 125000 -305.336744142566 0 0 60 (C1) n - 1
REM
REM in /home/nfs/bkarasulu/CARBON/AIRSS/Generating-Clusters/AIREBO/Higher-Symm/Only-C60
REM
REM
REM
REM
REM
REM ./C.cell (28575a23ae977d3b5fae324c64b13b57)
REM
REM compiler GCC version 9.2.1 20190827 (Red Hat 9.2.1-1)
REM options -cpp -mtune=generic -march=x86-64 -g -O0 -fpre-include=/usr/include/finclude/math-vector-fortran.h
REM seed 289745281 342602496 -1943669070 -2105512425 -1056588793 156810267 1119240938 1499401602 1958382473 2139309464 2075516701 -1648580792 -727420149 -751657133 -987861375 -1607971315 -943714775 -1475640618 -1268987638 -652492767 -1913795339 -1780533354 -689897596 -254658189 1827201348 80003388 576029046 -1965251487 1344826918 -577541965 -1841743470 1132905364 124403745
REM
CELL 1.54180   50.00000   50.00000   50.00000   90.00000   90.00000   90.00000
LATT -1
SFAC C  
C      1  0.4910380000000  0.5823540000000  0.5346020000000 1.0
C      1  0.4857950000000  0.5575710000000  0.4751560000000 1.0
C      1  0.4871320000000  0.5262760000000  0.4358670000000 1.0
C      1  0.4869060000000  0.4699380000000  0.4339690000000 1.0
C      1  0.4867470000000  0.4309690000000  0.4690300000000 1.0
C      1  0.4852940000000  0.4437020000000  0.5253400000000 1.0
C      1  0.4922310000000  0.5002650000000  0.5653130000000 1.0
C      1  0.4613330000000  0.5259420000000  0.4804510000000 1.0
C      1  0.4774660000000  0.5031110000000  0.4673340000000 1.0
C      1  0.4672680000000  0.4726210000000  0.4785250000000 1.0
C      1  0.4600050000000  0.4549480000000  0.5066690000000 1.0
C      1  0.4722590000000  0.4798620000000  0.5358050000000 1.0
C      1  0.4635240000000  0.5344080000000  0.5350820000000 1.0
C      1  0.4757000000000  0.5446590000000  0.5049550000000 1.0
C      1  0.4725200000000  0.5771020000000  0.5146190000000 1.0
C      1  0.4741190000000  0.5490960000000  0.4505290000000 1.0
C      1  0.4798090000000  0.4977720000000  0.4356020000000 1.0
C      1  0.4753580000000  0.4532030000000  0.4568690000000 1.0
C      1  0.4752230000000  0.4251400000000  0.4995410000000 1.0
C      1  0.4769080000000  0.4514060000000  0.5538370000000 1.0
C      1  0.4758860000000  0.5212950000000  0.5592820000000 1.0
C      1  0.5611520000000  0.5245900000000  0.4814770000000 1.0
C      1  0.5623460000000  0.4997240000000  0.4691750000000 1.0
C      1  0.5756240000000  0.4760360000000  0.4825330000000 1.0
C      1  0.5759470000000  0.4676010000000  0.5119520000000 1.0
C      1  0.5762300000000  0.4868490000000  0.5363480000000 1.0
C      1  0.5666120000000  0.5139880000000  0.5348270000000 1.0
C      1  0.5631020000000  0.5289970000000  0.5111560000000 1.0
C      1  0.4353850000000  0.5268400000000  0.5241900000000 1.0
C      1  0.4327750000000  0.5341230000000  0.4980860000000 1.0
C      1  0.4294920000000  0.5181790000000  0.4713990000000 1.0
C      1  0.4248590000000  0.4887030000000  0.4748000000000 1.0
C      1  0.4237110000000  0.4700480000000  0.5009250000000 1.0
C      1  0.4403120000000  0.4695660000000  0.5302620000000 1.0
C      1  0.4466770000000  0.5017850000000  0.5404740000000 1.0
C      1  0.5400050000000  0.4942540000000  0.4527580000000 1.0
C      1  0.5430730000000  0.4698980000000  0.4902000000000 1.0
C      1  0.5443530000000  0.4529380000000  0.5175830000000 1.0
C      1  0.5538420000000  0.4664490000000  0.5447200000000 1.0
C      1  0.5459770000000  0.5185670000000  0.5529490000000 1.0
C      1  0.5360520000000  0.5460350000000  0.5033940000000 1.0
C      1  0.5411670000000  0.5465470000000  0.4696980000000 1.0
C      1  0.5059530000000  0.4814090000000  0.5402030000000 1.0
C      1  0.5175650000000  0.5132630000000  0.5375410000000 1.0
C      1  0.5068750000000  0.5364680000000  0.5158410000000 1.0
C      1  0.5124850000000  0.5352660000000  0.4546950000000 1.0
C      1  0.5114720000000  0.5038580000000  0.4674190000000 1.0
C      1  0.5120750000000  0.4725630000000  0.4807510000000 1.0
C      1  0.5116960000000  0.4614030000000  0.5132530000000 1.0
C      1  0.5312380000000  0.4708160000000  0.5596430000000 1.0
C      1  0.5219480000000  0.5080680000000  0.5708640000000 1.0
C      1  0.5075030000000  0.5606810000000  0.5397070000000 1.0
C      1  0.5140080000000  0.5650710000000  0.4709980000000 1.0
C      1  0.5421520000000  0.4857230000000  0.4268790000000 1.0
C      1  0.5127490000000  0.4644440000000  0.4489070000000 1.0
C      1  0.5079920000000  0.4328390000000  0.4946840000000 1.0
C      1  0.4446550000000  0.4960680000000  0.5009820000000 1.0
C      1  0.5041980000000  0.5063300000000  0.5005420000000 1.0
C      1  0.5355080000000  0.4994080000000  0.4988190000000 1.0
C      1  0.4779550000000  0.4905190000000  0.5050530000000 1.0
END
