TITL C-1154810-7815-350 -0.0008569559734722 125000 -297.387342692278 0 0 60 (C1) n - 1
REM
REM in /home/nfs/bkarasulu/CARBON/AIRSS/Generating-Clusters/AIREBO/Higher-Symm/Only-C60
REM
REM
REM
REM
REM
REM ./C.cell (28575a23ae977d3b5fae324c64b13b57)
REM
REM compiler GCC version 9.2.1 20190827 (Red Hat 9.2.1-1)
REM options -cpp -mtune=generic -march=x86-64 -g -O0 -fpre-include=/usr/include/finclude/math-vector-fortran.h
REM seed 646677320 -1849912273 -1767301136 -2032941453 -876371679 1433391659 -1334418141 -1465633620 1187750277 427789055 -218037961 269919786 -1079220863 1142422654 -1996286729 1599494457 -1124968262 830611410 1952281637 1588435398 1851849447 1790083466 -866148878 534346795 683192900 -531194681 -171699061 -1174340435 -1661274965 -10514364 1177203933 -1340602114 1205752004
REM
CELL 1.54180   50.00000   50.00000   50.00000   90.00000   90.00000   90.00000
LATT -1
SFAC C  
C      1  0.5120960000000  0.5418130000000  0.5169950000000 1.0
C      1  0.5112870000000  0.5280490000000  0.4632220000000 1.0
C      1  0.5106390000000  0.4733740000000  0.4624990000000 1.0
C      1  0.5114670000000  0.4563340000000  0.5129710000000 1.0
C      1  0.5132000000000  0.4998600000000  0.5446480000000 1.0
C      1  0.5340460000000  0.5252800000000  0.5550910000000 1.0
C      1  0.5266360000000  0.5589390000000  0.4909370000000 1.0
C      1  0.5275690000000  0.5072320000000  0.4412900000000 1.0
C      1  0.5281060000000  0.4462520000000  0.4744080000000 1.0
C      1  0.5268540000000  0.4606200000000  0.5432420000000 1.0
C      1  0.5003700000000  0.4293630000000  0.4844860000000 1.0
C      1  0.4995560000000  0.4647980000000  0.5630780000000 1.0
C      1  0.4932720000000  0.5478920000000  0.5622050000000 1.0
C      1  0.4986720000000  0.5656740000000  0.4728060000000 1.0
C      1  0.4996030000000  0.4922940000000  0.4290090000000 1.0
C      1  0.4361860000000  0.4751680000000  0.5114750000000 1.0
C      1  0.4371370000000  0.5042400000000  0.5276760000000 1.0
C      1  0.4361250000000  0.5288890000000  0.5056330000000 1.0
C      1  0.4357630000000  0.5152860000000  0.4755100000000 1.0
C      1  0.4353250000000  0.4819500000000  0.4787880000000 1.0
C      1  0.4574670000000  0.5532030000000  0.5189130000000 1.0
C      1  0.4580830000000  0.5349160000000  0.4566820000000 1.0
C      1  0.4571080000000  0.4704310000000  0.4533970000000 1.0
C      1  0.4584240000000  0.4478250000000  0.5141030000000 1.0
C      1  0.4606330000000  0.4989590000000  0.5534040000000 1.0
C      1  0.5385240000000  0.4778490000000  0.4814460000000 1.0
C      1  0.5395790000000  0.4753280000000  0.5153400000000 1.0
C      1  0.5415990000000  0.5070670000000  0.5273820000000 1.0
C      1  0.5397860000000  0.5294460000000  0.5016020000000 1.0
C      1  0.5388760000000  0.5108290000000  0.4731610000000 1.0
C      1  0.4620660000000  0.5421100000000  0.4884120000000 1.0
C      1  0.4603260000000  0.5027580000000  0.4561640000000 1.0
C      1  0.4604790000000  0.4602260000000  0.4839680000000 1.0
C      1  0.4623460000000  0.4740320000000  0.5326450000000 1.0
C      1  0.4638260000000  0.5244150000000  0.5337390000000 1.0
C      1  0.4880390000000  0.5228760000000  0.5119300000000 1.0
C      1  0.4863170000000  0.5202780000000  0.4809050000000 1.0
C      1  0.4855890000000  0.4895470000000  0.4738050000000 1.0
C      1  0.4868140000000  0.4727310000000  0.5011370000000 1.0
C      1  0.4886380000000  0.4942100000000  0.5253230000000 1.0
C      1  0.4800320000000  0.5264470000000  0.5738850000000 1.0
C      1  0.4884820000000  0.5726030000000  0.5034700000000 1.0
C      1  0.4914700000000  0.5246500000000  0.4287160000000 1.0
C      1  0.4922210000000  0.4389880000000  0.4538280000000 1.0
C      1  0.4913480000000  0.4394780000000  0.5431210000000 1.0
C      1  0.5751300000000  0.5028440000000  0.5236520000000 1.0
C      1  0.5735130000000  0.5251740000000  0.5021550000000 1.0
C      1  0.5745060000000  0.5115030000000  0.4745450000000 1.0
C      1  0.5722700000000  0.4812240000000  0.4790250000000 1.0
C      1  0.5745260000000  0.4756050000000  0.5093150000000 1.0
C      1  0.5309470000000  0.4146550000000  0.4809670000000 1.0
C      1  0.5303880000000  0.4561900000000  0.5749600000000 1.0
C      1  0.5215950000000  0.5462940000000  0.5663760000000 1.0
C      1  0.5280840000000  0.5824180000000  0.4686860000000 1.0
C      1  0.5298430000000  0.4912790000000  0.4132330000000 1.0
C      1  0.4868940000000  0.4340320000000  0.5125970000000 1.0
C      1  0.4899980000000  0.4947370000000  0.5666780000000 1.0
C      1  0.4876660000000  0.5565300000000  0.5334220000000 1.0
C      1  0.4868940000000  0.5465560000000  0.4507710000000 1.0
C      1  0.4857660000000  0.4664500000000  0.4411680000000 1.0
END
