TITL C-1154804-8633-383 0.000434808702638891 125000 -312.975715520307 0 0 60 (C1) n - 1
REM
REM in /home/nfs/bkarasulu/CARBON/AIRSS/Generating-Clusters/AIREBO/Higher-Symm/Only-C60
REM
REM
REM
REM
REM
REM ./C.cell (28575a23ae977d3b5fae324c64b13b57)
REM
REM compiler GCC version 9.2.1 20190827 (Red Hat 9.2.1-1)
REM options -cpp -mtune=generic -march=x86-64 -g -O0 -fpre-include=/usr/include/finclude/math-vector-fortran.h
REM seed -1485416977 -1123970436 103708009 -1508356388 1932188657 1237148124 -1835177277 -1930442733 -732439492 1162889694 796854917 337572740 -1856101140 1711994230 -625390392 241661501 -1314944292 1487558125 1685275213 2070842745 -1546750236 -1333843671 1520789347 -1025958863 662027011 -107004754 -534798561 -1554219943 1677865200 -1005241765 1767825298 -274479489 2119965744
REM
CELL 1.54180   50.00000   50.00000   50.00000   90.00000   90.00000   90.00000
LATT -1
SFAC C  
C      1  0.4869920000000  0.4365230000000  0.4294820000000 1.0
C      1  0.5213020000000  0.4772700000000  0.5728940000000 1.0
C      1  0.4888770000000  0.5474280000000  0.4471880000000 1.0
C      1  0.5094680000000  0.5345650000000  0.5609450000000 1.0
C      1  0.4920960000000  0.5136180000000  0.5480590000000 1.0
C      1  0.5053000000000  0.5186860000000  0.4458390000000 1.0
C      1  0.4976710000000  0.4809580000000  0.5528500000000 1.0
C      1  0.4995350000000  0.4858940000000  0.4512680000000 1.0
C      1  0.5277680000000  0.4589410000000  0.4545470000000 1.0
C      1  0.4666890000000  0.4583300000000  0.5425940000000 1.0
C      1  0.5395400000000  0.5424700000000  0.4551110000000 1.0
C      1  0.4617940000000  0.5349830000000  0.5629680000000 1.0
C      1  0.4653120000000  0.5218130000000  0.4668630000000 1.0
C      1  0.5438950000000  0.5167140000000  0.5380380000000 1.0
C      1  0.4687330000000  0.4919310000000  0.4758630000000 1.0
C      1  0.5344200000000  0.4882750000000  0.5283640000000 1.0
C      1  0.5682210000000  0.4834650000000  0.4912270000000 1.0
C      1  0.4344200000000  0.4865580000000  0.5134570000000 1.0
C      1  0.5757710000000  0.5141080000000  0.4888870000000 1.0
C      1  0.4361200000000  0.5158850000000  0.5152200000000 1.0
C      1  0.4833220000000  0.5687180000000  0.4649460000000 1.0
C      1  0.5090110000000  0.5578770000000  0.5458960000000 1.0
C      1  0.4942950000000  0.4524550000000  0.4545280000000 1.0
C      1  0.4980790000000  0.4509320000000  0.5368800000000 1.0
C      1  0.5303180000000  0.4883380000000  0.4393330000000 1.0
C      1  0.4588670000000  0.4774750000000  0.5618970000000 1.0
C      1  0.5368620000000  0.5182550000000  0.4387220000000 1.0
C      1  0.4652260000000  0.5048500000000  0.5647980000000 1.0
C      1  0.4268250000000  0.5333010000000  0.4951640000000 1.0
C      1  0.5681680000000  0.5389610000000  0.5044660000000 1.0
C      1  0.4288860000000  0.4711190000000  0.4904610000000 1.0
C      1  0.5709270000000  0.4616530000000  0.5095390000000 1.0
C      1  0.4795890000000  0.5539860000000  0.5154900000000 1.0
C      1  0.5249180000000  0.5386530000000  0.4842760000000 1.0
C      1  0.4698390000000  0.4548630000000  0.5089110000000 1.0
C      1  0.5238020000000  0.4522320000000  0.4876520000000 1.0
C      1  0.5348710000000  0.4837120000000  0.4844080000000 1.0
C      1  0.4677710000000  0.4880790000000  0.5160680000000 1.0
C      1  0.5454160000000  0.5144370000000  0.4825990000000 1.0
C      1  0.4643140000000  0.5241810000000  0.5217480000000 1.0
C      1  0.5015940000000  0.4865110000000  0.5193660000000 1.0
C      1  0.5010160000000  0.4867880000000  0.4852340000000 1.0
C      1  0.4944850000000  0.5174320000000  0.5143540000000 1.0
C      1  0.4965990000000  0.5201920000000  0.4806340000000 1.0
C      1  0.4736850000000  0.4483340000000  0.4766040000000 1.0
C      1  0.5194280000000  0.4471440000000  0.5192510000000 1.0
C      1  0.4674940000000  0.5624630000000  0.4880430000000 1.0
C      1  0.5136330000000  0.5522460000000  0.5133400000000 1.0
C      1  0.4788970000000  0.4245690000000  0.4084380000000 1.0
C      1  0.5430490000000  0.4786140000000  0.5590410000000 1.0
C      1  0.4680660000000  0.5278130000000  0.4346130000000 1.0
C      1  0.5352940000000  0.5238660000000  0.5638440000000 1.0
C      1  0.4484600000000  0.5429090000000  0.4801900000000 1.0
C      1  0.5440610000000  0.5380820000000  0.5192430000000 1.0
C      1  0.4524590000000  0.4689520000000  0.4751940000000 1.0
C      1  0.5471300000000  0.4589040000000  0.5247730000000 1.0
C      1  0.4634360000000  0.5561880000000  0.5452240000000 1.0
C      1  0.5549830000000  0.5642860000000  0.4494890000000 1.0
C      1  0.4624990000000  0.4269710000000  0.5187370000000 1.0
C      1  0.5284970000000  0.4252430000000  0.4749400000000 1.0
END
