TITL C-1154824-75-244 0.00152609471404619 125000 -324.814555135716 0 0 60 (C1) n - 1
REM
REM in /home/nfs/bkarasulu/CARBON/AIRSS/Generating-Clusters/AIREBO/Higher-Symm/Only-C60
REM
REM
REM
REM
REM
REM ./C.cell (28575a23ae977d3b5fae324c64b13b57)
REM
REM compiler GCC version 9.2.1 20190827 (Red Hat 9.2.1-1)
REM options -cpp -mtune=generic -march=x86-64 -g -O0 -fpre-include=/usr/include/finclude/math-vector-fortran.h
REM seed -668343130 1517231659 -1334354462 519932078 1777099715 272909457 1128693528 1897449620 687541558 -2139825656 233880443 -389175526 -303406595 -2139431990 891544096 -408344501 1133037975 68687364 212315049 -748261838 2059587811 -662069990 1965728023 -2112730808 455398004 -1736604801 1229906537 -1865446371 -2086220951 1304703073 1170405028 1810287970 316974133
REM
CELL 1.54180   50.00000   50.00000   50.00000   90.00000   90.00000   90.00000
LATT -1
SFAC C  
C      1  0.4247120000000  0.4622520000000  0.4882160000000 1.0
C      1  0.4309170000000  0.4593190000000  0.5146780000000 1.0
C      1  0.4346160000000  0.5168720000000  0.5735890000000 1.0
C      1  0.4269560000000  0.5308760000000  0.5479020000000 1.0
C      1  0.4317280000000  0.5213400000000  0.4990750000000 1.0
C      1  0.4294390000000  0.5446650000000  0.4629080000000 1.0
C      1  0.4192100000000  0.4989390000000  0.4358990000000 1.0
C      1  0.4668090000000  0.4908520000000  0.5329970000000 1.0
C      1  0.4577270000000  0.5164230000000  0.5485210000000 1.0
C      1  0.4636170000000  0.5229100000000  0.4952740000000 1.0
C      1  0.4522140000000  0.5240000000000  0.4649140000000 1.0
C      1  0.4424240000000  0.4963390000000  0.4515620000000 1.0
C      1  0.4430960000000  0.4701760000000  0.4690060000000 1.0
C      1  0.4545310000000  0.4644360000000  0.5257460000000 1.0
C      1  0.4833870000000  0.5137520000000  0.4290530000000 1.0
C      1  0.4827220000000  0.4685520000000  0.4456140000000 1.0
C      1  0.4815480000000  0.4420540000000  0.4867550000000 1.0
C      1  0.4819080000000  0.4543430000000  0.5522600000000 1.0
C      1  0.4849940000000  0.5137870000000  0.5769170000000 1.0
C      1  0.4819960000000  0.5581210000000  0.5307260000000 1.0
C      1  0.4719630000000  0.5607860000000  0.4704070000000 1.0
C      1  0.5160700000000  0.5289950000000  0.5579660000000 1.0
C      1  0.5094030000000  0.5531620000000  0.5027090000000 1.0
C      1  0.5080960000000  0.5461680000000  0.4636390000000 1.0
C      1  0.5240790000000  0.4910250000000  0.4342970000000 1.0
C      1  0.5253800000000  0.4540250000000  0.4623570000000 1.0
C      1  0.5128370000000  0.4459290000000  0.5105190000000 1.0
C      1  0.5137890000000  0.4759920000000  0.5609770000000 1.0
C      1  0.5122480000000  0.5224030000000  0.5875870000000 1.0
C      1  0.5084510000000  0.5730710000000  0.5254610000000 1.0
C      1  0.4967050000000  0.5744100000000  0.4575850000000 1.0
C      1  0.5091310000000  0.5090780000000  0.4192820000000 1.0
C      1  0.5106310000000  0.4675800000000  0.4428000000000 1.0
C      1  0.5122320000000  0.4383420000000  0.4813180000000 1.0
C      1  0.5073780000000  0.4462400000000  0.5678550000000 1.0
C      1  0.4769050000000  0.5500440000000  0.4987790000000 1.0
C      1  0.4793160000000  0.5348650000000  0.4494910000000 1.0
C      1  0.4689270000000  0.4909430000000  0.4354220000000 1.0
C      1  0.4679240000000  0.4568220000000  0.4669860000000 1.0
C      1  0.4814100000000  0.4476750000000  0.5205080000000 1.0
C      1  0.4841490000000  0.4876980000000  0.5613350000000 1.0
C      1  0.4837440000000  0.5364550000000  0.5510550000000 1.0
C      1  0.5381690000000  0.5159280000000  0.5408740000000 1.0
C      1  0.5426870000000  0.5354660000000  0.5153760000000 1.0
C      1  0.5314860000000  0.5367440000000  0.4837750000000 1.0
C      1  0.5513850000000  0.5238790000000  0.4643260000000 1.0
C      1  0.5498400000000  0.4965050000000  0.4502970000000 1.0
C      1  0.5474230000000  0.4732920000000  0.4713240000000 1.0
C      1  0.5380800000000  0.4595620000000  0.5232300000000 1.0
C      1  0.5581690000000  0.5564780000000  0.5212850000000 1.0
C      1  0.5732850000000  0.5379710000000  0.4594280000000 1.0
C      1  0.5726110000000  0.4927490000000  0.4335190000000 1.0
C      1  0.5781610000000  0.4665140000000  0.4844050000000 1.0
C      1  0.5595950000000  0.4441860000000  0.5307430000000 1.0
C      1  0.5305790000000  0.4851740000000  0.5403800000000 1.0
C      1  0.5638710000000  0.5173760000000  0.5544540000000 1.0
C      1  0.5042650000000  0.4927220000000  0.5004380000000 1.0
C      1  0.4800530000000  0.5020850000000  0.5081590000000 1.0
C      1  0.5330840000000  0.4827860000000  0.5006410000000 1.0
C      1  0.5667130000000  0.4808820000000  0.5052760000000 1.0
END
