TITL C-1154808-8168-124 0.000410676313820584 125000 -316.978118762871 0 0 60 (C1) n - 1
REM
REM in /home/nfs/bkarasulu/CARBON/AIRSS/Generating-Clusters/AIREBO/Higher-Symm/Only-C60
REM
REM
REM
REM
REM
REM ./C.cell (28575a23ae977d3b5fae324c64b13b57)
REM
REM compiler GCC version 9.2.1 20190827 (Red Hat 9.2.1-1)
REM options -cpp -mtune=generic -march=x86-64 -g -O0 -fpre-include=/usr/include/finclude/math-vector-fortran.h
REM seed -222953939 2089521892 -1365420437 284033248 1347129308 -2014576230 -1130737305 -1233698008 -1208437547 -1995419712 -1156391502 -1830388576 689631892 -722193036 482520703 510090922 -1990648989 -369865156 -1430755188 -1196144764 1022853021 707153421 -1555108693 844139276 416211001 1021478696 -163976569 227646520 620260818 -97379177 -494473788 -87505410 -1320567361
REM
CELL 1.54180   50.00000   50.00000   50.00000   90.00000   90.00000   90.00000
LATT -1
SFAC C  
C      1  0.4416560000000  0.4251360000000  0.5211850000000 1.0
C      1  0.4715840000000  0.4774160000000  0.4430490000000 1.0
C      1  0.4650540000000  0.5500550000000  0.4575150000000 1.0
C      1  0.4613850000000  0.5650500000000  0.5457900000000 1.0
C      1  0.4609560000000  0.4877880000000  0.5463280000000 1.0
C      1  0.5376010000000  0.5510750000000  0.4712840000000 1.0
C      1  0.5466350000000  0.5373310000000  0.5382850000000 1.0
C      1  0.5468930000000  0.4666840000000  0.5682820000000 1.0
C      1  0.5360870000000  0.4434700000000  0.4921040000000 1.0
C      1  0.5381490000000  0.4922230000000  0.4416480000000 1.0
C      1  0.5563600000000  0.5249950000000  0.4825770000000 1.0
C      1  0.5644260000000  0.5230020000000  0.5130990000000 1.0
C      1  0.5629270000000  0.4925290000000  0.5223340000000 1.0
C      1  0.5525440000000  0.4730370000000  0.4973140000000 1.0
C      1  0.5520220000000  0.4953120000000  0.4716230000000 1.0
C      1  0.4809540000000  0.4542930000000  0.4295190000000 1.0
C      1  0.4692860000000  0.5054850000000  0.4389480000000 1.0
C      1  0.4743470000000  0.5814400000000  0.5274290000000 1.0
C      1  0.4641320000000  0.5381520000000  0.5503020000000 1.0
C      1  0.4702510000000  0.4624550000000  0.5400630000000 1.0
C      1  0.5208400000000  0.4467640000000  0.4632170000000 1.0
C      1  0.5189560000000  0.5198580000000  0.4407740000000 1.0
C      1  0.5219710000000  0.5638350000000  0.4979530000000 1.0
C      1  0.5280890000000  0.5118860000000  0.5496850000000 1.0
C      1  0.5322750000000  0.4496530000000  0.5464600000000 1.0
C      1  0.5085120000000  0.4398750000000  0.5116930000000 1.0
C      1  0.5110990000000  0.4851510000000  0.4585080000000 1.0
C      1  0.5043000000000  0.5525170000000  0.4641290000000 1.0
C      1  0.5142880000000  0.5441880000000  0.5313630000000 1.0
C      1  0.5205140000000  0.4809090000000  0.5735390000000 1.0
C      1  0.4147630000000  0.5128590000000  0.4959990000000 1.0
C      1  0.4267330000000  0.4983640000000  0.5189820000000 1.0
C      1  0.4351210000000  0.4729310000000  0.5079460000000 1.0
C      1  0.4394560000000  0.4776620000000  0.4804680000000 1.0
C      1  0.4312870000000  0.5043120000000  0.4732130000000 1.0
C      1  0.4589530000000  0.5205310000000  0.4676550000000 1.0
C      1  0.4625690000000  0.5277310000000  0.5007050000000 1.0
C      1  0.4506400000000  0.5157200000000  0.5306500000000 1.0
C      1  0.4535600000000  0.4499750000000  0.5174260000000 1.0
C      1  0.4681320000000  0.4723670000000  0.4736650000000 1.0
C      1  0.4955020000000  0.5285620000000  0.5532360000000 1.0
C      1  0.4982520000000  0.4470840000000  0.5462260000000 1.0
C      1  0.5027090000000  0.4401040000000  0.4392580000000 1.0
C      1  0.4909220000000  0.5179030000000  0.4269290000000 1.0
C      1  0.4922640000000  0.5736240000000  0.5084860000000 1.0
C      1  0.4860410000000  0.5012860000000  0.4748820000000 1.0
C      1  0.4846250000000  0.5510220000000  0.4893950000000 1.0
C      1  0.4872940000000  0.5267750000000  0.5202080000000 1.0
C      1  0.5050120000000  0.4784590000000  0.5511920000000 1.0
C      1  0.4795510000000  0.4522330000000  0.4983480000000 1.0
C      1  0.5214700000000  0.5299730000000  0.5011180000000 1.0
C      1  0.5125470000000  0.5053410000000  0.5228060000000 1.0
C      1  0.5074910000000  0.4733360000000  0.5176630000000 1.0
C      1  0.5061280000000  0.4685420000000  0.4847930000000 1.0
C      1  0.5108690000000  0.5216250000000  0.4737530000000 1.0
C      1  0.5513060000000  0.5546620000000  0.5101600000000 1.0
C      1  0.5504370000000  0.4904500000000  0.5480970000000 1.0
C      1  0.5450620000000  0.4515720000000  0.5226030000000 1.0
C      1  0.5469420000000  0.4641810000000  0.4587500000000 1.0
C      1  0.5502690000000  0.5292490000000  0.4493940000000 1.0
END
