TITL C-1154824-75-722 -0.000865674646879768 125000 -330.52652842564 0 0 60 (C1) n - 1
REM
REM in /home/nfs/bkarasulu/CARBON/AIRSS/Generating-Clusters/AIREBO/Higher-Symm/Only-C60
REM
REM
REM
REM
REM
REM ./C.cell (28575a23ae977d3b5fae324c64b13b57)
REM
REM compiler GCC version 9.2.1 20190827 (Red Hat 9.2.1-1)
REM options -cpp -mtune=generic -march=x86-64 -g -O0 -fpre-include=/usr/include/finclude/math-vector-fortran.h
REM seed -1491784699 1851620975 -185472602 589461614 -601607054 -646507178 1890365842 -743472705 -1560113178 626069562 1757223043 -2107931319 1007266802 602643881 101930647 1184129060 -1605601794 1736008162 528578222 -1928206272 1300648453 812818419 -1563964678 1048853264 -1297347450 492080096 -637886085 394984688 -582362711 842964975 -2072163825 -1239638451 1064283383
REM
CELL 1.54180   50.00000   50.00000   50.00000   90.00000   90.00000   90.00000
LATT -1
SFAC C  
C      1  0.4878730000000  0.4869130000000  0.4307930000000 1.0
C      1  0.4867450000000  0.4291010000000  0.5175640000000 1.0
C      1  0.4803830000000  0.5140160000000  0.5707840000000 1.0
C      1  0.4805530000000  0.5676690000000  0.4788050000000 1.0
C      1  0.4889340000000  0.5166380000000  0.4295530000000 1.0
C      1  0.4812130000000  0.5698390000000  0.5119530000000 1.0
C      1  0.4816020000000  0.4799660000000  0.5716030000000 1.0
C      1  0.4835650000000  0.4358740000000  0.4884020000000 1.0
C      1  0.5462460000000  0.5139190000000  0.4652850000000 1.0
C      1  0.5523110000000  0.4656390000000  0.4830460000000 1.0
C      1  0.5495050000000  0.4850540000000  0.5314800000000 1.0
C      1  0.5424820000000  0.5330150000000  0.5126780000000 1.0
C      1  0.5456930000000  0.4860000000000  0.4653430000000 1.0
C      1  0.5516550000000  0.5337600000000  0.4841500000000 1.0
C      1  0.5415670000000  0.5133070000000  0.5316040000000 1.0
C      1  0.5463180000000  0.4657040000000  0.5119970000000 1.0
C      1  0.5053880000000  0.5160010000000  0.4659920000000 1.0
C      1  0.5130690000000  0.4671930000000  0.4882130000000 1.0
C      1  0.5098710000000  0.4869670000000  0.5332320000000 1.0
C      1  0.4985680000000  0.5334120000000  0.5125740000000 1.0
C      1  0.5036740000000  0.4851650000000  0.4674610000000 1.0
C      1  0.5121220000000  0.5345540000000  0.4867360000000 1.0
C      1  0.4952550000000  0.5128210000000  0.5338080000000 1.0
C      1  0.4997630000000  0.4667800000000  0.5146500000000 1.0
C      1  0.5011220000000  0.4376170000000  0.4646180000000 1.0
C      1  0.5045370000000  0.4625530000000  0.5639730000000 1.0
C      1  0.4974440000000  0.5613780000000  0.5406600000000 1.0
C      1  0.5028630000000  0.5459170000000  0.4398530000000 1.0
C      1  0.5041750000000  0.5645190000000  0.4618380000000 1.0
C      1  0.4979770000000  0.5415370000000  0.5611820000000 1.0
C      1  0.5030550000000  0.4410670000000  0.5449070000000 1.0
C      1  0.4983110000000  0.4560460000000  0.4411570000000 1.0
C      1  0.4629310000000  0.5076370000000  0.5354640000000 1.0
C      1  0.4543590000000  0.5285430000000  0.4880740000000 1.0
C      1  0.4711740000000  0.4791070000000  0.4593650000000 1.0
C      1  0.4694110000000  0.4645550000000  0.5123430000000 1.0
C      1  0.4539000000000  0.4806010000000  0.5338400000000 1.0
C      1  0.4613590000000  0.4575110000000  0.4838950000000 1.0
C      1  0.4722040000000  0.5122290000000  0.4655570000000 1.0
C      1  0.4666220000000  0.5327350000000  0.5143990000000 1.0
C      1  0.4582860000000  0.5583680000000  0.5342890000000 1.0
C      1  0.4643930000000  0.5356990000000  0.4412640000000 1.0
C      1  0.4360580000000  0.4608580000000  0.4650090000000 1.0
C      1  0.4580170000000  0.4664730000000  0.5597740000000 1.0
C      1  0.4636950000000  0.4425650000000  0.5386250000000 1.0
C      1  0.4411170000000  0.4773180000000  0.4435520000000 1.0
C      1  0.4598750000000  0.5500440000000  0.4684080000000 1.0
C      1  0.4595190000000  0.5346660000000  0.5536030000000 1.0
C      1  0.5241060000000  0.4433210000000  0.5182910000000 1.0
C      1  0.5209010000000  0.5181890000000  0.5554950000000 1.0
C      1  0.5314400000000  0.5607090000000  0.4794020000000 1.0
C      1  0.5248560000000  0.4772750000000  0.4420560000000 1.0
C      1  0.5222730000000  0.5571490000000  0.5181350000000 1.0
C      1  0.5309030000000  0.4796720000000  0.5589160000000 1.0
C      1  0.5308040000000  0.4398670000000  0.4788530000000 1.0
C      1  0.5267770000000  0.5224630000000  0.4407120000000 1.0
C      1  0.5335460000000  0.5837950000000  0.5028470000000 1.0
C      1  0.5336730000000  0.5031640000000  0.5818280000000 1.0
C      1  0.5274860000000  0.4991700000000  0.4181460000000 1.0
C      1  0.5333300000000  0.4163770000000  0.5019630000000 1.0
END
