TITL C-1154825-9328-540 0.0001730962381189 125000 -294.424910308602 0 0 60 (C1) n - 1
REM
REM in /home/nfs/bkarasulu/CARBON/AIRSS/Generating-Clusters/AIREBO/Higher-Symm/Only-C60
REM
REM
REM
REM
REM
REM ./C.cell (28575a23ae977d3b5fae324c64b13b57)
REM
REM compiler GCC version 9.2.1 20190827 (Red Hat 9.2.1-1)
REM options -cpp -mtune=generic -march=x86-64 -g -O0 -fpre-include=/usr/include/finclude/math-vector-fortran.h
REM seed 972277296 -1006555174 -305431394 -1611599175 -743009930 -1336127351 -2080845183 1810041940 1343442007 -2030137398 1734494697 -1512292287 202145484 -1085018937 -1549484603 1088136459 538339542 -547497478 -891341773 -526955162 -1502056468 -1448251172 -944831340 1823107191 2003097730 -774584837 -1683088943 -1331317118 -1526806383 1321255977 -2144575222 -746003729 1553679861
REM
CELL 1.54180   50.00000   50.00000   50.00000   90.00000   90.00000   90.00000
LATT -1
SFAC C  
C      1  0.4197350000000  0.4881520000000  0.5215400000000 1.0
C      1  0.4279260000000  0.4640730000000  0.4988620000000 1.0
C      1  0.4326110000000  0.4777520000000  0.4679310000000 1.0
C      1  0.4255560000000  0.5072670000000  0.4682520000000 1.0
C      1  0.4413320000000  0.5366640000000  0.4838040000000 1.0
C      1  0.4196590000000  0.5348210000000  0.5041630000000 1.0
C      1  0.4214260000000  0.5208480000000  0.5307340000000 1.0
C      1  0.4515960000000  0.4519800000000  0.4794100000000 1.0
C      1  0.4618980000000  0.4773380000000  0.4503520000000 1.0
C      1  0.4481330000000  0.5257230000000  0.4523330000000 1.0
C      1  0.4660550000000  0.5584100000000  0.4923750000000 1.0
C      1  0.4482290000000  0.5347450000000  0.5414680000000 1.0
C      1  0.4366470000000  0.4969880000000  0.5496820000000 1.0
C      1  0.4398490000000  0.4621900000000  0.5306490000000 1.0
C      1  0.5659960000000  0.4963700000000  0.4576730000000 1.0
C      1  0.5724150000000  0.5240630000000  0.4746570000000 1.0
C      1  0.5693870000000  0.5278590000000  0.5083090000000 1.0
C      1  0.5772040000000  0.5092500000000  0.5355750000000 1.0
C      1  0.5827600000000  0.4791950000000  0.5303600000000 1.0
C      1  0.5711530000000  0.4721530000000  0.5001190000000 1.0
C      1  0.5773950000000  0.4736240000000  0.4686010000000 1.0
C      1  0.4592400000000  0.5823220000000  0.4767610000000 1.0
C      1  0.4560560000000  0.5620190000000  0.5243320000000 1.0
C      1  0.4631130000000  0.5243300000000  0.5702110000000 1.0
C      1  0.4308090000000  0.4673580000000  0.5608470000000 1.0
C      1  0.4807160000000  0.4272770000000  0.5152730000000 1.0
C      1  0.4571100000000  0.4436920000000  0.4491700000000 1.0
C      1  0.4525780000000  0.5018960000000  0.4284860000000 1.0
C      1  0.4905490000000  0.4818470000000  0.4786080000000 1.0
C      1  0.4653260000000  0.5036360000000  0.4716440000000 1.0
C      1  0.4795180000000  0.5272280000000  0.4906360000000 1.0
C      1  0.4749060000000  0.5269570000000  0.5231680000000 1.0
C      1  0.4700440000000  0.5014550000000  0.5451290000000 1.0
C      1  0.4665070000000  0.4798600000000  0.5191030000000 1.0
C      1  0.4787330000000  0.4563680000000  0.4977800000000 1.0
C      1  0.5103940000000  0.5041750000000  0.4520640000000 1.0
C      1  0.5129250000000  0.5483700000000  0.4735890000000 1.0
C      1  0.5139250000000  0.5545030000000  0.5193330000000 1.0
C      1  0.5155370000000  0.5162880000000  0.5466520000000 1.0
C      1  0.5189470000000  0.4677310000000  0.5403320000000 1.0
C      1  0.5287940000000  0.4408990000000  0.4943280000000 1.0
C      1  0.5133250000000  0.4494860000000  0.4465520000000 1.0
C      1  0.5490350000000  0.4810770000000  0.5321650000000 1.0
C      1  0.5396300000000  0.4686110000000  0.5029670000000 1.0
C      1  0.5221760000000  0.4884880000000  0.4891890000000 1.0
C      1  0.5375560000000  0.5057390000000  0.4682860000000 1.0
C      1  0.5411220000000  0.5357370000000  0.4811370000000 1.0
C      1  0.5402170000000  0.5402480000000  0.5135160000000 1.0
C      1  0.5439320000000  0.5145210000000  0.5358240000000 1.0
C      1  0.4962680000000  0.5268990000000  0.4617440000000 1.0
C      1  0.4998100000000  0.5612130000000  0.4955950000000 1.0
C      1  0.5003420000000  0.5371070000000  0.5362410000000 1.0
C      1  0.5021210000000  0.4911420000000  0.5498170000000 1.0
C      1  0.5067390000000  0.4499490000000  0.5159860000000 1.0
C      1  0.5241840000000  0.4364930000000  0.4681430000000 1.0
C      1  0.4956850000000  0.4751200000000  0.4471710000000 1.0
C      1  0.4502420000000  0.4971370000000  0.4976870000000 1.0
C      1  0.6167940000000  0.5002610000000  0.4967070000000 1.0
C      1  0.4951030000000  0.4956180000000  0.5093630000000 1.0
C      1  0.5866590000000  0.5013530000000  0.4958560000000 1.0
END
