TITL C-1154802-8274-596 -7.73217230641476 125000 -239.362851363855 0 0 60 (Th) n - 1
REM
REM in /home/nfs/bkarasulu/CARBON/AIRSS/Generating-Clusters/AIREBO/Higher-Symm/Only-C60
REM
REM
REM
REM
REM
REM ./C.cell (28575a23ae977d3b5fae324c64b13b57)
REM
REM compiler GCC version 9.2.1 20190827 (Red Hat 9.2.1-1)
REM options -cpp -mtune=generic -march=x86-64 -g -O0 -fpre-include=/usr/include/finclude/math-vector-fortran.h
REM seed -1004403381 645035823 -2085168422 746854902 1830323922 1331693297 438191084 2044264656 -123440537 -965791179 -1644100605 861400810 479427424 -725602583 1406369955 -853804864 -504714328 2040267437 1200213116 686406583 -734817569 -1817720252 -1522267183 -1339937453 27479599 -1761080594 -2026742435 -338643217 1162334225 -457584232 927239692 -419915942 1565957690
REM
CELL 1.54180   50.00000   50.00000   50.00000   90.00000   90.00000   90.00000
LATT -1
SFAC C  
C      1  0.4448990000000  0.4727460000000  0.4542100000000 1.0
C      1  0.4727150000000  0.4542260000000  0.4449000000000 1.0
C      1  0.4542160000000  0.4449070000000  0.4727280000000 1.0
C      1  0.5551030000000  0.5272600000000  0.4542090000000 1.0
C      1  0.4448980000000  0.5272600000000  0.5458070000000 1.0
C      1  0.5550930000000  0.4727360000000  0.5457980000000 1.0
C      1  0.5272790000000  0.5457700000000  0.4449000000000 1.0
C      1  0.4727320000000  0.5457760000000  0.5551170000000 1.0
C      1  0.5272580000000  0.4542290000000  0.5551160000000 1.0
C      1  0.5457760000000  0.5550950000000  0.4727280000000 1.0
C      1  0.4541950000000  0.5551070000000  0.5273070000000 1.0
C      1  0.5458050000000  0.4448940000000  0.5273060000000 1.0
C      1  0.4448970000000  0.4727410000000  0.5457910000000 1.0
C      1  0.4727210000000  0.4542300000000  0.5551000000000 1.0
C      1  0.4542230000000  0.4449050000000  0.5272720000000 1.0
C      1  0.5551010000000  0.5272540000000  0.5457900000000 1.0
C      1  0.4449080000000  0.5272630000000  0.4542010000000 1.0
C      1  0.5551020000000  0.4727400000000  0.4541930000000 1.0
C      1  0.5272850000000  0.5457740000000  0.5551000000000 1.0
C      1  0.4727420000000  0.5457710000000  0.4448840000000 1.0
C      1  0.5272680000000  0.4542240000000  0.4448840000000 1.0
C      1  0.5457840000000  0.5550930000000  0.5272710000000 1.0
C      1  0.4541950000000  0.5551060000000  0.4726940000000 1.0
C      1  0.5458050000000  0.4448930000000  0.4726940000000 1.0
C      1  0.4831210000000  0.4832800000000  0.4591750000000 1.0
C      1  0.4833050000000  0.4591240000000  0.4831170000000 1.0
C      1  0.4591380000000  0.4831280000000  0.4832900000000 1.0
C      1  0.5168850000000  0.5167120000000  0.4591750000000 1.0
C      1  0.4831180000000  0.5167080000000  0.5408560000000 1.0
C      1  0.5168740000000  0.4833040000000  0.5408690000000 1.0
C      1  0.5166930000000  0.5408670000000  0.4831170000000 1.0
C      1  0.4832720000000  0.5408900000000  0.5168840000000 1.0
C      1  0.5167350000000  0.4591230000000  0.5168810000000 1.0
C      1  0.5408680000000  0.5168730000000  0.4832900000000 1.0
C      1  0.4591120000000  0.5168960000000  0.5167080000000 1.0
C      1  0.5408590000000  0.4831020000000  0.5167100000000 1.0
C      1  0.4831150000000  0.4832880000000  0.5408250000000 1.0
C      1  0.4833070000000  0.4591330000000  0.5168830000000 1.0
C      1  0.4591320000000  0.4831270000000  0.5167100000000 1.0
C      1  0.5168790000000  0.5167200000000  0.5408250000000 1.0
C      1  0.4831260000000  0.5166950000000  0.4591320000000 1.0
C      1  0.5168820000000  0.4832920000000  0.4591430000000 1.0
C      1  0.5166950000000  0.5408750000000  0.5168830000000 1.0
C      1  0.4832650000000  0.5408770000000  0.4831190000000 1.0
C      1  0.5167280000000  0.4591100000000  0.4831160000000 1.0
C      1  0.5408610000000  0.5168720000000  0.5167100000000 1.0
C      1  0.4591410000000  0.5168980000000  0.4832900000000 1.0
C      1  0.5408880000000  0.4831040000000  0.4832920000000 1.0
C      1  0.5542540000000  0.4347230000000  0.5000000000000 1.0
C      1  0.4457470000000  0.5652760000000  0.5000000000000 1.0
C      1  0.5000140000000  0.5542670000000  0.4347070000000 1.0
C      1  0.4347120000000  0.4999990000000  0.5543110000000 1.0
C      1  0.4999890000000  0.4457380000000  0.4347100000000 1.0
C      1  0.4999860000000  0.4457340000000  0.5652930000000 1.0
C      1  0.5000110000000  0.5542620000000  0.5652900000000 1.0
C      1  0.5542720000000  0.5652780000000  0.4999980000000 1.0
C      1  0.4457280000000  0.4347230000000  0.5000020000000 1.0
C      1  0.5652830000000  0.4999930000000  0.5543060000000 1.0
C      1  0.4347170000000  0.5000070000000  0.4456930000000 1.0
C      1  0.5652880000000  0.5000010000000  0.4456910000000 1.0
END
