TITL C-1154802-8274-34 0.000102667964372944 125000 -325.413048613207 0 0 60 (C1) n - 1
REM
REM in /home/nfs/bkarasulu/CARBON/AIRSS/Generating-Clusters/AIREBO/Higher-Symm/Only-C60
REM
REM
REM
REM
REM
REM ./C.cell (28575a23ae977d3b5fae324c64b13b57)
REM
REM compiler GCC version 9.2.1 20190827 (Red Hat 9.2.1-1)
REM options -cpp -mtune=generic -march=x86-64 -g -O0 -fpre-include=/usr/include/finclude/math-vector-fortran.h
REM seed -657178189 -1571813414 -990391144 2018917794 1978326484 1557995545 -2100489956 -276082750 -1647260463 -1783697879 1710542003 216146037 -2044660564 913292408 -1057964048 1962090277 696773049 -302473663 -1288951968 -1037732973 -142224545 310064465 864443978 1336384550 542363158 -1094027175 -1107530678 1143781378 -440023773 -374127642 -686741700 -1822357377 2050028508
REM
CELL 1.54180   50.00000   50.00000   50.00000   90.00000   90.00000   90.00000
LATT -1
SFAC C  
C      1  0.4989840000000  0.4921570000000  0.4593050000000 1.0
C      1  0.4414540000000  0.4886420000000  0.5180030000000 1.0
C      1  0.5087080000000  0.5035760000000  0.5513030000000 1.0
C      1  0.5378350000000  0.5126180000000  0.4976710000000 1.0
C      1  0.4354930000000  0.5387860000000  0.5295650000000 1.0
C      1  0.5346080000000  0.4598620000000  0.5547480000000 1.0
C      1  0.5681630000000  0.5371990000000  0.4611480000000 1.0
C      1  0.4643870000000  0.4664230000000  0.4339980000000 1.0
C      1  0.5411440000000  0.5617950000000  0.5139080000000 1.0
C      1  0.5156530000000  0.4434760000000  0.4637520000000 1.0
C      1  0.4696990000000  0.5387480000000  0.4893380000000 1.0
C      1  0.4784060000000  0.4494730000000  0.5372440000000 1.0
C      1  0.4403350000000  0.4665250000000  0.4938340000000 1.0
C      1  0.4803510000000  0.5142800000000  0.5358760000000 1.0
C      1  0.5163130000000  0.4954090000000  0.5129480000000 1.0
C      1  0.5056530000000  0.5269620000000  0.4529720000000 1.0
C      1  0.4797290000000  0.4383030000000  0.5658560000000 1.0
C      1  0.5682300000000  0.5607240000000  0.5211610000000 1.0
C      1  0.5244220000000  0.4395990000000  0.4374130000000 1.0
C      1  0.4509770000000  0.5491750000000  0.4724250000000 1.0
C      1  0.5258480000000  0.5357880000000  0.5194790000000 1.0
C      1  0.5198100000000  0.4723610000000  0.4743410000000 1.0
C      1  0.4656020000000  0.5091760000000  0.5056510000000 1.0
C      1  0.4963860000000  0.4777870000000  0.5341370000000 1.0
C      1  0.5433260000000  0.5387980000000  0.4492330000000 1.0
C      1  0.4539970000000  0.4660390000000  0.4597370000000 1.0
C      1  0.4622030000000  0.5429730000000  0.5338840000000 1.0
C      1  0.5411660000000  0.4692510000000  0.5298800000000 1.0
C      1  0.4910940000000  0.4462430000000  0.5089690000000 1.0
C      1  0.5252690000000  0.5714980000000  0.4922460000000 1.0
C      1  0.4950390000000  0.4319880000000  0.4786490000000 1.0
C      1  0.4972310000000  0.5533240000000  0.4899990000000 1.0
C      1  0.4763490000000  0.5240970000000  0.4528070000000 1.0
C      1  0.4170080000000  0.4788280000000  0.5346010000000 1.0
C      1  0.5474040000000  0.5316680000000  0.5661640000000 1.0
C      1  0.5696430000000  0.4826510000000  0.4654480000000 1.0
C      1  0.4628810000000  0.4784120000000  0.5380460000000 1.0
C      1  0.5343980000000  0.5165900000000  0.5429370000000 1.0
C      1  0.5417180000000  0.4944790000000  0.4691770000000 1.0
C      1  0.4695480000000  0.5023550000000  0.4729580000000 1.0
C      1  0.5687320000000  0.5226700000000  0.4876340000000 1.0
C      1  0.4922630000000  0.4782670000000  0.4302190000000 1.0
C      1  0.4256030000000  0.5178680000000  0.5125880000000 1.0
C      1  0.5133900000000  0.4760250000000  0.5702880000000 1.0
C      1  0.4664730000000  0.4984200000000  0.5625640000000 1.0
C      1  0.5527150000000  0.4951360000000  0.5303940000000 1.0
C      1  0.5314230000000  0.5095930000000  0.4437920000000 1.0
C      1  0.4382670000000  0.4929280000000  0.4733610000000 1.0
C      1  0.5190960000000  0.4628190000000  0.5052360000000 1.0
C      1  0.5189170000000  0.5544870000000  0.4640590000000 1.0
C      1  0.4665120000000  0.4477510000000  0.4855580000000 1.0
C      1  0.4941250000000  0.5414310000000  0.5207280000000 1.0
C      1  0.5174980000000  0.4599350000000  0.4195850000000 1.0
C      1  0.4252400000000  0.5396300000000  0.4703150000000 1.0
C      1  0.4900450000000  0.4565180000000  0.5834350000000 1.0
C      1  0.5819990000000  0.5373220000000  0.5139660000000 1.0
C      1  0.5733420000000  0.5062930000000  0.5166370000000 1.0
C      1  0.5226300000000  0.4914520000000  0.4222820000000 1.0
C      1  0.4216760000000  0.5156180000000  0.4843450000000 1.0
C      1  0.4835900000000  0.4878040000000  0.5822050000000 1.0
END
