TITL C-1154802-8274-386 0.00139725961774215 125000 -328.110203399291 0 0 60 (C1) n - 1
REM
REM in /home/nfs/bkarasulu/CARBON/AIRSS/Generating-Clusters/AIREBO/Higher-Symm/Only-C60
REM
REM
REM
REM
REM
REM ./C.cell (28575a23ae977d3b5fae324c64b13b57)
REM
REM compiler GCC version 9.2.1 20190827 (Red Hat 9.2.1-1)
REM options -cpp -mtune=generic -march=x86-64 -g -O0 -fpre-include=/usr/include/finclude/math-vector-fortran.h
REM seed 85062831 -251133792 255669563 1762559207 107068760 -1656772823 -531095487 1664964127 463018209 1805236807 301272474 981249743 -735351134 -1921303194 -1856934899 -471355314 610318379 677207342 1720018239 -496144141 -1962010395 -1465383345 877388144 2098111210 1675475034 -1645748557 1311275300 1234140535 -37441281 -1917416435 94317243 385321661 -1546257333
REM
CELL 1.54180   50.00000   50.00000   50.00000   90.00000   90.00000   90.00000
LATT -1
SFAC C  
C      1  0.4539880000000  0.5145060000000  0.5624530000000 1.0
C      1  0.4561330000000  0.4897090000000  0.5651810000000 1.0
C      1  0.4428260000000  0.4610580000000  0.5100930000000 1.0
C      1  0.4425030000000  0.5512340000000  0.4959330000000 1.0
C      1  0.5679140000000  0.4729140000000  0.4739840000000 1.0
C      1  0.5667330000000  0.5194980000000  0.4703920000000 1.0
C      1  0.5357120000000  0.5144870000000  0.4544170000000 1.0
C      1  0.5391630000000  0.4832770000000  0.4604050000000 1.0
C      1  0.5464470000000  0.5417860000000  0.4677700000000 1.0
C      1  0.5448430000000  0.4508460000000  0.4640700000000 1.0
C      1  0.5046590000000  0.5243760000000  0.4650430000000 1.0
C      1  0.5077270000000  0.4909430000000  0.4704580000000 1.0
C      1  0.4612930000000  0.5351210000000  0.5386500000000 1.0
C      1  0.4635450000000  0.4664930000000  0.5436610000000 1.0
C      1  0.5062890000000  0.4878110000000  0.5514840000000 1.0
C      1  0.5054970000000  0.5146440000000  0.5512850000000 1.0
C      1  0.4670170000000  0.4838140000000  0.4879600000000 1.0
C      1  0.4624560000000  0.5126170000000  0.4959160000000 1.0
C      1  0.5299940000000  0.4757470000000  0.5634960000000 1.0
C      1  0.5287950000000  0.5277690000000  0.5634010000000 1.0
C      1  0.4863960000000  0.4654770000000  0.4269860000000 1.0
C      1  0.5048050000000  0.5579030000000  0.4707890000000 1.0
C      1  0.4868250000000  0.4001600000000  0.5109750000000 1.0
C      1  0.4886560000000  0.5754600000000  0.4839940000000 1.0
C      1  0.4419810000000  0.5261150000000  0.4754040000000 1.0
C      1  0.4358300000000  0.4684460000000  0.4500900000000 1.0
C      1  0.5649470000000  0.4674550000000  0.5211010000000 1.0
C      1  0.5622320000000  0.5308560000000  0.5175390000000 1.0
C      1  0.5730790000000  0.4839250000000  0.4997970000000 1.0
C      1  0.5720250000000  0.5124040000000  0.4979950000000 1.0
C      1  0.4928550000000  0.5238530000000  0.4969430000000 1.0
C      1  0.4944900000000  0.4778950000000  0.4989470000000 1.0
C      1  0.4842990000000  0.4253350000000  0.5212580000000 1.0
C      1  0.4832120000000  0.5701290000000  0.5113070000000 1.0
C      1  0.5067470000000  0.4724440000000  0.4433530000000 1.0
C      1  0.5051690000000  0.5352720000000  0.4328180000000 1.0
C      1  0.4767700000000  0.5274500000000  0.4429960000000 1.0
C      1  0.4597920000000  0.4712640000000  0.4295520000000 1.0
C      1  0.4257410000000  0.4998550000000  0.4865660000000 1.0
C      1  0.4393710000000  0.4703450000000  0.4795860000000 1.0
C      1  0.5372340000000  0.5767420000000  0.5293910000000 1.0
C      1  0.5374570000000  0.4252550000000  0.5327630000000 1.0
C      1  0.4406730000000  0.4849900000000  0.5286490000000 1.0
C      1  0.4492020000000  0.5106410000000  0.5229450000000 1.0
C      1  0.4594910000000  0.5571410000000  0.5165980000000 1.0
C      1  0.4616180000000  0.4407640000000  0.5222580000000 1.0
C      1  0.5538640000000  0.5626100000000  0.5106940000000 1.0
C      1  0.5550760000000  0.4374900000000  0.5140400000000 1.0
C      1  0.4933220000000  0.4693380000000  0.5311440000000 1.0
C      1  0.4926300000000  0.5323220000000  0.5299030000000 1.0
C      1  0.5083670000000  0.5619250000000  0.5292100000000 1.0
C      1  0.5089040000000  0.4403520000000  0.5319560000000 1.0
C      1  0.5322540000000  0.5372210000000  0.5323180000000 1.0
C      1  0.5330450000000  0.4649670000000  0.5326560000000 1.0
C      1  0.5262380000000  0.4831780000000  0.5049270000000 1.0
C      1  0.5245690000000  0.5171000000000  0.5072220000000 1.0
C      1  0.4513420000000  0.5204200000000  0.4476110000000 1.0
C      1  0.4413950000000  0.4971660000000  0.4352360000000 1.0
C      1  0.5392330000000  0.4537370000000  0.4939550000000 1.0
C      1  0.5353260000000  0.5459510000000  0.4924740000000 1.0
END
