TITL C-1154827-9204-159 -0.00173441879585734 125000 -338.339601051509 0 0 60 (C1) n - 1
REM
REM in /home/nfs/bkarasulu/CARBON/AIRSS/Generating-Clusters/AIREBO/Higher-Symm/Only-C60
REM
REM
REM
REM
REM
REM ./C.cell (28575a23ae977d3b5fae324c64b13b57)
REM
REM compiler GCC version 9.2.1 20190827 (Red Hat 9.2.1-1)
REM options -cpp -mtune=generic -march=x86-64 -g -O0 -fpre-include=/usr/include/finclude/math-vector-fortran.h
REM seed 225045413 627711789 2087752726 -1489429972 269338820 -404240469 683391993 1522057620 -1721382231 1350029335 -6669788 1381058051 -824112262 -546175932 -387739878 176324354 -1031081321 -1183317657 1311054493 -1609536805 -433525025 278107034 755968287 -1500808078 -218864179 1183750216 -1134662312 2124746126 -898540564 -290540559 1350119729 -2022897284 115873302
REM
CELL 1.54180   50.00000   50.00000   50.00000   90.00000   90.00000   90.00000
LATT -1
SFAC C  
C      1  0.4656210000000  0.4885680000000  0.5009740000000 1.0
C      1  0.5259650000000  0.5156480000000  0.4904250000000 1.0
C      1  0.5233280000000  0.4826550000000  0.4908390000000 1.0
C      1  0.4636990000000  0.5145220000000  0.4843060000000 1.0
C      1  0.4454850000000  0.5446470000000  0.5024280000000 1.0
C      1  0.5398080000000  0.4388220000000  0.5099530000000 1.0
C      1  0.5434510000000  0.5564620000000  0.5146520000000 1.0
C      1  0.4608760000000  0.4458020000000  0.5089240000000 1.0
C      1  0.5140010000000  0.4917040000000  0.5196550000000 1.0
C      1  0.4874150000000  0.5117420000000  0.5409950000000 1.0
C      1  0.4837060000000  0.4837880000000  0.5237330000000 1.0
C      1  0.5044730000000  0.5244920000000  0.5152730000000 1.0
C      1  0.4342150000000  0.5263140000000  0.4771750000000 1.0
C      1  0.5487030000000  0.4662400000000  0.4919120000000 1.0
C      1  0.5558080000000  0.5223390000000  0.4983050000000 1.0
C      1  0.4403580000000  0.4715820000000  0.5005230000000 1.0
C      1  0.4301950000000  0.4752840000000  0.4727990000000 1.0
C      1  0.5781520000000  0.5102480000000  0.4782330000000 1.0
C      1  0.5792590000000  0.4853150000000  0.4726390000000 1.0
C      1  0.4171230000000  0.5000580000000  0.4708850000000 1.0
C      1  0.4525980000000  0.5346220000000  0.4519260000000 1.0
C      1  0.5554260000000  0.4650020000000  0.4594300000000 1.0
C      1  0.5501950000000  0.5330450000000  0.4665260000000 1.0
C      1  0.4493000000000  0.4702490000000  0.4523450000000 1.0
C      1  0.4800050000000  0.4382310000000  0.4867880000000 1.0
C      1  0.5227440000000  0.5588830000000  0.4961750000000 1.0
C      1  0.5135200000000  0.4435220000000  0.4890500000000 1.0
C      1  0.4706440000000  0.5553440000000  0.4919130000000 1.0
C      1  0.5390330000000  0.4711040000000  0.5504170000000 1.0
C      1  0.4577360000000  0.5161780000000  0.5502870000000 1.0
C      1  0.4646900000000  0.4839050000000  0.5584340000000 1.0
C      1  0.5465670000000  0.5045390000000  0.5534990000000 1.0
C      1  0.5587680000000  0.4906280000000  0.4387930000000 1.0
C      1  0.4499430000000  0.5163550000000  0.4306070000000 1.0
C      1  0.4484580000000  0.4886790000000  0.4307660000000 1.0
C      1  0.5587710000000  0.5155770000000  0.4436870000000 1.0
C      1  0.4756810000000  0.5470410000000  0.4638620000000 1.0
C      1  0.5242300000000  0.4561760000000  0.4611020000000 1.0
C      1  0.5251510000000  0.5492770000000  0.4690150000000 1.0
C      1  0.4769370000000  0.4595940000000  0.4604980000000 1.0
C      1  0.5719100000000  0.4997460000000  0.5313290000000 1.0
C      1  0.4310880000000  0.4867230000000  0.5538810000000 1.0
C      1  0.4239040000000  0.5158830000000  0.5477520000000 1.0
C      1  0.5705100000000  0.4759980000000  0.5164840000000 1.0
C      1  0.5536040000000  0.4566210000000  0.5303910000000 1.0
C      1  0.4408560000000  0.5347130000000  0.5272950000000 1.0
C      1  0.4488640000000  0.4667200000000  0.5330810000000 1.0
C      1  0.5549200000000  0.5284480000000  0.5301470000000 1.0
C      1  0.5044240000000  0.4749480000000  0.4475450000000 1.0
C      1  0.5021960000000  0.5374370000000  0.4554100000000 1.0
C      1  0.4993950000000  0.5562110000000  0.5420370000000 1.0
C      1  0.5118590000000  0.4648310000000  0.5491800000000 1.0
C      1  0.4951130000000  0.5546780000000  0.5099810000000 1.0
C      1  0.5057330000000  0.4585870000000  0.5177520000000 1.0
C      1  0.5059200000000  0.5410790000000  0.5607390000000 1.0
C      1  0.4944550000000  0.4812980000000  0.5655080000000 1.0
C      1  0.4941870000000  0.5080900000000  0.4809830000000 1.0
C      1  0.4911170000000  0.4762420000000  0.4850470000000 1.0
C      1  0.5034680000000  0.5037700000000  0.4507170000000 1.0
C      1  0.5139070000000  0.5091060000000  0.5621570000000 1.0
END
