TITL C-1154826-9507-369 -0.000723821424555178 125000 -329.905408223419 0 0 60 (C1) n - 1
REM
REM in /home/nfs/bkarasulu/CARBON/AIRSS/Generating-Clusters/AIREBO/Higher-Symm/Only-C60
REM
REM
REM
REM
REM
REM ./C.cell (28575a23ae977d3b5fae324c64b13b57)
REM
REM compiler GCC version 9.2.1 20190827 (Red Hat 9.2.1-1)
REM options -cpp -mtune=generic -march=x86-64 -g -O0 -fpre-include=/usr/include/finclude/math-vector-fortran.h
REM seed 1394420842 -1315865759 -836188793 -1149164634 -459193624 1683024060 -141789691 -876358792 -781516034 -424112204 -913504513 1974967918 1650212516 1766818386 456081291 -1780130296 -1987682641 -798226904 -686731099 1686502058 -1796963150 1812010087 1751782186 -115014304 -139807806 -764800973 -1667357629 28380509 -910059127 2042653831 -421752577 554293117 -1836328835
REM
CELL 1.54180   50.00000   50.00000   50.00000   90.00000   90.00000   90.00000
LATT -1
SFAC C  
C      1  0.4942310000000  0.4345880000000  0.4765770000000 1.0
C      1  0.4820360000000  0.4945930000000  0.4240800000000 1.0
C      1  0.4766220000000  0.4944550000000  0.5110280000000 1.0
C      1  0.5516000000000  0.5477040000000  0.5154020000000 1.0
C      1  0.5582810000000  0.4908900000000  0.4820920000000 1.0
C      1  0.4416170000000  0.4733390000000  0.4826740000000 1.0
C      1  0.4489070000000  0.4810840000000  0.5149750000000 1.0
C      1  0.4999110000000  0.4654510000000  0.5475150000000 1.0
C      1  0.4527530000000  0.4424000000000  0.4913300000000 1.0
C      1  0.4513380000000  0.5419860000000  0.5067840000000 1.0
C      1  0.4684120000000  0.4554350000000  0.5385770000000 1.0
C      1  0.5307730000000  0.5150690000000  0.4494290000000 1.0
C      1  0.4847600000000  0.4639380000000  0.5738630000000 1.0
C      1  0.5003860000000  0.5174890000000  0.4413210000000 1.0
C      1  0.4573380000000  0.4727550000000  0.5686650000000 1.0
C      1  0.4662410000000  0.4945960000000  0.4727530000000 1.0
C      1  0.4927380000000  0.5523360000000  0.5105150000000 1.0
C      1  0.4777890000000  0.5737490000000  0.5314990000000 1.0
C      1  0.5320270000000  0.4646190000000  0.5488590000000 1.0
C      1  0.5000970000000  0.5039880000000  0.4725310000000 1.0
C      1  0.4558960000000  0.4821880000000  0.4282030000000 1.0
C      1  0.4667180000000  0.5225180000000  0.5469310000000 1.0
C      1  0.5089340000000  0.4937710000000  0.5343550000000 1.0
C      1  0.5615250000000  0.4618510000000  0.4923350000000 1.0
C      1  0.4603270000000  0.5470660000000  0.5332820000000 1.0
C      1  0.5353190000000  0.5535740000000  0.4861030000000 1.0
C      1  0.4697340000000  0.4385990000000  0.5147300000000 1.0
C      1  0.4746030000000  0.5491020000000  0.4834860000000 1.0
C      1  0.4932740000000  0.5599750000000  0.4629490000000 1.0
C      1  0.4667410000000  0.4294980000000  0.4692730000000 1.0
C      1  0.4462120000000  0.4675860000000  0.4494700000000 1.0
C      1  0.5061160000000  0.4795280000000  0.5035800000000 1.0
C      1  0.5679620000000  0.5209240000000  0.4778420000000 1.0
C      1  0.5368160000000  0.5171000000000  0.5143200000000 1.0
C      1  0.5133600000000  0.5707480000000  0.4817070000000 1.0
C      1  0.4364850000000  0.4663200000000  0.5428810000000 1.0
C      1  0.5309650000000  0.4629490000000  0.4585760000000 1.0
C      1  0.5770510000000  0.5354720000000  0.4993890000000 1.0
C      1  0.5484560000000  0.4588800000000  0.5196440000000 1.0
C      1  0.4689570000000  0.5185890000000  0.4927420000000 1.0
C      1  0.5269530000000  0.5017770000000  0.4896360000000 1.0
C      1  0.4522810000000  0.4967640000000  0.5449580000000 1.0
C      1  0.4876240000000  0.4812730000000  0.4524830000000 1.0
C      1  0.4122380000000  0.4774740000000  0.4826660000000 1.0
C      1  0.5425650000000  0.5394990000000  0.5467120000000 1.0
C      1  0.5173450000000  0.4502750000000  0.5148750000000 1.0
C      1  0.5454360000000  0.4840820000000  0.5701390000000 1.0
C      1  0.4971430000000  0.4321540000000  0.5060570000000 1.0
C      1  0.5443990000000  0.5340990000000  0.4661300000000 1.0
C      1  0.4918590000000  0.5584240000000  0.4140690000000 1.0
C      1  0.5508670000000  0.4467980000000  0.4713570000000 1.0
C      1  0.4934860000000  0.5466870000000  0.4387090000000 1.0
C      1  0.5138290000000  0.5379880000000  0.5234690000000 1.0
C      1  0.5112670000000  0.5414290000000  0.5565290000000 1.0
C      1  0.4938350000000  0.5179720000000  0.5514120000000 1.0
C      1  0.5332730000000  0.5084770000000  0.5530960000000 1.0
C      1  0.4989010000000  0.5849670000000  0.5072090000000 1.0
C      1  0.5484730000000  0.4896910000000  0.5307250000000 1.0
C      1  0.5041760000000  0.4638490000000  0.4733070000000 1.0
C      1  0.5407430000000  0.4896170000000  0.4541960000000 1.0
END
