TITL C-1154829-9094-207 -0.000121725739129024 125000 -367.758555500637 0 0 60 (C1) n - 1
REM
REM in /home/nfs/bkarasulu/CARBON/AIRSS/Generating-Clusters/AIREBO/Higher-Symm/Only-C60
REM
REM
REM
REM
REM
REM ./C.cell (28575a23ae977d3b5fae324c64b13b57)
REM
REM compiler GCC version 9.2.1 20190827 (Red Hat 9.2.1-1)
REM options -cpp -mtune=generic -march=x86-64 -g -O0 -fpre-include=/usr/include/finclude/math-vector-fortran.h
REM seed -763328356 -2110144893 130637642 -1436859995 -1510756127 874642200 590507621 806547914 -1730449353 998910725 -1214221208 875266373 588231874 -939215851 835492305 -776216670 1875942733 1601555152 -62615091 34382263 -337331696 -1358328859 -1353836338 1258756680 -145406512 1617166980 363816519 836589560 25536165 -718171159 -1787540670 1144922267 -1659030701
REM
CELL 1.54180   50.00000   50.00000   50.00000   90.00000   90.00000   90.00000
LATT -1
SFAC C  
C      1  0.5411620000000  0.4774260000000  0.5620350000000 1.0
C      1  0.4596620000000  0.5407760000000  0.5462280000000 1.0
C      1  0.5352300000000  0.5576550000000  0.4907420000000 1.0
C      1  0.4651230000000  0.5185790000000  0.4427680000000 1.0
C      1  0.5269220000000  0.4687740000000  0.4509000000000 1.0
C      1  0.4549360000000  0.4336850000000  0.5171240000000 1.0
C      1  0.4755570000000  0.4583120000000  0.5517730000000 1.0
C      1  0.5212720000000  0.5183810000000  0.5496630000000 1.0
C      1  0.4786740000000  0.5560800000000  0.5054940000000 1.0
C      1  0.5247660000000  0.5421270000000  0.4450090000000 1.0
C      1  0.4736630000000  0.4736160000000  0.4443400000000 1.0
C      1  0.5188470000000  0.4451390000000  0.4958740000000 1.0
C      1  0.5657210000000  0.4606700000000  0.5200900000000 1.0
C      1  0.4327330000000  0.4975630000000  0.5515610000000 1.0
C      1  0.5729470000000  0.5369220000000  0.5302320000000 1.0
C      1  0.4380820000000  0.5453990000000  0.4735730000000 1.0
C      1  0.5793920000000  0.5163890000000  0.4475160000000 1.0
C      1  0.4312630000000  0.4599610000000  0.4801820000000 1.0
C      1  0.4939740000000  0.4509220000000  0.4803510000000 1.0
C      1  0.4980960000000  0.4725440000000  0.5371320000000 1.0
C      1  0.4998070000000  0.4985110000000  0.5464830000000 1.0
C      1  0.5060160000000  0.5463220000000  0.5044270000000 1.0
C      1  0.5038140000000  0.5609360000000  0.4407830000000 1.0
C      1  0.4977410000000  0.4720750000000  0.4629180000000 1.0
C      1  0.4706930000000  0.4344380000000  0.4727830000000 1.0
C      1  0.5186980000000  0.4537150000000  0.5274240000000 1.0
C      1  0.4774870000000  0.5022810000000  0.5667780000000 1.0
C      1  0.5253900000000  0.5471390000000  0.5280070000000 1.0
C      1  0.4807390000000  0.5625140000000  0.4571470000000 1.0
C      1  0.5354620000000  0.4944830000000  0.4382210000000 1.0
C      1  0.5632350000000  0.4625840000000  0.4924680000000 1.0
C      1  0.4313790000000  0.4718930000000  0.5416870000000 1.0
C      1  0.5694540000000  0.5190170000000  0.5508710000000 1.0
C      1  0.4344960000000  0.5425210000000  0.5008100000000 1.0
C      1  0.5709190000000  0.5403320000000  0.4579700000000 1.0
C      1  0.4342250000000  0.4842170000000  0.4671260000000 1.0
C      1  0.5446790000000  0.5472220000000  0.4643860000000 1.0
C      1  0.4545490000000  0.4934180000000  0.4496290000000 1.0
C      1  0.5403660000000  0.4582930000000  0.4786100000000 1.0
C      1  0.4516300000000  0.4526050000000  0.5379980000000 1.0
C      1  0.5462290000000  0.5050850000000  0.5576970000000 1.0
C      1  0.4558220000000  0.5470420000000  0.5187470000000 1.0
C      1  0.5135340000000  0.5820440000000  0.4870590000000 1.0
C      1  0.4899680000000  0.5162360000000  0.4288710000000 1.0
C      1  0.5086210000000  0.4433870000000  0.4373550000000 1.0
C      1  0.4785090000000  0.4175340000000  0.5202600000000 1.0
C      1  0.5178230000000  0.4716320000000  0.5783460000000 1.0
C      1  0.4821180000000  0.5536000000000  0.5585450000000 1.0
C      1  0.4792890000000  0.4424610000000  0.4437050000000 1.0
C      1  0.5041130000000  0.4250470000000  0.5179790000000 1.0
C      1  0.4890460000000  0.4738740000000  0.5759950000000 1.0
C      1  0.5081250000000  0.5478290000000  0.5551130000000 1.0
C      1  0.4863690000000  0.5734840000000  0.4827060000000 1.0
C      1  0.5175020000000  0.5162340000000  0.4359530000000 1.0
C      1  0.5626780000000  0.4992970000000  0.4340250000000 1.0
C      1  0.4485540000000  0.4396770000000  0.4899680000000 1.0
C      1  0.5449220000000  0.4610850000000  0.5391170000000 1.0
C      1  0.4542270000000  0.5149730000000  0.5568820000000 1.0
C      1  0.5542290000000  0.5507770000000  0.5172560000000 1.0
C      1  0.4595210000000  0.5432670000000  0.4553060000000 1.0
END
