TITL C-1154808-8168-505 0.000925069624385047 125000 -320.620382916521 0 0 60 (C1) n - 1
REM
REM in /home/nfs/bkarasulu/CARBON/AIRSS/Generating-Clusters/AIREBO/Higher-Symm/Only-C60
REM
REM
REM
REM
REM
REM ./C.cell (28575a23ae977d3b5fae324c64b13b57)
REM
REM compiler GCC version 9.2.1 20190827 (Red Hat 9.2.1-1)
REM options -cpp -mtune=generic -march=x86-64 -g -O0 -fpre-include=/usr/include/finclude/math-vector-fortran.h
REM seed 1926854517 89875301 -275177416 1954605962 -624292987 -990477878 2009817904 -1675790339 -887351047 1454387494 323306522 1769089741 537795843 -607807116 -796677529 -867633157 -89274480 -1386841904 -87489695 1618721826 38728172 -1665729249 1069477856 -292924171 1505169906 512619361 -1691065204 279817568 1361375035 -458816476 509292996 -1776357439 1229496247
REM
CELL 1.54180   50.00000   50.00000   50.00000   90.00000   90.00000   90.00000
LATT -1
SFAC C  
C      1  0.4679830000000  0.4818330000000  0.4422240000000 1.0
C      1  0.5413310000000  0.5240650000000  0.5440870000000 1.0
C      1  0.4575400000000  0.5131820000000  0.5401270000000 1.0
C      1  0.5500520000000  0.4895400000000  0.4643280000000 1.0
C      1  0.5275630000000  0.5734550000000  0.5236640000000 1.0
C      1  0.4735440000000  0.4313400000000  0.4643140000000 1.0
C      1  0.5584380000000  0.4846430000000  0.5236080000000 1.0
C      1  0.4346580000000  0.5181750000000  0.4824120000000 1.0
C      1  0.4716220000000  0.5183060000000  0.5706500000000 1.0
C      1  0.5416770000000  0.4796190000000  0.4329020000000 1.0
C      1  0.5111340000000  0.4871080000000  0.5681050000000 1.0
C      1  0.5001640000000  0.5062490000000  0.4393050000000 1.0
C      1  0.4797510000000  0.5338230000000  0.4400530000000 1.0
C      1  0.5122650000000  0.4551170000000  0.5566380000000 1.0
C      1  0.5441890000000  0.4915570000000  0.4972100000000 1.0
C      1  0.4512420000000  0.5109610000000  0.5079820000000 1.0
C      1  0.4840050000000  0.4357330000000  0.4919910000000 1.0
C      1  0.5104940000000  0.5675600000000  0.4996340000000 1.0
C      1  0.5530570000000  0.5456200000000  0.4508190000000 1.0
C      1  0.4382680000000  0.4551140000000  0.5399460000000 1.0
C      1  0.4944090000000  0.5136840000000  0.4904260000000 1.0
C      1  0.5025560000000  0.4913960000000  0.5147850000000 1.0
C      1  0.4550330000000  0.5251280000000  0.4619330000000 1.0
C      1  0.5417720000000  0.4710920000000  0.5483370000000 1.0
C      1  0.4793530000000  0.5036100000000  0.4658860000000 1.0
C      1  0.5245380000000  0.4980400000000  0.5398740000000 1.0
C      1  0.5135920000000  0.4900460000000  0.3937380000000 1.0
C      1  0.4994400000000  0.5097820000000  0.6092570000000 1.0
C      1  0.4865680000000  0.5558230000000  0.4614620000000 1.0
C      1  0.5037740000000  0.4388390000000  0.5341540000000 1.0
C      1  0.4693240000000  0.4841790000000  0.5154260000000 1.0
C      1  0.5256790000000  0.5155990000000  0.4818660000000 1.0
C      1  0.5188890000000  0.4924540000000  0.4191510000000 1.0
C      1  0.4939470000000  0.5048700000000  0.5841020000000 1.0
C      1  0.5433130000000  0.4526870000000  0.4504480000000 1.0
C      1  0.4672510000000  0.5477700000000  0.5575490000000 1.0
C      1  0.5240390000000  0.4411520000000  0.5157720000000 1.0
C      1  0.4677580000000  0.5574480000000  0.4815320000000 1.0
C      1  0.5319820000000  0.5408700000000  0.4676380000000 1.0
C      1  0.4612770000000  0.4598170000000  0.5254690000000 1.0
C      1  0.5299550000000  0.5476020000000  0.5385320000000 1.0
C      1  0.4756490000000  0.4571640000000  0.4497300000000 1.0
C      1  0.4088330000000  0.5174470000000  0.4801210000000 1.0
C      1  0.5841140000000  0.4892820000000  0.5265590000000 1.0
C      1  0.4796670000000  0.4389180000000  0.5195930000000 1.0
C      1  0.5120460000000  0.5602470000000  0.4726120000000 1.0
C      1  0.4735820000000  0.5364070000000  0.5048210000000 1.0
C      1  0.5199550000000  0.4678020000000  0.4975040000000 1.0
C      1  0.5160850000000  0.4882480000000  0.4633970000000 1.0
C      1  0.4890010000000  0.5153210000000  0.5347970000000 1.0
C      1  0.5405070000000  0.4523000000000  0.4752850000000 1.0
C      1  0.4639620000000  0.5525240000000  0.5331760000000 1.0
C      1  0.4586030000000  0.5086320000000  0.4324170000000 1.0
C      1  0.5337760000000  0.4653170000000  0.5810910000000 1.0
C      1  0.5693640000000  0.4983030000000  0.4395950000000 1.0
C      1  0.4422130000000  0.5012840000000  0.5680480000000 1.0
C      1  0.5022990000000  0.5427020000000  0.5219310000000 1.0
C      1  0.4971450000000  0.4620460000000  0.4737500000000 1.0
C      1  0.4152390000000  0.4501830000000  0.5514410000000 1.0
C      1  0.5745360000000  0.5509850000000  0.4367940000000 1.0
END
