TITL C-1154828-9214-255 -0.00137359120741435 125000 -330.965870392656 0 0 60 (C1) n - 1
REM
REM in /home/nfs/bkarasulu/CARBON/AIRSS/Generating-Clusters/AIREBO/Higher-Symm/Only-C60
REM
REM
REM
REM
REM
REM ./C.cell (28575a23ae977d3b5fae324c64b13b57)
REM
REM compiler GCC version 9.2.1 20190827 (Red Hat 9.2.1-1)
REM options -cpp -mtune=generic -march=x86-64 -g -O0 -fpre-include=/usr/include/finclude/math-vector-fortran.h
REM seed 517153582 -575100875 -295159880 1807390137 -708281409 -778089339 -797744327 -1304982229 2086424424 -1785865919 -378113878 1869556601 1618356247 -333741433 -224048200 -729097646 459337215 2071431429 -1370434392 -911583085 -1612966934 -868747877 -644602857 2008601668 1977947049 1998004799 -380536690 -847366864 -2083429959 -1039680969 2090433439 773363146 1422968790
REM
CELL 1.54180   50.00000   50.00000   50.00000   90.00000   90.00000   90.00000
LATT -1
SFAC C  
C      1  0.4758300000000  0.4752700000000  0.4444230000000 1.0
C      1  0.5306290000000  0.5242400000000  0.5511270000000 1.0
C      1  0.5379410000000  0.4680400000000  0.5594250000000 1.0
C      1  0.4612050000000  0.5301590000000  0.4459890000000 1.0
C      1  0.4884580000000  0.4591690000000  0.5560090000000 1.0
C      1  0.4998570000000  0.5292420000000  0.4560710000000 1.0
C      1  0.5221580000000  0.4980550000000  0.5619570000000 1.0
C      1  0.4871400000000  0.4898760000000  0.4241370000000 1.0
C      1  0.4776050000000  0.4732280000000  0.4961020000000 1.0
C      1  0.5223870000000  0.5253530000000  0.5005830000000 1.0
C      1  0.5066210000000  0.5046650000000  0.4786840000000 1.0
C      1  0.4917270000000  0.5091630000000  0.5201020000000 1.0
C      1  0.4484190000000  0.4840290000000  0.4893350000000 1.0
C      1  0.5491400000000  0.5103280000000  0.5095910000000 1.0
C      1  0.4629220000000  0.4900620000000  0.5481110000000 1.0
C      1  0.5346440000000  0.5117570000000  0.4474270000000 1.0
C      1  0.4571220000000  0.5561750000000  0.4520010000000 1.0
C      1  0.5436230000000  0.4384530000000  0.5526530000000 1.0
C      1  0.5471270000000  0.5597720000000  0.5115360000000 1.0
C      1  0.4538790000000  0.4416830000000  0.4897250000000 1.0
C      1  0.5102790000000  0.5337240000000  0.5291660000000 1.0
C      1  0.4937670000000  0.4744490000000  0.4698490000000 1.0
C      1  0.5091980000000  0.4844760000000  0.5234690000000 1.0
C      1  0.4758290000000  0.5128410000000  0.4906060000000 1.0
C      1  0.4369010000000  0.5007260000000  0.5114770000000 1.0
C      1  0.5629950000000  0.4976460000000  0.4858220000000 1.0
C      1  0.5425580000000  0.4848330000000  0.5302200000000 1.0
C      1  0.4536470000000  0.5075860000000  0.4653720000000 1.0
C      1  0.4814150000000  0.5663650000000  0.5133620000000 1.0
C      1  0.5203750000000  0.4407910000000  0.4886960000000 1.0
C      1  0.4231450000000  0.4986380000000  0.4620950000000 1.0
C      1  0.5719770000000  0.4894320000000  0.5443790000000 1.0
C      1  0.4722600000000  0.5756510000000  0.4643400000000 1.0
C      1  0.5269110000000  0.4249470000000  0.5356590000000 1.0
C      1  0.4605680000000  0.5482240000000  0.5192630000000 1.0
C      1  0.5395710000000  0.4607890000000  0.4859810000000 1.0
C      1  0.5158560000000  0.5066020000000  0.4274250000000 1.0
C      1  0.4885510000000  0.4918870000000  0.5661780000000 1.0
C      1  0.4755620000000  0.4291760000000  0.4724910000000 1.0
C      1  0.5282010000000  0.5773840000000  0.5243820000000 1.0
C      1  0.4857060000000  0.5223020000000  0.4283380000000 1.0
C      1  0.5114580000000  0.4700640000000  0.5785550000000 1.0
C      1  0.4215830000000  0.5228970000000  0.4991940000000 1.0
C      1  0.5825790000000  0.4773560000000  0.4953190000000 1.0
C      1  0.5353630000000  0.4891080000000  0.4692400000000 1.0
C      1  0.4601260000000  0.5151600000000  0.5283600000000 1.0
C      1  0.5040200000000  0.5630450000000  0.5295530000000 1.0
C      1  0.4994800000000  0.4441790000000  0.4708630000000 1.0
C      1  0.5572650000000  0.4646200000000  0.5073610000000 1.0
C      1  0.4499560000000  0.5343240000000  0.4947650000000 1.0
C      1  0.5113990000000  0.4356550000000  0.5150430000000 1.0
C      1  0.4888480000000  0.5681370000000  0.4859100000000 1.0
C      1  0.4526970000000  0.4659770000000  0.5396820000000 1.0
C      1  0.5441200000000  0.5367890000000  0.4584370000000 1.0
C      1  0.5501130000000  0.5360200000000  0.5273430000000 1.0
C      1  0.4559440000000  0.4629930000000  0.4641050000000 1.0
C      1  0.5107490000000  0.5481570000000  0.4782010000000 1.0
C      1  0.4898330000000  0.4573920000000  0.5236070000000 1.0
C      1  0.5422660000000  0.5552570000000  0.4834070000000 1.0
C      1  0.4584930000000  0.4456830000000  0.5174990000000 1.0
END
