TITL C-1154816-9297-236 7.80369732639928e-05 125000 -328.505946967427 0 0 60 (C1) n - 1
REM
REM in /home/nfs/bkarasulu/CARBON/AIRSS/Generating-Clusters/AIREBO/Higher-Symm/Only-C60
REM
REM
REM
REM
REM
REM ./C.cell (28575a23ae977d3b5fae324c64b13b57)
REM
REM compiler GCC version 9.2.1 20190827 (Red Hat 9.2.1-1)
REM options -cpp -mtune=generic -march=x86-64 -g -O0 -fpre-include=/usr/include/finclude/math-vector-fortran.h
REM seed 427620124 886008425 -2107325809 333101476 -1139702981 -465863543 -1766065547 -1991690087 372487827 -828619604 1349175361 448328106 1686830246 361154833 176159800 -1752924255 1811230690 -1815120597 1483343234 -1938513669 -1095680010 209328215 -1062709314 1677242337 -670817703 -741145666 2121883691 -889681388 1985002143 2131323936 -1262391985 -1221532522 940280515
REM
CELL 1.54180   50.00000   50.00000   50.00000   90.00000   90.00000   90.00000
LATT -1
SFAC C  
C      1  0.4855690000000  0.5541500000000  0.4823700000000 1.0
C      1  0.4831140000000  0.4406720000000  0.4788700000000 1.0
C      1  0.5404070000000  0.5312300000000  0.5530580000000 1.0
C      1  0.5408980000000  0.4741580000000  0.5507550000000 1.0
C      1  0.4992610000000  0.5400340000000  0.5269860000000 1.0
C      1  0.4959210000000  0.4546890000000  0.5245070000000 1.0
C      1  0.4692020000000  0.4873720000000  0.5604920000000 1.0
C      1  0.4664800000000  0.5185310000000  0.5619370000000 1.0
C      1  0.5286450000000  0.4501110000000  0.5025550000000 1.0
C      1  0.5321080000000  0.5501760000000  0.5068950000000 1.0
C      1  0.5087080000000  0.5244600000000  0.4628520000000 1.0
C      1  0.5057990000000  0.4746670000000  0.4620750000000 1.0
C      1  0.4358300000000  0.4695470000000  0.4562150000000 1.0
C      1  0.4354690000000  0.5263230000000  0.4605040000000 1.0
C      1  0.4915570000000  0.5652050000000  0.5463840000000 1.0
C      1  0.4846620000000  0.4350830000000  0.5468190000000 1.0
C      1  0.4891420000000  0.4424140000000  0.5710470000000 1.0
C      1  0.4933090000000  0.5597130000000  0.5713980000000 1.0
C      1  0.5170930000000  0.4391700000000  0.4797950000000 1.0
C      1  0.5191520000000  0.5595760000000  0.4833210000000 1.0
C      1  0.4945530000000  0.4875450000000  0.4340060000000 1.0
C      1  0.4923670000000  0.5160790000000  0.4382990000000 1.0
C      1  0.4428870000000  0.5144890000000  0.4360200000000 1.0
C      1  0.4440730000000  0.4853700000000  0.4345550000000 1.0
C      1  0.5316490000000  0.5162660000000  0.5043970000000 1.0
C      1  0.5236210000000  0.4836730000000  0.5036510000000 1.0
C      1  0.5316540000000  0.5489810000000  0.4575180000000 1.0
C      1  0.5297920000000  0.4517840000000  0.4550430000000 1.0
C      1  0.4953220000000  0.5291890000000  0.5764520000000 1.0
C      1  0.4966000000000  0.4731070000000  0.5741560000000 1.0
C      1  0.4438670000000  0.4796340000000  0.4861370000000 1.0
C      1  0.4462970000000  0.5108930000000  0.4867510000000 1.0
C      1  0.5731340000000  0.4752580000000  0.5164090000000 1.0
C      1  0.5700200000000  0.5271640000000  0.5063060000000 1.0
C      1  0.5545180000000  0.5156860000000  0.5319750000000 1.0
C      1  0.5622530000000  0.4878230000000  0.5386830000000 1.0
C      1  0.4530990000000  0.4491210000000  0.4758520000000 1.0
C      1  0.4565860000000  0.5428060000000  0.4805140000000 1.0
C      1  0.5240510000000  0.5161490000000  0.5706140000000 1.0
C      1  0.5253010000000  0.4877740000000  0.5706720000000 1.0
C      1  0.4593750000000  0.5287590000000  0.5328720000000 1.0
C      1  0.4601100000000  0.4758660000000  0.5342310000000 1.0
C      1  0.4943730000000  0.5136860000000  0.5440410000000 1.0
C      1  0.4989200000000  0.4820560000000  0.5414300000000 1.0
C      1  0.5574980000000  0.5125390000000  0.4826210000000 1.0
C      1  0.5552150000000  0.4798780000000  0.4916090000000 1.0
C      1  0.4667730000000  0.4748690000000  0.4215210000000 1.0
C      1  0.4649160000000  0.5277790000000  0.4246800000000 1.0
C      1  0.5281040000000  0.5519290000000  0.5373590000000 1.0
C      1  0.5283440000000  0.4562120000000  0.5335180000000 1.0
C      1  0.4701730000000  0.5169000000000  0.5079730000000 1.0
C      1  0.4673730000000  0.4842280000000  0.5073480000000 1.0
C      1  0.4914510000000  0.5658290000000  0.4525910000000 1.0
C      1  0.4924620000000  0.4345570000000  0.4487050000000 1.0
C      1  0.5383490000000  0.4838210000000  0.4628430000000 1.0
C      1  0.5405250000000  0.5162100000000  0.4564100000000 1.0
C      1  0.4879660000000  0.5485640000000  0.4321470000000 1.0
C      1  0.4891340000000  0.4545760000000  0.4317840000000 1.0
C      1  0.5003940000000  0.5266170000000  0.4957620000000 1.0
C      1  0.4945710000000  0.4690540000000  0.4937070000000 1.0
END
