TITL C-1154802-8274-108 0.00122400122179078 125000 -292.464645658154 0 0 60 (C2) n - 1
REM
REM in /home/nfs/bkarasulu/CARBON/AIRSS/Generating-Clusters/AIREBO/Higher-Symm/Only-C60
REM
REM
REM
REM
REM
REM ./C.cell (28575a23ae977d3b5fae324c64b13b57)
REM
REM compiler GCC version 9.2.1 20190827 (Red Hat 9.2.1-1)
REM options -cpp -mtune=generic -march=x86-64 -g -O0 -fpre-include=/usr/include/finclude/math-vector-fortran.h
REM seed -1611239031 419990889 -423446364 -1776226601 984516145 -1617382069 -161235248 96478794 -1439444031 -64959976 17755207 -32931850 670984896 383988013 -1123827197 1201408351 -1272639929 -2113790419 -56442207 1990457931 624292496 -2110722490 995940297 -2146454340 -1772650923 -743752220 1724112420 184146618 -1554950847 -757704768 1155707309 -802531412 -1563516465
REM
CELL 1.54180   50.00000   50.00000   50.00000   90.00000   90.00000   90.00000
LATT -1
SFAC C  
C      1  0.4355550000000  0.4897140000000  0.5171450000000 1.0
C      1  0.4314880000000  0.4767670000000  0.4862810000000 1.0
C      1  0.4355550000000  0.5103010000000  0.4828610000000 1.0
C      1  0.4314890000000  0.5232490000000  0.5137250000000 1.0
C      1  0.5668200000000  0.4886460000000  0.5250530000000 1.0
C      1  0.5636440000000  0.4817270000000  0.4915910000000 1.0
C      1  0.5667500000000  0.5113030000000  0.4751010000000 1.0
C      1  0.5634680000000  0.5180540000000  0.5083080000000 1.0
C      1  0.5459530000000  0.4631100000000  0.5217230000000 1.0
C      1  0.5527810000000  0.4775050000000  0.4596480000000 1.0
C      1  0.5459370000000  0.5369260000000  0.4782490000000 1.0
C      1  0.5528110000000  0.5224740000000  0.5402970000000 1.0
C      1  0.4437170000000  0.4566240000000  0.5184480000000 1.0
C      1  0.4461480000000  0.4817110000000  0.4572410000000 1.0
C      1  0.4437160000000  0.5433910000000  0.4815580000000 1.0
C      1  0.4461480000000  0.5183070000000  0.5427630000000 1.0
C      1  0.4758690000000  0.5526140000000  0.4754330000000 1.0
C      1  0.4787540000000  0.5262000000000  0.5474280000000 1.0
C      1  0.4758680000000  0.4473910000000  0.5245690000000 1.0
C      1  0.4787600000000  0.4738240000000  0.4525750000000 1.0
C      1  0.5261030000000  0.5435640000000  0.4559790000000 1.0
C      1  0.5268810000000  0.5402770000000  0.5463540000000 1.0
C      1  0.5261200000000  0.4564070000000  0.5439890000000 1.0
C      1  0.5268590000000  0.4596990000000  0.4536510000000 1.0
C      1  0.4877390000000  0.5229140000000  0.4842020000000 1.0
C      1  0.4882510000000  0.5229200000000  0.5149430000000 1.0
C      1  0.4877360000000  0.4770920000000  0.5158070000000 1.0
C      1  0.4882420000000  0.4770910000000  0.4850650000000 1.0
C      1  0.5131960000000  0.5154450000000  0.4700940000000 1.0
C      1  0.5167300000000  0.5161230000000  0.5246820000000 1.0
C      1  0.5131940000000  0.4845460000000  0.5299290000000 1.0
C      1  0.5167270000000  0.4838520000000  0.4753340000000 1.0
C      1  0.5183610000000  0.5621810000000  0.5116020000000 1.0
C      1  0.5169130000000  0.4891710000000  0.5691900000000 1.0
C      1  0.5183560000000  0.4378460000000  0.4883850000000 1.0
C      1  0.5169280000000  0.5108760000000  0.4308300000000 1.0
C      1  0.4852030000000  0.5626560000000  0.5071910000000 1.0
C      1  0.4847510000000  0.4948520000000  0.5596640000000 1.0
C      1  0.4851950000000  0.4373630000000  0.4928060000000 1.0
C      1  0.4847660000000  0.5051760000000  0.4403510000000 1.0
C      1  0.5031000000000  0.5395980000000  0.4325530000000 1.0
C      1  0.5073200000000  0.5667510000000  0.5402550000000 1.0
C      1  0.5031300000000  0.4604450000000  0.5674190000000 1.0
C      1  0.5072990000000  0.4332360000000  0.4597380000000 1.0
C      1  0.4754110000000  0.5384420000000  0.4445230000000 1.0
C      1  0.4774320000000  0.5595610000000  0.5409840000000 1.0
C      1  0.4754300000000  0.4615780000000  0.5554740000000 1.0
C      1  0.4774210000000  0.4404620000000  0.4590110000000 1.0
C      1  0.5354570000000  0.4627190000000  0.4924710000000 1.0
C      1  0.5408660000000  0.5065640000000  0.4531070000000 1.0
C      1  0.5354410000000  0.5373020000000  0.5075230000000 1.0
C      1  0.5408560000000  0.4934150000000  0.5469280000000 1.0
C      1  0.4598740000000  0.4590480000000  0.4894250000000 1.0
C      1  0.4649070000000  0.5080320000000  0.4678030000000 1.0
C      1  0.4598820000000  0.5409650000000  0.5105780000000 1.0
C      1  0.4649100000000  0.4919890000000  0.5321990000000 1.0
C      1  0.5038150000000  0.4328550000000  0.5373760000000 1.0
C      1  0.5030410000000  0.4629860000000  0.4313750000000 1.0
C      1  0.5038120000000  0.5671310000000  0.4625960000000 1.0
C      1  0.5030460000000  0.5370320000000  0.5686160000000 1.0
END
