TITL C-1154802-8274-66 0.000228901229499083 125000 -331.713298245055 0 0 60 (C1) n - 1
REM
REM in /home/nfs/bkarasulu/CARBON/AIRSS/Generating-Clusters/AIREBO/Higher-Symm/Only-C60
REM
REM
REM
REM
REM
REM ./C.cell (28575a23ae977d3b5fae324c64b13b57)
REM
REM compiler GCC version 9.2.1 20190827 (Red Hat 9.2.1-1)
REM options -cpp -mtune=generic -march=x86-64 -g -O0 -fpre-include=/usr/include/finclude/math-vector-fortran.h
REM seed 1639685320 1036090840 765321574 -660319806 1616924494 -1143738317 1184631516 -1247542208 -1011473454 1294757673 -2096481002 -364782342 -1292803591 1807289768 1228553327 -819086170 1493393955 944919583 -72544173 365878135 -595108702 77334864 1729570142 720541441 -638350925 -151526885 -369468567 971766656 237704126 861171303 2097877008 1286694443 -1222471568
REM
CELL 1.54180   50.00000   50.00000   50.00000   90.00000   90.00000   90.00000
LATT -1
SFAC C  
C      1  0.4822760000000  0.4860280000000  0.4882480000000 1.0
C      1  0.4344130000000  0.5064570000000  0.4398720000000 1.0
C      1  0.4663290000000  0.4523940000000  0.5478110000000 1.0
C      1  0.4336460000000  0.5242990000000  0.4688490000000 1.0
C      1  0.4849840000000  0.4776100000000  0.5498710000000 1.0
C      1  0.5400410000000  0.5540200000000  0.5285730000000 1.0
C      1  0.5038740000000  0.5896210000000  0.5356250000000 1.0
C      1  0.4425960000000  0.5222630000000  0.4941890000000 1.0
C      1  0.4573300000000  0.4899980000000  0.5344280000000 1.0
C      1  0.4798620000000  0.5759450000000  0.4881240000000 1.0
C      1  0.4411820000000  0.5107080000000  0.5559060000000 1.0
C      1  0.5605210000000  0.4970040000000  0.4486390000000 1.0
C      1  0.5038940000000  0.4409420000000  0.5220170000000 1.0
C      1  0.4375620000000  0.5417520000000  0.5130060000000 1.0
C      1  0.4291940000000  0.4823350000000  0.5523630000000 1.0
C      1  0.5095280000000  0.5641930000000  0.5255610000000 1.0
C      1  0.4608320000000  0.5254060000000  0.4405560000000 1.0
C      1  0.5651750000000  0.4790410000000  0.4973290000000 1.0
C      1  0.4852740000000  0.5262300000000  0.4388100000000 1.0
C      1  0.4339870000000  0.4935720000000  0.4120200000000 1.0
C      1  0.4932450000000  0.4569720000000  0.4795940000000 1.0
C      1  0.5187070000000  0.5118990000000  0.5380320000000 1.0
C      1  0.5042290000000  0.5328230000000  0.5748040000000 1.0
C      1  0.4428300000000  0.4487550000000  0.4897990000000 1.0
C      1  0.5258040000000  0.5149580000000  0.4980640000000 1.0
C      1  0.5812570000000  0.4740000000000  0.4441210000000 1.0
C      1  0.4862560000000  0.4684960000000  0.5171340000000 1.0
C      1  0.4959840000000  0.5571180000000  0.4998490000000 1.0
C      1  0.6033070000000  0.5049330000000  0.4808280000000 1.0
C      1  0.5110510000000  0.4917550000000  0.5165920000000 1.0
C      1  0.5133740000000  0.5103280000000  0.4464930000000 1.0
C      1  0.4419080000000  0.5537360000000  0.5370620000000 1.0
C      1  0.5499560000000  0.5341700000000  0.5032710000000 1.0
C      1  0.5365570000000  0.4617400000000  0.5551140000000 1.0
C      1  0.4829700000000  0.4829420000000  0.4075000000000 1.0
C      1  0.4429170000000  0.5376970000000  0.5594330000000 1.0
C      1  0.5481050000000  0.4518910000000  0.5307260000000 1.0
C      1  0.4244490000000  0.4859700000000  0.4632820000000 1.0
C      1  0.4591930000000  0.4475490000000  0.5174820000000 1.0
C      1  0.5290780000000  0.4431550000000  0.5119340000000 1.0
C      1  0.5030270000000  0.4960580000000  0.4195600000000 1.0
C      1  0.5639430000000  0.5132900000000  0.5525840000000 1.0
C      1  0.5241770000000  0.4545460000000  0.4822760000000 1.0
C      1  0.5349730000000  0.4823860000000  0.4945420000000 1.0
C      1  0.5638750000000  0.5322110000000  0.5333940000000 1.0
C      1  0.4733010000000  0.4385460000000  0.4878480000000 1.0
C      1  0.4954920000000  0.5084060000000  0.4730270000000 1.0
C      1  0.5085860000000  0.5089200000000  0.5828350000000 1.0
C      1  0.4537720000000  0.4943740000000  0.5029830000000 1.0
C      1  0.5477330000000  0.5348070000000  0.4711720000000 1.0
C      1  0.5710020000000  0.4630530000000  0.5184510000000 1.0
C      1  0.5111350000000  0.5396730000000  0.5464770000000 1.0
C      1  0.5393940000000  0.4998140000000  0.5563900000000 1.0
C      1  0.4363130000000  0.4749010000000  0.4845230000000 1.0
C      1  0.5421130000000  0.5162120000000  0.4521070000000 1.0
C      1  0.4568100000000  0.4843580000000  0.4002570000000 1.0
C      1  0.5110980000000  0.4825120000000  0.5639060000000 1.0
C      1  0.5810760000000  0.4894760000000  0.4744770000000 1.0
C      1  0.5012470000000  0.5330240000000  0.4895270000000 1.0
C      1  0.5372580000000  0.4427330000000  0.4607530000000 1.0
END
