TITL C-1154826-9507-264 -0.000956521848378406 125000 -344.594794670578 0 0 60 (C1) n - 1
REM
REM in /home/nfs/bkarasulu/CARBON/AIRSS/Generating-Clusters/AIREBO/Higher-Symm/Only-C60
REM
REM
REM
REM
REM
REM ./C.cell (28575a23ae977d3b5fae324c64b13b57)
REM
REM compiler GCC version 9.2.1 20190827 (Red Hat 9.2.1-1)
REM options -cpp -mtune=generic -march=x86-64 -g -O0 -fpre-include=/usr/include/finclude/math-vector-fortran.h
REM seed 1013742829 564207715 412849366 -1558769272 1918102691 -1024343631 544964251 -586526197 -1473900629 987778361 1588503016 260180120 -452691547 163702099 863007022 397227850 -1824149371 1346057298 2101640327 1867569072 226310110 1428557765 -715745731 594401009 1069978152 -1940849052 -1808523643 1986070921 1517646297 1423481173 1467818896 2042089309 2010685196
REM
CELL 1.54180   50.00000   50.00000   50.00000   90.00000   90.00000   90.00000
LATT -1
SFAC C  
C      1  0.5087940000000  0.4852620000000  0.4589030000000 1.0
C      1  0.5166570000000  0.5091400000000  0.5400970000000 1.0
C      1  0.4933280000000  0.5140860000000  0.4608000000000 1.0
C      1  0.4885390000000  0.4946840000000  0.5356660000000 1.0
C      1  0.4982910000000  0.5141760000000  0.5751940000000 1.0
C      1  0.4881140000000  0.4989600000000  0.4242210000000 1.0
C      1  0.5006340000000  0.4892180000000  0.5733880000000 1.0
C      1  0.5129310000000  0.5035380000000  0.4236670000000 1.0
C      1  0.4601380000000  0.4187070000000  0.5000670000000 1.0
C      1  0.5774600000000  0.4711840000000  0.4965850000000 1.0
C      1  0.5285350000000  0.5798250000000  0.5049930000000 1.0
C      1  0.4210530000000  0.5272960000000  0.4957300000000 1.0
C      1  0.4931260000000  0.5322470000000  0.5485010000000 1.0
C      1  0.4699280000000  0.4915300000000  0.4508100000000 1.0
C      1  0.5092570000000  0.4707580000000  0.5481190000000 1.0
C      1  0.5315650000000  0.5090600000000  0.4504230000000 1.0
C      1  0.4666770000000  0.4495570000000  0.5243730000000 1.0
C      1  0.5435920000000  0.4626830000000  0.4771080000000 1.0
C      1  0.5363720000000  0.5460150000000  0.5248250000000 1.0
C      1  0.4547600000000  0.5362360000000  0.4761590000000 1.0
C      1  0.5016550000000  0.5223810000000  0.4898640000000 1.0
C      1  0.4792860000000  0.5066730000000  0.5085680000000 1.0
C      1  0.4993010000000  0.4787170000000  0.4886080000000 1.0
C      1  0.5195770000000  0.4935420000000  0.5105090000000 1.0
C      1  0.4814820000000  0.5407970000000  0.5070060000000 1.0
C      1  0.4658420000000  0.4827870000000  0.4930840000000 1.0
C      1  0.5164530000000  0.4594900000000  0.5084100000000 1.0
C      1  0.5349480000000  0.5175890000000  0.4948610000000 1.0
C      1  0.4582660000000  0.4927250000000  0.5451740000000 1.0
C      1  0.5048790000000  0.4541690000000  0.4521740000000 1.0
C      1  0.5472910000000  0.5057560000000  0.5476580000000 1.0
C      1  0.4954580000000  0.5455500000000  0.4546760000000 1.0
C      1  0.5738100000000  0.4939170000000  0.4786130000000 1.0
C      1  0.5045830000000  0.5780670000000  0.5224720000000 1.0
C      1  0.4256390000000  0.5043060000000  0.4783780000000 1.0
C      1  0.4864120000000  0.4221360000000  0.5205270000000 1.0
C      1  0.5484970000000  0.4659100000000  0.5106950000000 1.0
C      1  0.5338940000000  0.5504550000000  0.4911170000000 1.0
C      1  0.4497370000000  0.5335100000000  0.5097710000000 1.0
C      1  0.4679020000000  0.4501010000000  0.4901480000000 1.0
C      1  0.4473580000000  0.5124590000000  0.4605800000000 1.0
C      1  0.4943850000000  0.4451690000000  0.5436450000000 1.0
C      1  0.5515790000000  0.4860260000000  0.4615990000000 1.0
C      1  0.5130110000000  0.5550030000000  0.5383460000000 1.0
C      1  0.4251180000000  0.4722030000000  0.5176250000000 1.0
C      1  0.5224150000000  0.4207480000000  0.4829710000000 1.0
C      1  0.5779280000000  0.5267460000000  0.5162980000000 1.0
C      1  0.4730940000000  0.5796080000000  0.4823300000000 1.0
C      1  0.4621340000000  0.5242500000000  0.5397630000000 1.0
C      1  0.4762570000000  0.4621870000000  0.4605600000000 1.0
C      1  0.5393900000000  0.4763090000000  0.5403970000000 1.0
C      1  0.5250660000000  0.5382040000000  0.4618010000000 1.0
C      1  0.5663300000000  0.5166380000000  0.4928350000000 1.0
C      1  0.4818030000000  0.5709990000000  0.5078100000000 1.0
C      1  0.4346120000000  0.4825350000000  0.4933090000000 1.0
C      1  0.5120440000000  0.4299830000000  0.5062650000000 1.0
C      1  0.4715160000000  0.5566590000000  0.4654490000000 1.0
C      1  0.4466460000000  0.4690980000000  0.5356540000000 1.0
C      1  0.5273770000000  0.4424470000000  0.4654670000000 1.0
C      1  0.5572730000000  0.5299890000000  0.5353510000000 1.0
END
