TITL C-1154828-9214-245 3.1814053051268e-06 125000 -330.518593649258 0 0 60 (C1) n - 1
REM
REM in /home/nfs/bkarasulu/CARBON/AIRSS/Generating-Clusters/AIREBO/Higher-Symm/Only-C60
REM
REM
REM
REM
REM
REM ./C.cell (28575a23ae977d3b5fae324c64b13b57)
REM
REM compiler GCC version 9.2.1 20190827 (Red Hat 9.2.1-1)
REM options -cpp -mtune=generic -march=x86-64 -g -O0 -fpre-include=/usr/include/finclude/math-vector-fortran.h
REM seed -85514691 1339252766 138354070 -299298876 -1601652513 -1144635033 -776730332 540706054 -105195141 1086018269 1230243252 -567515407 -2131432911 553009665 281078243 62215691 -81957851 -2041784557 523651060 1854937131 -1460246011 -1332901197 -933829798 -349528624 784152809 1856063480 4501384 395876097 1412999555 -2147308496 -452609373 1162823818 1190375414
REM
CELL 1.54180   50.00000   50.00000   50.00000   90.00000   90.00000   90.00000
LATT -1
SFAC C  
C      1  0.5148430000000  0.5303720000000  0.4987450000000 1.0
C      1  0.5187700000000  0.5148530000000  0.5271790000000 1.0
C      1  0.5119580000000  0.4851840000000  0.5213400000000 1.0
C      1  0.5162610000000  0.4638790000000  0.4950170000000 1.0
C      1  0.5183660000000  0.4873670000000  0.4701510000000 1.0
C      1  0.5202980000000  0.5187760000000  0.4706660000000 1.0
C      1  0.4842050000000  0.5210170000000  0.5051820000000 1.0
C      1  0.4799530000000  0.5066210000000  0.5319860000000 1.0
C      1  0.4821690000000  0.4737560000000  0.5293290000000 1.0
C      1  0.4835640000000  0.4641740000000  0.4864320000000 1.0
C      1  0.4797460000000  0.4856440000000  0.4603100000000 1.0
C      1  0.4882420000000  0.5130540000000  0.4746310000000 1.0
C      1  0.5335640000000  0.4954060000000  0.4411820000000 1.0
C      1  0.5437620000000  0.5557200000000  0.4577680000000 1.0
C      1  0.5413820000000  0.5673450000000  0.5216100000000 1.0
C      1  0.5311650000000  0.5147190000000  0.5594700000000 1.0
C      1  0.5307340000000  0.4431460000000  0.5426590000000 1.0
C      1  0.5303060000000  0.4395340000000  0.4758630000000 1.0
C      1  0.4662990000000  0.5092270000000  0.4419680000000 1.0
C      1  0.4662470000000  0.5473250000000  0.4586110000000 1.0
C      1  0.4696330000000  0.5653180000000  0.5313670000000 1.0
C      1  0.4717170000000  0.5108290000000  0.5657300000000 1.0
C      1  0.4703270000000  0.4487690000000  0.5208110000000 1.0
C      1  0.4707520000000  0.4339790000000  0.4743730000000 1.0
C      1  0.4502320000000  0.4595250000000  0.4652910000000 1.0
C      1  0.4398420000000  0.5120580000000  0.4474770000000 1.0
C      1  0.4598470000000  0.5452990000000  0.4850450000000 1.0
C      1  0.4502420000000  0.5393910000000  0.5393150000000 1.0
C      1  0.4522520000000  0.4864700000000  0.5524130000000 1.0
C      1  0.4434250000000  0.4483770000000  0.5187720000000 1.0
C      1  0.5468930000000  0.4618200000000  0.4603020000000 1.0
C      1  0.5529060000000  0.5161700000000  0.4478170000000 1.0
C      1  0.5454340000000  0.5520410000000  0.4849510000000 1.0
C      1  0.5455600000000  0.5432080000000  0.5358390000000 1.0
C      1  0.5407270000000  0.4892940000000  0.5487040000000 1.0
C      1  0.5496320000000  0.4487310000000  0.5156430000000 1.0
C      1  0.5153610000000  0.4687040000000  0.5508860000000 1.0
C      1  0.5183650000000  0.4354040000000  0.5136430000000 1.0
C      1  0.5130920000000  0.4590600000000  0.4554590000000 1.0
C      1  0.5248600000000  0.5344280000000  0.4417270000000 1.0
C      1  0.5172150000000  0.5625610000000  0.5007760000000 1.0
C      1  0.5144580000000  0.5403020000000  0.5493140000000 1.0
C      1  0.4849550000000  0.4801670000000  0.5614320000000 1.0
C      1  0.4900170000000  0.4345050000000  0.5017360000000 1.0
C      1  0.4801530000000  0.4539580000000  0.4485160000000 1.0
C      1  0.4920430000000  0.5311220000000  0.4456950000000 1.0
C      1  0.4842240000000  0.5550190000000  0.5051470000000 1.0
C      1  0.4832480000000  0.5368780000000  0.5471620000000 1.0
C      1  0.4323230000000  0.5060990000000  0.4744180000000 1.0
C      1  0.4395990000000  0.5266200000000  0.4938540000000 1.0
C      1  0.4361340000000  0.5215410000000  0.5222230000000 1.0
C      1  0.4358480000000  0.4936740000000  0.5301050000000 1.0
C      1  0.4318840000000  0.4729110000000  0.5101390000000 1.0
C      1  0.4356880000000  0.4783570000000  0.4819210000000 1.0
C      1  0.5646330000000  0.5091690000000  0.4731930000000 1.0
C      1  0.5630360000000  0.5302680000000  0.4935460000000 1.0
C      1  0.5608050000000  0.5228900000000  0.5213520000000 1.0
C      1  0.5581210000000  0.4943790000000  0.5268940000000 1.0
C      1  0.5614070000000  0.4731320000000  0.5076080000000 1.0
C      1  0.5612750000000  0.4804560000000  0.4793100000000 1.0
END
