TITL C-1154803-8277-417 0.000371562085473303 125000 -299.993613633566 0 0 60 (C1) n - 1
REM
REM in /home/nfs/bkarasulu/CARBON/AIRSS/Generating-Clusters/AIREBO/Higher-Symm/Only-C60
REM
REM
REM
REM
REM
REM ./C.cell (28575a23ae977d3b5fae324c64b13b57)
REM
REM compiler GCC version 9.2.1 20190827 (Red Hat 9.2.1-1)
REM options -cpp -mtune=generic -march=x86-64 -g -O0 -fpre-include=/usr/include/finclude/math-vector-fortran.h
REM seed -437397413 2040197648 128113983 785656286 -433332978 -896105073 -2007335249 -436553266 1435227034 740113836 1724960076 1269467224 784462759 1392819312 520541199 -1948648412 1275415840 -860404515 295944933 1681602425 -424963789 -1629472146 336257686 1453533446 -722424759 370851025 -1033892835 -964141662 1976449500 497020291 2031066088 1135737180 1378888727
REM
CELL 1.54180   50.00000   50.00000   50.00000   90.00000   90.00000   90.00000
LATT -1
SFAC C  
C      1  0.4145090000000  0.4695000000000  0.4834650000000 1.0
C      1  0.4333110000000  0.4704260000000  0.5598300000000 1.0
C      1  0.4961100000000  0.4646010000000  0.5766200000000 1.0
C      1  0.5676190000000  0.4688630000000  0.5467070000000 1.0
C      1  0.5818690000000  0.4765230000000  0.4771950000000 1.0
C      1  0.5315160000000  0.4620460000000  0.4234650000000 1.0
C      1  0.4780910000000  0.4704310000000  0.4396620000000 1.0
C      1  0.5396890000000  0.5220660000000  0.5541570000000 1.0
C      1  0.5718040000000  0.5314700000000  0.5004060000000 1.0
C      1  0.5304830000000  0.5361510000000  0.4553550000000 1.0
C      1  0.4867510000000  0.5308810000000  0.4193690000000 1.0
C      1  0.4358770000000  0.5390110000000  0.4840700000000 1.0
C      1  0.4415880000000  0.5216260000000  0.5369060000000 1.0
C      1  0.4770190000000  0.5338320000000  0.5662730000000 1.0
C      1  0.4618330000000  0.5430070000000  0.5079600000000 1.0
C      1  0.4752670000000  0.5242430000000  0.5329520000000 1.0
C      1  0.5064800000000  0.5328130000000  0.5225330000000 1.0
C      1  0.5385080000000  0.5216030000000  0.5201720000000 1.0
C      1  0.5400520000000  0.5314060000000  0.4876420000000 1.0
C      1  0.4995930000000  0.5328440000000  0.4668240000000 1.0
C      1  0.4686100000000  0.5366300000000  0.4752500000000 1.0
C      1  0.5652670000000  0.4752830000000  0.4995590000000 1.0
C      1  0.5472530000000  0.4700140000000  0.4431370000000 1.0
C      1  0.5090520000000  0.4800240000000  0.4528190000000 1.0
C      1  0.4358610000000  0.4745060000000  0.4668760000000 1.0
C      1  0.4370760000000  0.4619500000000  0.5327630000000 1.0
C      1  0.4782710000000  0.4795880000000  0.5617250000000 1.0
C      1  0.5403850000000  0.4627510000000  0.5498320000000 1.0
C      1  0.5180110000000  0.4842640000000  0.5351760000000 1.0
C      1  0.5356610000000  0.4904980000000  0.5066730000000 1.0
C      1  0.5362220000000  0.4833490000000  0.4732770000000 1.0
C      1  0.4856510000000  0.5021330000000  0.4624410000000 1.0
C      1  0.4617680000000  0.4893740000000  0.4831180000000 1.0
C      1  0.4578220000000  0.4820880000000  0.5141310000000 1.0
C      1  0.4849100000000  0.4916200000000  0.5323670000000 1.0
C      1  0.5231240000000  0.4706540000000  0.5745360000000 1.0
C      1  0.5749060000000  0.4857420000000  0.5252810000000 1.0
C      1  0.5706760000000  0.4867020000000  0.4536790000000 1.0
C      1  0.5040540000000  0.4768940000000  0.4193310000000 1.0
C      1  0.4542670000000  0.4854180000000  0.4442920000000 1.0
C      1  0.4186320000000  0.4747640000000  0.5103400000000 1.0
C      1  0.4530240000000  0.4886270000000  0.5696570000000 1.0
C      1  0.4657130000000  0.5725880000000  0.5161420000000 1.0
C      1  0.4905620000000  0.5819820000000  0.5225230000000 1.0
C      1  0.5118130000000  0.5651330000000  0.5267940000000 1.0
C      1  0.5391570000000  0.5554330000000  0.5263640000000 1.0
C      1  0.5436190000000  0.5626750000000  0.4709160000000 1.0
C      1  0.4887110000000  0.5498480000000  0.4394630000000 1.0
C      1  0.4497480000000  0.5622030000000  0.4631280000000 1.0
C      1  0.4471120000000  0.5124770000000  0.4647090000000 1.0
C      1  0.4312090000000  0.5002070000000  0.5242100000000 1.0
C      1  0.4515850000000  0.5168800000000  0.5643330000000 1.0
C      1  0.5296010000000  0.4987020000000  0.5629110000000 1.0
C      1  0.5713360000000  0.5136860000000  0.5242000000000 1.0
C      1  0.5503550000000  0.5107020000000  0.4593430000000 1.0
C      1  0.4913120000000  0.5060380000000  0.4287360000000 1.0
C      1  0.4963610000000  0.4846770000000  0.5020360000000 1.0
C      1  0.4955670000000  0.4311040000000  0.4952360000000 1.0
C      1  0.5074650000000  0.5161990000000  0.4954110000000 1.0
C      1  0.4970460000000  0.4569790000000  0.4992850000000 1.0
END
