TITL C-1154821-8623-58 -0.00247176292369435 125000 -331.487809387828 0 0 60 (C1) n - 1
REM
REM in /home/nfs/bkarasulu/CARBON/AIRSS/Generating-Clusters/AIREBO/Higher-Symm/Only-C60
REM
REM
REM
REM
REM
REM ./C.cell (28575a23ae977d3b5fae324c64b13b57)
REM
REM compiler GCC version 9.2.1 20190827 (Red Hat 9.2.1-1)
REM options -cpp -mtune=generic -march=x86-64 -g -O0 -fpre-include=/usr/include/finclude/math-vector-fortran.h
REM seed 1367682163 2006312342 1251058501 358379908 -437400500 -538956008 581624137 746049893 1577641656 -45924834 -1157796003 -309228061 1127121109 1505369514 -550613508 -1585438986 1641865058 -1879440637 -1764661190 1827491108 935470438 1055605265 1012787430 -95315877 -1488688849 780621238 922017501 128533329 -1626538170 1667881509 -1632755883 383560441 350735646
REM
CELL 1.54180   50.00000   50.00000   50.00000   90.00000   90.00000   90.00000
LATT -1
SFAC C  
C      1  0.4323570000000  0.5323990000000  0.5052920000000 1.0
C      1  0.4335210000000  0.5328200000000  0.4780600000000 1.0
C      1  0.4711660000000  0.5299420000000  0.5820800000000 1.0
C      1  0.4727650000000  0.5372040000000  0.4172590000000 1.0
C      1  0.4705280000000  0.4479200000000  0.5266710000000 1.0
C      1  0.4802170000000  0.4568270000000  0.4807030000000 1.0
C      1  0.5438230000000  0.4853580000000  0.5239030000000 1.0
C      1  0.5399170000000  0.4849510000000  0.4736470000000 1.0
C      1  0.4431270000000  0.4865560000000  0.4706140000000 1.0
C      1  0.4451520000000  0.4887340000000  0.5297520000000 1.0
C      1  0.5277750000000  0.5278930000000  0.5586040000000 1.0
C      1  0.5227660000000  0.5228910000000  0.4364190000000 1.0
C      1  0.5183060000000  0.4598730000000  0.4658670000000 1.0
C      1  0.5193800000000  0.4480640000000  0.5406870000000 1.0
C      1  0.4600850000000  0.5117550000000  0.4851730000000 1.0
C      1  0.4554040000000  0.5150250000000  0.5186950000000 1.0
C      1  0.5442820000000  0.4382530000000  0.5290820000000 1.0
C      1  0.5413380000000  0.4346610000000  0.4722770000000 1.0
C      1  0.5086050000000  0.5228910000000  0.5239930000000 1.0
C      1  0.5105440000000  0.5235980000000  0.4767280000000 1.0
C      1  0.5527640000000  0.4587020000000  0.4857760000000 1.0
C      1  0.5544080000000  0.4596890000000  0.5132820000000 1.0
C      1  0.4572830000000  0.5130680000000  0.4209530000000 1.0
C      1  0.4604470000000  0.5054120000000  0.5781000000000 1.0
C      1  0.5542630000000  0.5155300000000  0.5125420000000 1.0
C      1  0.5558200000000  0.5146400000000  0.4784280000000 1.0
C      1  0.4789380000000  0.5310580000000  0.5292260000000 1.0
C      1  0.4809180000000  0.5300750000000  0.4654820000000 1.0
C      1  0.5215800000000  0.4735660000000  0.5549460000000 1.0
C      1  0.5232840000000  0.4753640000000  0.4386030000000 1.0
C      1  0.5337980000000  0.5377170000000  0.4865960000000 1.0
C      1  0.5311470000000  0.5387340000000  0.5163540000000 1.0
C      1  0.4822220000000  0.4872320000000  0.4933080000000 1.0
C      1  0.4841750000000  0.4789970000000  0.5262790000000 1.0
C      1  0.4772570000000  0.4896520000000  0.5535820000000 1.0
C      1  0.4799900000000  0.5039510000000  0.4437220000000 1.0
C      1  0.5132380000000  0.4934950000000  0.5172820000000 1.0
C      1  0.5121940000000  0.4950870000000  0.4857310000000 1.0
C      1  0.4804440000000  0.5580330000000  0.5132740000000 1.0
C      1  0.4810030000000  0.5573220000000  0.4860260000000 1.0
C      1  0.4967640000000  0.5431460000000  0.4383690000000 1.0
C      1  0.4943100000000  0.5345210000000  0.5593720000000 1.0
C      1  0.4434810000000  0.4871560000000  0.5593160000000 1.0
C      1  0.4498470000000  0.4915650000000  0.4437550000000 1.0
C      1  0.5515710000000  0.5169510000000  0.5464730000000 1.0
C      1  0.5487760000000  0.5126350000000  0.4461240000000 1.0
C      1  0.5068210000000  0.4979510000000  0.4338260000000 1.0
C      1  0.5054640000000  0.5025640000000  0.5627550000000 1.0
C      1  0.5508030000000  0.4853140000000  0.4352070000000 1.0
C      1  0.5504890000000  0.4872990000000  0.5561270000000 1.0
C      1  0.4953300000000  0.5678330000000  0.5574000000000 1.0
C      1  0.5000450000000  0.5733270000000  0.4455830000000 1.0
C      1  0.4864350000000  0.5778960000000  0.5328820000000 1.0
C      1  0.4884970000000  0.5797490000000  0.4699480000000 1.0
C      1  0.5290320000000  0.4148430000000  0.4906990000000 1.0
C      1  0.5422910000000  0.4130100000000  0.5157830000000 1.0
C      1  0.5055960000000  0.4386450000000  0.4893030000000 1.0
C      1  0.4986980000000  0.4421590000000  0.5213970000000 1.0
C      1  0.4509190000000  0.4635720000000  0.4858440000000 1.0
C      1  0.4486000000000  0.4649270000000  0.5148360000000 1.0
END
