TITL C-1154828-9214-88 -491.068606092532 125000 -305.703980253572 0 0 60 (C1) n - 1
REM
REM in /home/nfs/bkarasulu/CARBON/AIRSS/Generating-Clusters/AIREBO/Higher-Symm/Only-C60
REM
REM
REM
REM
REM
REM ./C.cell (28575a23ae977d3b5fae324c64b13b57)
REM
REM compiler GCC version 9.2.1 20190827 (Red Hat 9.2.1-1)
REM options -cpp -mtune=generic -march=x86-64 -g -O0 -fpre-include=/usr/include/finclude/math-vector-fortran.h
REM seed 1143640683 41109142 914057728 1644814763 1185368741 1773476948 -575587292 -397169474 -1752175350 934050237 -685072845 -933414195 627866765 454394608 618368670 632355333 -1151876907 -123256395 1110725638 1150397758 -479648819 -862220702 -1281521551 -1860168222 339458916 -2050190434 -1670247344 278401280 -1602666827 -967318366 -1085716961 1415750737 -706629089
REM
CELL 1.54180   50.00000   50.00000   50.00000   90.00000   90.00000   90.00000
LATT -1
SFAC C  
C      1  0.4735790000000  0.4846100000000  0.5527110000000 1.0
C      1  0.5199940000000  0.4768730000000  0.5527150000000 1.0
C      1  0.5242130000000  0.5249150000000  0.5526310000000 1.0
C      1  0.4733920000000  0.5330950000000  0.5509600000000 1.0
C      1  0.4723580000000  0.4840090000000  0.4484100000000 1.0
C      1  0.5191410000000  0.4770190000000  0.4467440000000 1.0
C      1  0.5232850000000  0.5248020000000  0.4460490000000 1.0
C      1  0.4721550000000  0.5326280000000  0.4487840000000 1.0
C      1  0.5430060000000  0.4312940000000  0.5121950000000 1.0
C      1  0.5334000000000  0.5649110000000  0.5129040000000 1.0
C      1  0.4363520000000  0.5319390000000  0.5147110000000 1.0
C      1  0.4575200000000  0.4274110000000  0.5121680000000 1.0
C      1  0.5430570000000  0.4312950000000  0.4868690000000 1.0
C      1  0.5330480000000  0.5648980000000  0.4854240000000 1.0
C      1  0.4356950000000  0.5319110000000  0.4853690000000 1.0
C      1  0.4598280000000  0.4261560000000  0.4868980000000 1.0
C      1  0.4685340000000  0.5417460000000  0.5196610000000 1.0
C      1  0.4533890000000  0.4575330000000  0.5221800000000 1.0
C      1  0.5333570000000  0.4609580000000  0.5257250000000 1.0
C      1  0.5411180000000  0.5344600000000  0.5259420000000 1.0
C      1  0.4676150000000  0.5421980000000  0.4797490000000 1.0
C      1  0.4591340000000  0.4550760000000  0.4725540000000 1.0
C      1  0.5330470000000  0.4607990000000  0.4732540000000 1.0
C      1  0.5406730000000  0.5344890000000  0.4722360000000 1.0
C      1  0.5608860000000  0.4974790000000  0.5462530000000 1.0
C      1  0.5151960000000  0.5616360000000  0.5396560000000 1.0
C      1  0.4374290000000  0.5085370000000  0.5311250000000 1.0
C      1  0.4918570000000  0.4420050000000  0.5448190000000 1.0
C      1  0.5601510000000  0.4975180000000  0.4521880000000 1.0
C      1  0.5142710000000  0.5614920000000  0.4590800000000 1.0
C      1  0.4357060000000  0.5083150000000  0.4692580000000 1.0
C      1  0.4915560000000  0.4411970000000  0.4537630000000 1.0
C      1  0.5024410000000  0.4473240000000  0.4794530000000 1.0
C      1  0.5557130000000  0.5048840000000  0.4795740000000 1.0
C      1  0.5007200000000  0.5422320000000  0.4798160000000 1.0
C      1  0.4608290000000  0.4881760000000  0.4801810000000 1.0
C      1  0.5025700000000  0.4480710000000  0.5191840000000 1.0
C      1  0.5561490000000  0.5047670000000  0.5189600000000 1.0
C      1  0.5014350000000  0.5419720000000  0.5193900000000 1.0
C      1  0.4631560000000  0.4889980000000  0.5205190000000 1.0
C      1  0.4932400000000  0.4675030000000  0.4416760000000 1.0
C      1  0.5342400000000  0.4991750000000  0.4394060000000 1.0
C      1  0.4980990000000  0.5397910000000  0.4401000000000 1.0
C      1  0.4565370000000  0.5091500000000  0.4465390000000 1.0
C      1  0.4940410000000  0.4673450000000  0.5583560000000 1.0
C      1  0.5351710000000  0.4992700000000  0.5594610000000 1.0
C      1  0.4994350000000  0.5403200000000  0.5591800000000 1.0
C      1  0.4577620000000  0.5097590000000  0.5541270000000 1.0
C      1  0.4633450000000  0.5715180000000  0.5189220000000 1.0
C      1  0.4299960000000  0.4593350000000  0.5418410000000 1.0
C      1  0.5613420000000  0.4580380000000  0.5408720000000 1.0
C      1  0.5670230000000  0.5466190000000  0.5381630000000 1.0
C      1  0.4624980000000  0.5718840000000  0.4800100000000 1.0
C      1  0.4405490000000  0.4545490000000  0.4480710000000 1.0
C      1  0.5606090000000  0.4580180000000  0.4574200000000 1.0
C      1  0.5663370000000  0.5464860000000  0.4595270000000 1.0
C      1  0.5416980000000  0.4810420000000  0.4993560000000 1.0
C      1  0.5212890000000  0.5273350000000  0.4992470000000 1.0
C      1  0.4707650000000  0.5145510000000  0.4993270000000 1.0
C      1  0.4790690000000  0.4586860000000  0.4998720000000 1.0
END
