TITL C-1154808-8168-113 -0.000513993424145915 125000 -318.834317338011 0 0 60 (C1) n - 1
REM
REM in /home/nfs/bkarasulu/CARBON/AIRSS/Generating-Clusters/AIREBO/Higher-Symm/Only-C60
REM
REM
REM
REM
REM
REM ./C.cell (28575a23ae977d3b5fae324c64b13b57)
REM
REM compiler GCC version 9.2.1 20190827 (Red Hat 9.2.1-1)
REM options -cpp -mtune=generic -march=x86-64 -g -O0 -fpre-include=/usr/include/finclude/math-vector-fortran.h
REM seed -1784468402 -1297538144 -1170737413 977458267 -1489480961 -1555961544 -1736420879 143620770 1507705443 102901030 1091877321 -253602526 60154895 331930670 1200821626 1098681604 -1954147425 -1051750677 1352141402 -760973007 -1396882036 1297200551 -659222191 394778437 1801143149 -608323876 360469831 -878986571 2039377102 1316583682 -2027393311 -1555526541 -747277894
REM
CELL 1.54180   50.00000   50.00000   50.00000   90.00000   90.00000   90.00000
LATT -1
SFAC C  
C      1  0.5007800000000  0.5247310000000  0.5401870000000 1.0
C      1  0.4985040000000  0.4910780000000  0.5358280000000 1.0
C      1  0.4531900000000  0.4402730000000  0.4780920000000 1.0
C      1  0.4510170000000  0.5547820000000  0.4836580000000 1.0
C      1  0.4693350000000  0.5239920000000  0.5056190000000 1.0
C      1  0.4800080000000  0.4753680000000  0.5015780000000 1.0
C      1  0.5223070000000  0.5449920000000  0.4453540000000 1.0
C      1  0.5255510000000  0.4625200000000  0.4473560000000 1.0
C      1  0.4821060000000  0.4349890000000  0.4685060000000 1.0
C      1  0.4783270000000  0.5623520000000  0.4702040000000 1.0
C      1  0.4879570000000  0.5511670000000  0.4979840000000 1.0
C      1  0.4857550000000  0.4437890000000  0.5008510000000 1.0
C      1  0.5412030000000  0.4570050000000  0.4939400000000 1.0
C      1  0.5499570000000  0.5421620000000  0.5010090000000 1.0
C      1  0.4977400000000  0.4739230000000  0.5651780000000 1.0
C      1  0.5027620000000  0.5270460000000  0.5735750000000 1.0
C      1  0.4424780000000  0.5088830000000  0.4968450000000 1.0
C      1  0.4489810000000  0.4827300000000  0.4930710000000 1.0
C      1  0.5332650000000  0.5211640000000  0.5306480000000 1.0
C      1  0.5315530000000  0.4830940000000  0.5334500000000 1.0
C      1  0.4608180000000  0.5148840000000  0.4507140000000 1.0
C      1  0.4568160000000  0.4818700000000  0.4468070000000 1.0
C      1  0.5094260000000  0.5092660000000  0.4329870000000 1.0
C      1  0.5049440000000  0.4820340000000  0.4296030000000 1.0
C      1  0.4922050000000  0.5541100000000  0.4475910000000 1.0
C      1  0.4947860000000  0.4480090000000  0.4477310000000 1.0
C      1  0.4439220000000  0.4660260000000  0.4710600000000 1.0
C      1  0.4440500000000  0.5283690000000  0.4749800000000 1.0
C      1  0.4812610000000  0.4867360000000  0.4699320000000 1.0
C      1  0.4825730000000  0.5177640000000  0.4767900000000 1.0
C      1  0.4877720000000  0.5262020000000  0.4380880000000 1.0
C      1  0.4788020000000  0.4675170000000  0.4305920000000 1.0
C      1  0.5068740000000  0.5572650000000  0.5323680000000 1.0
C      1  0.5013830000000  0.4571900000000  0.5350290000000 1.0
C      1  0.5632070000000  0.5325610000000  0.5374580000000 1.0
C      1  0.5569250000000  0.4629070000000  0.5353580000000 1.0
C      1  0.5184860000000  0.4457900000000  0.5075230000000 1.0
C      1  0.5309420000000  0.5585730000000  0.5157390000000 1.0
C      1  0.5124250000000  0.4850800000000  0.5053910000000 1.0
C      1  0.5091090000000  0.5262600000000  0.5072450000000 1.0
C      1  0.4808740000000  0.5713040000000  0.5230850000000 1.0
C      1  0.4815900000000  0.4307770000000  0.5319950000000 1.0
C      1  0.4448270000000  0.5386180000000  0.5333850000000 1.0
C      1  0.4534830000000  0.4581630000000  0.5387000000000 1.0
C      1  0.5506000000000  0.4845210000000  0.4435570000000 1.0
C      1  0.5379450000000  0.5148050000000  0.4487980000000 1.0
C      1  0.4680790000000  0.4817010000000  0.5477770000000 1.0
C      1  0.4657520000000  0.5139880000000  0.5373530000000 1.0
C      1  0.4543010000000  0.4371380000000  0.5119530000000 1.0
C      1  0.4524990000000  0.5592530000000  0.5141680000000 1.0
C      1  0.5271010000000  0.5123490000000  0.5797330000000 1.0
C      1  0.5245400000000  0.4841690000000  0.5770890000000 1.0
C      1  0.5108990000000  0.5300450000000  0.4734660000000 1.0
C      1  0.5096980000000  0.4728940000000  0.4752120000000 1.0
C      1  0.5405220000000  0.5190930000000  0.4824540000000 1.0
C      1  0.5409160000000  0.4857110000000  0.4760020000000 1.0
C      1  0.5472170000000  0.4720470000000  0.5631360000000 1.0
C      1  0.5474740000000  0.5238090000000  0.5627500000000 1.0
C      1  0.5646900000000  0.4542470000000  0.5102090000000 1.0
C      1  0.5774910000000  0.5409140000000  0.5132600000000 1.0
END
