TITL C-1154828-9214-262 0.000325923104171978 125000 -349.570676499235 0 0 60 (C1) n - 1
REM
REM in /home/nfs/bkarasulu/CARBON/AIRSS/Generating-Clusters/AIREBO/Higher-Symm/Only-C60
REM
REM
REM
REM
REM
REM ./C.cell (28575a23ae977d3b5fae324c64b13b57)
REM
REM compiler GCC version 9.2.1 20190827 (Red Hat 9.2.1-1)
REM options -cpp -mtune=generic -march=x86-64 -g -O0 -fpre-include=/usr/include/finclude/math-vector-fortran.h
REM seed 155460566 710299481 -404087279 -734504706 150482043 -935488176 2067029745 89662344 958873088 -477242592 1639003490 819181353 -1260287792 1850416844 -1084444949 -1506224780 -1791788315 -799801620 -1349067553 -2023645726 1557934870 -1371356222 -1293897363 611882979 1269795783 -1733951455 61564306 -1330596264 1050774923 1928985962 1612184440 -394366512 1077895996
REM
CELL 1.54180   50.00000   50.00000   50.00000   90.00000   90.00000   90.00000
LATT -1
SFAC C  
C      1  0.4234450000000  0.4610080000000  0.5510930000000 1.0
C      1  0.5696180000000  0.5523990000000  0.5513170000000 1.0
C      1  0.4087160000000  0.4801590000000  0.4466110000000 1.0
C      1  0.5832150000000  0.5269620000000  0.4507220000000 1.0
C      1  0.4913230000000  0.4499930000000  0.4961670000000 1.0
C      1  0.5171310000000  0.5386390000000  0.4870010000000 1.0
C      1  0.5058890000000  0.4624320000000  0.5198510000000 1.0
C      1  0.5090810000000  0.5244630000000  0.5128870000000 1.0
C      1  0.4691340000000  0.4949240000000  0.5624370000000 1.0
C      1  0.5390410000000  0.5049870000000  0.5673370000000 1.0
C      1  0.4628970000000  0.5004690000000  0.4401160000000 1.0
C      1  0.5347490000000  0.4960610000000  0.4497830000000 1.0
C      1  0.5813050000000  0.5168550000000  0.5196210000000 1.0
C      1  0.4146520000000  0.4952100000000  0.5166880000000 1.0
C      1  0.5871920000000  0.5078060000000  0.4950560000000 1.0
C      1  0.4142800000000  0.5017620000000  0.4907220000000 1.0
C      1  0.5236680000000  0.4832650000000  0.5654250000000 1.0
C      1  0.4907480000000  0.5108270000000  0.5644750000000 1.0
C      1  0.5103170000000  0.4830890000000  0.4459680000000 1.0
C      1  0.4890330000000  0.5017160000000  0.4484610000000 1.0
C      1  0.5441220000000  0.5577840000000  0.5574960000000 1.0
C      1  0.4463910000000  0.4503060000000  0.5617810000000 1.0
C      1  0.5614690000000  0.5402740000000  0.4435580000000 1.0
C      1  0.4269920000000  0.4639550000000  0.4328910000000 1.0
C      1  0.4669540000000  0.4134660000000  0.5123600000000 1.0
C      1  0.5230030000000  0.5830880000000  0.5076480000000 1.0
C      1  0.4716920000000  0.4304830000000  0.4903690000000 1.0
C      1  0.5229850000000  0.5664730000000  0.4850640000000 1.0
C      1  0.4849210000000  0.5419980000000  0.5103800000000 1.0
C      1  0.5278660000000  0.4406300000000  0.5085260000000 1.0
C      1  0.4775510000000  0.5418030000000  0.4826940000000 1.0
C      1  0.5166520000000  0.4481600000000  0.4779590000000 1.0
C      1  0.4838090000000  0.4163670000000  0.5344920000000 1.0
C      1  0.5065380000000  0.5834530000000  0.5300180000000 1.0
C      1  0.4660020000000  0.4285900000000  0.4634950000000 1.0
C      1  0.5258310000000  0.5772830000000  0.4599940000000 1.0
C      1  0.5145290000000  0.4250810000000  0.5309970000000 1.0
C      1  0.4847360000000  0.5609330000000  0.5312140000000 1.0
C      1  0.4870180000000  0.4395520000000  0.4418620000000 1.0
C      1  0.5224590000000  0.5877470000000  0.4303780000000 1.0
C      1  0.4554020000000  0.4494790000000  0.4408340000000 1.0
C      1  0.5349340000000  0.5567780000000  0.4358250000000 1.0
C      1  0.4953290000000  0.4401070000000  0.5532640000000 1.0
C      1  0.5104230000000  0.5606160000000  0.5536780000000 1.0
C      1  0.5245890000000  0.5317700000000  0.5607090000000 1.0
C      1  0.4745410000000  0.4635770000000  0.5591920000000 1.0
C      1  0.5308770000000  0.5269150000000  0.4500490000000 1.0
C      1  0.4546840000000  0.4780950000000  0.4253230000000 1.0
C      1  0.5084000000000  0.4551880000000  0.4517760000000 1.0
C      1  0.4994070000000  0.5273430000000  0.4612090000000 1.0
C      1  0.5006890000000  0.4784120000000  0.5434490000000 1.0
C      1  0.5116540000000  0.5104980000000  0.5387510000000 1.0
C      1  0.4190060000000  0.5008090000000  0.4634010000000 1.0
C      1  0.5801810000000  0.5048830000000  0.4682210000000 1.0
C      1  0.4243110000000  0.4876400000000  0.5415170000000 1.0
C      1  0.5776490000000  0.5255870000000  0.5457970000000 1.0
C      1  0.5596150000000  0.4872900000000  0.4595570000000 1.0
C      1  0.4412990000000  0.5145020000000  0.4520630000000 1.0
C      1  0.5669940000000  0.5069580000000  0.5645180000000 1.0
C      1  0.4430590000000  0.5031000000000  0.5559500000000 1.0
END
