TITL C-1154827-9204-407 -0.000159254775329832 125000 -328.546536501536 0 0 60 (C1) n - 1
REM
REM in /home/nfs/bkarasulu/CARBON/AIRSS/Generating-Clusters/AIREBO/Higher-Symm/Only-C60
REM
REM
REM
REM
REM
REM ./C.cell (28575a23ae977d3b5fae324c64b13b57)
REM
REM compiler GCC version 9.2.1 20190827 (Red Hat 9.2.1-1)
REM options -cpp -mtune=generic -march=x86-64 -g -O0 -fpre-include=/usr/include/finclude/math-vector-fortran.h
REM seed 436700438 -1687475344 -658142204 1481361814 1431643883 -1899114674 1624797437 1948783078 1446407651 -2077851041 -2119148694 914695598 1019415028 454221700 205449289 827139010 2146134338 -1459422889 1737365961 -1011144660 -1541909408 588594316 2067462550 1438168310 -1405455989 -1164370309 -1590212154 941596778 -1816121010 698404032 132759381 631467083 -1504294660
REM
CELL 1.54180   50.00000   50.00000   50.00000   90.00000   90.00000   90.00000
LATT -1
SFAC C  
C      1  0.4790810000000  0.4922930000000  0.4614010000000 1.0
C      1  0.4745030000000  0.5062030000000  0.5361690000000 1.0
C      1  0.5414060000000  0.5000360000000  0.4693560000000 1.0
C      1  0.5390410000000  0.5085940000000  0.5257150000000 1.0
C      1  0.4597980000000  0.5151350000000  0.4461370000000 1.0
C      1  0.4534870000000  0.4797820000000  0.5402220000000 1.0
C      1  0.5180900000000  0.5595790000000  0.5446610000000 1.0
C      1  0.5222430000000  0.4380690000000  0.4672510000000 1.0
C      1  0.4963920000000  0.5388490000000  0.5462060000000 1.0
C      1  0.4988430000000  0.4535380000000  0.4572690000000 1.0
C      1  0.5469100000000  0.4816690000000  0.5300960000000 1.0
C      1  0.5530680000000  0.5235930000000  0.4470100000000 1.0
C      1  0.4595740000000  0.4841540000000  0.5009670000000 1.0
C      1  0.4637670000000  0.5176800000000  0.4970710000000 1.0
C      1  0.5218270000000  0.4644330000000  0.5043740000000 1.0
C      1  0.5181140000000  0.5518170000000  0.4958550000000 1.0
C      1  0.5441230000000  0.5347170000000  0.5095390000000 1.0
C      1  0.5476870000000  0.4790870000000  0.4878600000000 1.0
C      1  0.5475340000000  0.4470680000000  0.4799220000000 1.0
C      1  0.5428640000000  0.5493180000000  0.5382180000000 1.0
C      1  0.4930970000000  0.4689020000000  0.4324270000000 1.0
C      1  0.4904890000000  0.5176160000000  0.5709040000000 1.0
C      1  0.4380060000000  0.5220020000000  0.5401690000000 1.0
C      1  0.4406260000000  0.4822260000000  0.4578100000000 1.0
C      1  0.5009750000000  0.4832680000000  0.5135200000000 1.0
C      1  0.5007070000000  0.5046460000000  0.4916610000000 1.0
C      1  0.4668260000000  0.5646490000000  0.5086310000000 1.0
C      1  0.4660400000000  0.4368720000000  0.4952260000000 1.0
C      1  0.4905710000000  0.5581870000000  0.4653960000000 1.0
C      1  0.4844440000000  0.4382590000000  0.5399700000000 1.0
C      1  0.5120910000000  0.4961700000000  0.4638410000000 1.0
C      1  0.5084950000000  0.5065860000000  0.5370960000000 1.0
C      1  0.5330830000000  0.5495380000000  0.4580970000000 1.0
C      1  0.5459770000000  0.4436490000000  0.5387460000000 1.0
C      1  0.5469370000000  0.5295390000000  0.4799030000000 1.0
C      1  0.5606140000000  0.4575200000000  0.5104340000000 1.0
C      1  0.4772480000000  0.4654020000000  0.5228360000000 1.0
C      1  0.4925560000000  0.5344830000000  0.4903610000000 1.0
C      1  0.5129110000000  0.5844300000000  0.5339630000000 1.0
C      1  0.5141710000000  0.4131170000000  0.4790260000000 1.0
C      1  0.5089980000000  0.4176280000000  0.5064540000000 1.0
C      1  0.5120800000000  0.5843630000000  0.5030730000000 1.0
C      1  0.4716270000000  0.5342200000000  0.4301810000000 1.0
C      1  0.4759550000000  0.4770500000000  0.5638960000000 1.0
C      1  0.5261240000000  0.4384860000000  0.5163090000000 1.0
C      1  0.5275900000000  0.5760410000000  0.4739530000000 1.0
C      1  0.4447150000000  0.5086470000000  0.4730530000000 1.0
C      1  0.4378040000000  0.5004640000000  0.5215060000000 1.0
C      1  0.5117230000000  0.4940710000000  0.5685480000000 1.0
C      1  0.5081230000000  0.4943060000000  0.4313420000000 1.0
C      1  0.4624430000000  0.4746250000000  0.4375740000000 1.0
C      1  0.4594160000000  0.5211410000000  0.5627280000000 1.0
C      1  0.4951530000000  0.5452790000000  0.4411530000000 1.0
C      1  0.4957360000000  0.4590960000000  0.5577220000000 1.0
C      1  0.4708900000000  0.5376170000000  0.5236820000000 1.0
C      1  0.4729980000000  0.4630560000000  0.4776600000000 1.0
C      1  0.5199530000000  0.5254910000000  0.4379550000000 1.0
C      1  0.5267790000000  0.4679910000000  0.5527350000000 1.0
C      1  0.4826240000000  0.4241310000000  0.5145040000000 1.0
C      1  0.4850530000000  0.5736240000000  0.4906580000000 1.0
END
