TITL C-1154821-8623-601 -0.000799113938457841 125000 -325.30034843089 0 0 60 (C1) n - 1
REM
REM in /home/nfs/bkarasulu/CARBON/AIRSS/Generating-Clusters/AIREBO/Higher-Symm/Only-C60
REM
REM
REM
REM
REM
REM ./C.cell (28575a23ae977d3b5fae324c64b13b57)
REM
REM compiler GCC version 9.2.1 20190827 (Red Hat 9.2.1-1)
REM options -cpp -mtune=generic -march=x86-64 -g -O0 -fpre-include=/usr/include/finclude/math-vector-fortran.h
REM seed 1800353962 1320992851 -1801683234 356381524 -198542656 -258824122 -763919145 888955133 -1471920472 962646031 -1589618837 901361688 -1007957098 745006103 864896773 1802098034 -953359122 944414187 -1554702699 -525329564 864997924 -1718181925 -915186539 1642015542 2778476 -1227100877 -936811920 -1997373422 1700370920 473291841 1545602452 423631451 -1924549474
REM
CELL 1.54180   50.00000   50.00000   50.00000   90.00000   90.00000   90.00000
LATT -1
SFAC C  
C      1  0.5266890000000  0.4334910000000  0.5066360000000 1.0
C      1  0.4186910000000  0.4878830000000  0.5168400000000 1.0
C      1  0.4965460000000  0.5232460000000  0.5568540000000 1.0
C      1  0.4932120000000  0.4516690000000  0.4717260000000 1.0
C      1  0.5305360000000  0.5633050000000  0.5325790000000 1.0
C      1  0.5341550000000  0.5116960000000  0.5505620000000 1.0
C      1  0.4680430000000  0.4332370000000  0.5070170000000 1.0
C      1  0.4466430000000  0.4777720000000  0.4515640000000 1.0
C      1  0.5557440000000  0.5009690000000  0.4292580000000 1.0
C      1  0.5551170000000  0.4891580000000  0.4824640000000 1.0
C      1  0.5072940000000  0.5209420000000  0.4349100000000 1.0
C      1  0.4929160000000  0.5020050000000  0.4670620000000 1.0
C      1  0.5119800000000  0.5188000000000  0.5278940000000 1.0
C      1  0.5011300000000  0.4746960000000  0.5824090000000 1.0
C      1  0.4536060000000  0.5317210000000  0.5802890000000 1.0
C      1  0.4660310000000  0.5652270000000  0.5212890000000 1.0
C      1  0.5167140000000  0.4608080000000  0.4593860000000 1.0
C      1  0.5477410000000  0.5420900000000  0.4819720000000 1.0
C      1  0.5302630000000  0.4826540000000  0.5674860000000 1.0
C      1  0.4577720000000  0.5409690000000  0.4819520000000 1.0
C      1  0.4579300000000  0.5011100000000  0.4329800000000 1.0
C      1  0.5401090000000  0.4876480000000  0.5194350000000 1.0
C      1  0.4488220000000  0.4372490000000  0.4863570000000 1.0
C      1  0.5671960000000  0.5119930000000  0.5474280000000 1.0
C      1  0.4659340000000  0.4901810000000  0.4766630000000 1.0
C      1  0.4555020000000  0.5183530000000  0.5072460000000 1.0
C      1  0.5005120000000  0.5487350000000  0.4499930000000 1.0
C      1  0.4875610000000  0.5288710000000  0.4834140000000 1.0
C      1  0.4681240000000  0.5317140000000  0.5571240000000 1.0
C      1  0.5234660000000  0.4897350000000  0.4700510000000 1.0
C      1  0.4845910000000  0.5642000000000  0.5015410000000 1.0
C      1  0.4587800000000  0.5401500000000  0.5324250000000 1.0
C      1  0.5469620000000  0.4407400000000  0.4866450000000 1.0
C      1  0.4881470000000  0.5080960000000  0.5084310000000 1.0
C      1  0.5572580000000  0.4620500000000  0.5291470000000 1.0
C      1  0.5576670000000  0.5101580000000  0.5182590000000 1.0
C      1  0.5390170000000  0.4364580000000  0.5315350000000 1.0
C      1  0.4566480000000  0.4418370000000  0.5335400000000 1.0
C      1  0.5326760000000  0.5400690000000  0.4579270000000 1.0
C      1  0.5148580000000  0.4878000000000  0.5028930000000 1.0
C      1  0.5619560000000  0.4644220000000  0.4956280000000 1.0
C      1  0.4388180000000  0.4621900000000  0.4807580000000 1.0
C      1  0.4236370000000  0.5256530000000  0.5088640000000 1.0
C      1  0.4947780000000  0.4727140000000  0.5251740000000 1.0
C      1  0.5071210000000  0.5430940000000  0.5073370000000 1.0
C      1  0.5589290000000  0.4815200000000  0.5541380000000 1.0
C      1  0.5190050000000  0.5485660000000  0.5533430000000 1.0
C      1  0.5350760000000  0.5552590000000  0.5032620000000 1.0
C      1  0.4461320000000  0.4858000000000  0.5041150000000 1.0
C      1  0.4665910000000  0.5454010000000  0.4503960000000 1.0
C      1  0.4817260000000  0.5669240000000  0.4717280000000 1.0
C      1  0.5350450000000  0.5097750000000  0.4451390000000 1.0
C      1  0.4976410000000  0.4462170000000  0.5036730000000 1.0
C      1  0.4706670000000  0.4550000000000  0.4579690000000 1.0
C      1  0.5008180000000  0.4897080000000  0.5527600000000 1.0
C      1  0.4855820000000  0.5011080000000  0.4359580000000 1.0
C      1  0.5620010000000  0.5182210000000  0.4901060000000 1.0
C      1  0.5379480000000  0.4426800000000  0.4601520000000 1.0
C      1  0.4639730000000  0.4687920000000  0.5247770000000 1.0
C      1  0.4499740000000  0.5274710000000  0.4315390000000 1.0
END
