TITL C-1154803-8277-612 -0.000926372627460183 125000 -336.508555999248 0 0 60 (C1) n - 1
REM
REM in /home/nfs/bkarasulu/CARBON/AIRSS/Generating-Clusters/AIREBO/Higher-Symm/Only-C60
REM
REM
REM
REM
REM
REM ./C.cell (28575a23ae977d3b5fae324c64b13b57)
REM
REM compiler GCC version 9.2.1 20190827 (Red Hat 9.2.1-1)
REM options -cpp -mtune=generic -march=x86-64 -g -O0 -fpre-include=/usr/include/finclude/math-vector-fortran.h
REM seed -1956683377 2119674290 595774457 -1606538895 1031376471 117234953 1809415842 -929090419 769862540 1002110495 -1972265572 126357493 1139724114 -159879769 -547046415 -879069673 1742635249 -591506273 1067077999 127483076 -1681382953 -1722618578 -1591946320 -1694878345 -1790130017 -796473930 1857099736 353356027 1323348050 -2132219019 149651922 -1263343328 -1979919263
REM
CELL 1.54180   50.00000   50.00000   50.00000   90.00000   90.00000   90.00000
LATT -1
SFAC C  
C      1  0.4664080000000  0.4889210000000  0.5242640000000 1.0
C      1  0.5328180000000  0.5238490000000  0.5210800000000 1.0
C      1  0.4668940000000  0.4684050000000  0.4597470000000 1.0
C      1  0.5340790000000  0.5242710000000  0.4624400000000 1.0
C      1  0.5297010000000  0.4488900000000  0.5700260000000 1.0
C      1  0.4811480000000  0.5491200000000  0.5762230000000 1.0
C      1  0.5173850000000  0.4431830000000  0.4475420000000 1.0
C      1  0.4813000000000  0.5649300000000  0.4474670000000 1.0
C      1  0.5034050000000  0.5265240000000  0.5084100000000 1.0
C      1  0.4922470000000  0.4747070000000  0.5081670000000 1.0
C      1  0.5046360000000  0.5343970000000  0.4757840000000 1.0
C      1  0.4956250000000  0.4692540000000  0.4756790000000 1.0
C      1  0.4530530000000  0.5563050000000  0.4833860000000 1.0
C      1  0.5455960000000  0.4394200000000  0.4832500000000 1.0
C      1  0.4559630000000  0.5495780000000  0.5106520000000 1.0
C      1  0.5465740000000  0.4385740000000  0.5116250000000 1.0
C      1  0.5263790000000  0.5721170000000  0.4837170000000 1.0
C      1  0.4719030000000  0.4254880000000  0.4844430000000 1.0
C      1  0.5192760000000  0.5663860000000  0.5397010000000 1.0
C      1  0.4777870000000  0.4398870000000  0.5386150000000 1.0
C      1  0.5338160000000  0.5132740000000  0.5516090000000 1.0
C      1  0.4599590000000  0.5087020000000  0.5511670000000 1.0
C      1  0.5269840000000  0.5018020000000  0.4431010000000 1.0
C      1  0.4695440000000  0.4866420000000  0.4344490000000 1.0
C      1  0.4753220000000  0.5719880000000  0.4746650000000 1.0
C      1  0.5208610000000  0.4303270000000  0.4725730000000 1.0
C      1  0.4636660000000  0.5710860000000  0.5288960000000 1.0
C      1  0.5261300000000  0.4207500000000  0.5242990000000 1.0
C      1  0.5474090000000  0.4632340000000  0.5251810000000 1.0
C      1  0.4716350000000  0.5213530000000  0.5150720000000 1.0
C      1  0.5500230000000  0.4643000000000  0.4698560000000 1.0
C      1  0.4516450000000  0.5334940000000  0.4660390000000 1.0
C      1  0.4912580000000  0.5015880000000  0.5528130000000 1.0
C      1  0.5160480000000  0.4928170000000  0.5546240000000 1.0
C      1  0.4831210000000  0.5099540000000  0.4319100000000 1.0
C      1  0.5096280000000  0.5078870000000  0.4233120000000 1.0
C      1  0.4821700000000  0.5344240000000  0.5522660000000 1.0
C      1  0.5243140000000  0.4645340000000  0.5470510000000 1.0
C      1  0.4801140000000  0.5315080000000  0.4522930000000 1.0
C      1  0.5229070000000  0.4752540000000  0.4562400000000 1.0
C      1  0.4637750000000  0.4622780000000  0.5452220000000 1.0
C      1  0.5354890000000  0.5447320000000  0.5460000000000 1.0
C      1  0.4618130000000  0.4370440000000  0.4617700000000 1.0
C      1  0.5350180000000  0.5569750000000  0.4629170000000 1.0
C      1  0.4926380000000  0.5535020000000  0.5261000000000 1.0
C      1  0.5053880000000  0.4477010000000  0.5241160000000 1.0
C      1  0.4984890000000  0.5630430000000  0.4930490000000 1.0
C      1  0.4980100000000  0.4391330000000  0.4912820000000 1.0
C      1  0.4667240000000  0.4152900000000  0.5310410000000 1.0
C      1  0.5298130000000  0.5897610000000  0.5282420000000 1.0
C      1  0.4622170000000  0.4087740000000  0.5045690000000 1.0
C      1  0.5373200000000  0.5908340000000  0.5015310000000 1.0
C      1  0.4400390000000  0.4815040000000  0.5041230000000 1.0
C      1  0.5547460000000  0.5121000000000  0.5068610000000 1.0
C      1  0.4440040000000  0.4818360000000  0.4738310000000 1.0
C      1  0.5581020000000  0.5143760000000  0.4776410000000 1.0
C      1  0.4394050000000  0.5135170000000  0.5083210000000 1.0
C      1  0.5622650000000  0.4837310000000  0.5140510000000 1.0
C      1  0.4400890000000  0.5113310000000  0.4776730000000 1.0
C      1  0.5659280000000  0.4834090000000  0.4820270000000 1.0
END
