TITL C-1154823-9327-376 0.00188777713324255 125000 -316.173696730402 0 0 60 (C1) n - 1
REM
REM in /home/nfs/bkarasulu/CARBON/AIRSS/Generating-Clusters/AIREBO/Higher-Symm/Only-C60
REM
REM
REM
REM
REM
REM ./C.cell (28575a23ae977d3b5fae324c64b13b57)
REM
REM compiler GCC version 9.2.1 20190827 (Red Hat 9.2.1-1)
REM options -cpp -mtune=generic -march=x86-64 -g -O0 -fpre-include=/usr/include/finclude/math-vector-fortran.h
REM seed 1136367755 1000563548 -1725106376 -876984175 -1697540230 -484932240 788559172 -1552841381 -1566685500 -1972459118 -1288491884 -1428227564 820390714 -1179285221 -1110761270 -693271242 1137736426 442083808 -119286470 -851718078 941393772 -1197801219 2112599872 563174988 -264133491 -536496065 -370120121 -443090099 1631071017 -125092265 468289178 876191182 628687384
REM
CELL 1.54180   50.00000   50.00000   50.00000   90.00000   90.00000   90.00000
LATT -1
SFAC C  
C      1  0.5285950000000  0.5517650000000  0.5347580000000 1.0
C      1  0.5278560000000  0.4496400000000  0.4762520000000 1.0
C      1  0.4822460000000  0.5486230000000  0.4566670000000 1.0
C      1  0.4653430000000  0.4522500000000  0.5277180000000 1.0
C      1  0.5354730000000  0.5567520000000  0.4841390000000 1.0
C      1  0.4807730000000  0.4505720000000  0.4659350000000 1.0
C      1  0.4465830000000  0.5465650000000  0.5038840000000 1.0
C      1  0.5130300000000  0.4483710000000  0.5368560000000 1.0
C      1  0.4892220000000  0.5806960000000  0.4659950000000 1.0
C      1  0.4654900000000  0.4149540000000  0.5091040000000 1.0
C      1  0.5057970000000  0.5743050000000  0.5250920000000 1.0
C      1  0.5281040000000  0.4190150000000  0.4910230000000 1.0
C      1  0.5340400000000  0.5257340000000  0.4920640000000 1.0
C      1  0.4880240000000  0.4788700000000  0.4755120000000 1.0
C      1  0.4762890000000  0.5284020000000  0.5025500000000 1.0
C      1  0.5073790000000  0.4752650000000  0.5289790000000 1.0
C      1  0.4763260000000  0.4844260000000  0.5267040000000 1.0
C      1  0.5241530000000  0.5200900000000  0.5241060000000 1.0
C      1  0.5180550000000  0.4784350000000  0.4805560000000 1.0
C      1  0.4851850000000  0.5199540000000  0.4728670000000 1.0
C      1  0.4833240000000  0.5592170000000  0.5109480000000 1.0
C      1  0.5120190000000  0.4106080000000  0.5187700000000 1.0
C      1  0.5137490000000  0.5892110000000  0.4882240000000 1.0
C      1  0.4787280000000  0.4079260000000  0.4802040000000 1.0
C      1  0.5018130000000  0.4277070000000  0.4722400000000 1.0
C      1  0.4686960000000  0.5626620000000  0.4836850000000 1.0
C      1  0.4889300000000  0.4312920000000  0.5236670000000 1.0
C      1  0.5346990000000  0.5752630000000  0.5104230000000 1.0
C      1  0.5247180000000  0.5402100000000  0.4343930000000 1.0
C      1  0.4345630000000  0.4585950000000  0.4911870000000 1.0
C      1  0.4826800000000  0.5391360000000  0.5522240000000 1.0
C      1  0.5619110000000  0.4572410000000  0.5119670000000 1.0
C      1  0.4873890000000  0.5071600000000  0.5627920000000 1.0
C      1  0.5574530000000  0.4842490000000  0.5115840000000 1.0
C      1  0.5275280000000  0.5145460000000  0.4435590000000 1.0
C      1  0.4411410000000  0.4861700000000  0.4917390000000 1.0
C      1  0.4753950000000  0.5762090000000  0.5395480000000 1.0
C      1  0.5435480000000  0.4174540000000  0.5213510000000 1.0
C      1  0.5219250000000  0.5845920000000  0.4575560000000 1.0
C      1  0.4494200000000  0.4202860000000  0.4811610000000 1.0
C      1  0.4523320000000  0.4980050000000  0.5459490000000 1.0
C      1  0.5415270000000  0.4995530000000  0.5449210000000 1.0
C      1  0.5647920000000  0.5298770000000  0.4812420000000 1.0
C      1  0.4669840000000  0.4957390000000  0.4575470000000 1.0
C      1  0.5446040000000  0.4449750000000  0.5358540000000 1.0
C      1  0.5404490000000  0.5602880000000  0.4510310000000 1.0
C      1  0.4491200000000  0.4473990000000  0.4648600000000 1.0
C      1  0.4543690000000  0.5496240000000  0.5365810000000 1.0
C      1  0.4467860000000  0.4777080000000  0.4496000000000 1.0
C      1  0.4466720000000  0.5217920000000  0.5507360000000 1.0
C      1  0.5481460000000  0.4758220000000  0.5495360000000 1.0
C      1  0.5678130000000  0.5472700000000  0.4627220000000 1.0
C      1  0.5579390000000  0.4453210000000  0.4875280000000 1.0
C      1  0.4984940000000  0.5471950000000  0.4301220000000 1.0
C      1  0.4409980000000  0.4468010000000  0.5162170000000 1.0
C      1  0.5096840000000  0.5540810000000  0.5591660000000 1.0
C      1  0.5162270000000  0.5096700000000  0.4725370000000 1.0
C      1  0.4678160000000  0.4898150000000  0.4969750000000 1.0
C      1  0.4909680000000  0.5149740000000  0.5297720000000 1.0
C      1  0.5266870000000  0.4896730000000  0.5091170000000 1.0
END
