TITL C-1154826-9507-464 -0.000174873752430762 125000 -328.565746137211 0 0 60 (C1) n - 1
REM
REM in /home/nfs/bkarasulu/CARBON/AIRSS/Generating-Clusters/AIREBO/Higher-Symm/Only-C60
REM
REM
REM
REM
REM
REM ./C.cell (28575a23ae977d3b5fae324c64b13b57)
REM
REM compiler GCC version 9.2.1 20190827 (Red Hat 9.2.1-1)
REM options -cpp -mtune=generic -march=x86-64 -g -O0 -fpre-include=/usr/include/finclude/math-vector-fortran.h
REM seed 676520016 -2005052747 5675178 -999015139 724352766 -353154277 -1702292075 734385552 2013669199 185437120 -1538567044 -1866959725 1804668483 -1774892663 -631964287 -494115452 1508341709 458904950 1645648486 -954257944 1409647455 -240074789 -813442596 -2014815171 -802997761 1083361333 1162846324 -989775868 1384373868 -196717101 2084395964 945607156 -1644477936
REM
CELL 1.54180   50.00000   50.00000   50.00000   90.00000   90.00000   90.00000
LATT -1
SFAC C  
C      1  0.4733160000000  0.4727160000000  0.4610370000000 1.0
C      1  0.5279660000000  0.5115450000000  0.4611740000000 1.0
C      1  0.4744040000000  0.4702790000000  0.5414600000000 1.0
C      1  0.5306270000000  0.5154680000000  0.5395080000000 1.0
C      1  0.5302260000000  0.4796840000000  0.4643770000000 1.0
C      1  0.4696460000000  0.5322410000000  0.4601410000000 1.0
C      1  0.5316590000000  0.4845340000000  0.5409590000000 1.0
C      1  0.4731950000000  0.5280970000000  0.5392430000000 1.0
C      1  0.5169520000000  0.5231620000000  0.5142750000000 1.0
C      1  0.4880240000000  0.4711470000000  0.5158480000000 1.0
C      1  0.5134140000000  0.5242810000000  0.4841250000000 1.0
C      1  0.4847250000000  0.4679810000000  0.4868290000000 1.0
C      1  0.4867680000000  0.5257550000000  0.5135900000000 1.0
C      1  0.5183940000000  0.4727780000000  0.5169130000000 1.0
C      1  0.4833640000000  0.5303840000000  0.4850640000000 1.0
C      1  0.5152410000000  0.4688810000000  0.4870540000000 1.0
C      1  0.4532080000000  0.4407760000000  0.5566250000000 1.0
C      1  0.5400640000000  0.5543080000000  0.5513950000000 1.0
C      1  0.4534970000000  0.4478080000000  0.4382370000000 1.0
C      1  0.5381280000000  0.5474930000000  0.4470120000000 1.0
C      1  0.5426110000000  0.4483240000000  0.5539270000000 1.0
C      1  0.4507620000000  0.5572940000000  0.5532490000000 1.0
C      1  0.5400620000000  0.4444670000000  0.4482620000000 1.0
C      1  0.4504670000000  0.5624870000000  0.4442920000000 1.0
C      1  0.5761450000000  0.4806280000000  0.4860400000000 1.0
C      1  0.4259430000000  0.5184850000000  0.4840420000000 1.0
C      1  0.5758300000000  0.4864020000000  0.5162440000000 1.0
C      1  0.4290660000000  0.5129370000000  0.5139620000000 1.0
C      1  0.4283280000000  0.4869150000000  0.4840230000000 1.0
C      1  0.5737950000000  0.5119360000000  0.4859180000000 1.0
C      1  0.4298380000000  0.4820830000000  0.5148000000000 1.0
C      1  0.5754360000000  0.5175790000000  0.5160880000000 1.0
C      1  0.4869080000000  0.4897930000000  0.4395090000000 1.0
C      1  0.5138050000000  0.5189670000000  0.4332460000000 1.0
C      1  0.4892980000000  0.4865880000000  0.5631210000000 1.0
C      1  0.5138090000000  0.5262340000000  0.5622760000000 1.0
C      1  0.5165270000000  0.4835920000000  0.4343920000000 1.0
C      1  0.4817150000000  0.5176460000000  0.4363460000000 1.0
C      1  0.5150750000000  0.4751730000000  0.5645580000000 1.0
C      1  0.4885990000000  0.5136490000000  0.5619900000000 1.0
C      1  0.4416970000000  0.4731680000000  0.4581460000000 1.0
C      1  0.5577180000000  0.5232610000000  0.4607000000000 1.0
C      1  0.4425350000000  0.4692130000000  0.5408820000000 1.0
C      1  0.5592500000000  0.5287620000000  0.5405690000000 1.0
C      1  0.5596210000000  0.4681890000000  0.4623820000000 1.0
C      1  0.4383280000000  0.5339390000000  0.4591880000000 1.0
C      1  0.5615330000000  0.4739990000000  0.5420470000000 1.0
C      1  0.4412330000000  0.5275130000000  0.5393960000000 1.0
C      1  0.5129340000000  0.4451410000000  0.5638470000000 1.0
C      1  0.4817480000000  0.5573880000000  0.5541870000000 1.0
C      1  0.5150810000000  0.4522700000000  0.4391230000000 1.0
C      1  0.4823010000000  0.5571470000000  0.4416310000000 1.0
C      1  0.4842140000000  0.4424790000000  0.5583680000000 1.0
C      1  0.5103450000000  0.5559500000000  0.5599620000000 1.0
C      1  0.4857250000000  0.4497480000000  0.4393350000000 1.0
C      1  0.5097500000000  0.5516460000000  0.4380760000000 1.0
C      1  0.4303230000000  0.5030350000000  0.4475710000000 1.0
C      1  0.5729060000000  0.4959450000000  0.4492910000000 1.0
C      1  0.4307460000000  0.4984800000000  0.5511670000000 1.0
C      1  0.5751720000000  0.5022310000000  0.5529770000000 1.0
END
