TITL C-1154825-9328-650 0.00423162335829219 125000 -305.990919912791 0 0 60 (C1) n - 1
REM
REM in /home/nfs/bkarasulu/CARBON/AIRSS/Generating-Clusters/AIREBO/Higher-Symm/Only-C60
REM
REM
REM
REM
REM
REM ./C.cell (28575a23ae977d3b5fae324c64b13b57)
REM
REM compiler GCC version 9.2.1 20190827 (Red Hat 9.2.1-1)
REM options -cpp -mtune=generic -march=x86-64 -g -O0 -fpre-include=/usr/include/finclude/math-vector-fortran.h
REM seed 191136396 -658897940 -1824482024 1968414600 1893317837 1038608327 -48223030 -1491913191 547805083 1280223659 -1782217692 872211848 -1548930393 1083188687 -580513027 -1211605358 1455598887 1308993069 1549601741 1468024628 -329419235 2107257524 2074389870 1838065727 2084418649 453968884 -314438374 -794977231 -462656671 1072376402 891825831 -661659078 1209141798
REM
CELL 1.54180   50.00000   50.00000   50.00000   90.00000   90.00000   90.00000
LATT -1
SFAC C  
C      1  0.4485420000000  0.5472480000000  0.4647660000000 1.0
C      1  0.4964470000000  0.5487460000000  0.5607400000000 1.0
C      1  0.5580300000000  0.5353100000000  0.4845230000000 1.0
C      1  0.5137890000000  0.4757780000000  0.5657690000000 1.0
C      1  0.5247010000000  0.4842620000000  0.4842770000000 1.0
C      1  0.4471230000000  0.4798230000000  0.4738850000000 1.0
C      1  0.5229120000000  0.4253320000000  0.4896620000000 1.0
C      1  0.4864750000000  0.4301450000000  0.4930810000000 1.0
C      1  0.5074570000000  0.4339710000000  0.5187010000000 1.0
C      1  0.5229320000000  0.5551270000000  0.5173090000000 1.0
C      1  0.5036880000000  0.5577860000000  0.4705550000000 1.0
C      1  0.4728560000000  0.5516560000000  0.5134070000000 1.0
C      1  0.4384780000000  0.4825820000000  0.5424340000000 1.0
C      1  0.5663820000000  0.4862480000000  0.5070560000000 1.0
C      1  0.4795920000000  0.4842810000000  0.4423110000000 1.0
C      1  0.4753110000000  0.5249590000000  0.4935690000000 1.0
C      1  0.4931910000000  0.5072740000000  0.5246120000000 1.0
C      1  0.5082510000000  0.5189630000000  0.4971540000000 1.0
C      1  0.4651400000000  0.5062160000000  0.4498630000000 1.0
C      1  0.4653220000000  0.4989440000000  0.5519570000000 1.0
C      1  0.5632420000000  0.5014830000000  0.4847210000000 1.0
C      1  0.5292770000000  0.5239900000000  0.5229530000000 1.0
C      1  0.4849810000000  0.5312210000000  0.4615770000000 1.0
C      1  0.4676920000000  0.5255980000000  0.5327540000000 1.0
C      1  0.4571340000000  0.4309540000000  0.5049670000000 1.0
C      1  0.5331630000000  0.4259440000000  0.5394860000000 1.0
C      1  0.5227540000000  0.4310330000000  0.4561410000000 1.0
C      1  0.4660590000000  0.5934090000000  0.4822340000000 1.0
C      1  0.5202580000000  0.5853320000000  0.5291080000000 1.0
C      1  0.5279350000000  0.5787700000000  0.4673400000000 1.0
C      1  0.4947330000000  0.5631950000000  0.5332390000000 1.0
C      1  0.5326960000000  0.5541300000000  0.4878160000000 1.0
C      1  0.4725770000000  0.5632590000000  0.4827180000000 1.0
C      1  0.5461750000000  0.4367630000000  0.5095340000000 1.0
C      1  0.4912070000000  0.4393340000000  0.4650020000000 1.0
C      1  0.4770870000000  0.4461630000000  0.5279940000000 1.0
C      1  0.4450810000000  0.4616580000000  0.5093290000000 1.0
C      1  0.5445560000000  0.4606600000000  0.5336070000000 1.0
C      1  0.5165010000000  0.4626720000000  0.4443620000000 1.0
C      1  0.4720910000000  0.5324730000000  0.5650720000000 1.0
C      1  0.5576240000000  0.5264630000000  0.5153600000000 1.0
C      1  0.4694650000000  0.5555850000000  0.4436070000000 1.0
C      1  0.4660780000000  0.4660980000000  0.5429900000000 1.0
C      1  0.5710430000000  0.4589170000000  0.5038880000000 1.0
C      1  0.4773330000000  0.4571220000000  0.4498860000000 1.0
C      1  0.5203170000000  0.4980960000000  0.5430950000000 1.0
C      1  0.5098200000000  0.5080020000000  0.4650050000000 1.0
C      1  0.4551580000000  0.5048890000000  0.4954130000000 1.0
C      1  0.5357480000000  0.5136390000000  0.4437370000000 1.0
C      1  0.4236920000000  0.5029550000000  0.4826670000000 1.0
C      1  0.5441010000000  0.5162910000000  0.5592430000000 1.0
C      1  0.5106580000000  0.4916340000000  0.4351730000000 1.0
C      1  0.4312660000000  0.4889640000000  0.5129370000000 1.0
C      1  0.5530450000000  0.4924610000000  0.5357290000000 1.0
C      1  0.4448650000000  0.4504650000000  0.4796320000000 1.0
C      1  0.5226980000000  0.4530260000000  0.5543520000000 1.0
C      1  0.5240950000000  0.4607810000000  0.4725630000000 1.0
C      1  0.5593670000000  0.5181440000000  0.4573900000000 1.0
C      1  0.4419470000000  0.5203700000000  0.4611180000000 1.0
C      1  0.5198630000000  0.5334080000000  0.5606320000000 1.0
END
