TITL C-1154823-9327-127 0.0390201656346645 125000 -322.737137056086 0 0 60 (C1) n - 1
REM
REM in /home/nfs/bkarasulu/CARBON/AIRSS/Generating-Clusters/AIREBO/Higher-Symm/Only-C60
REM
REM
REM
REM
REM
REM ./C.cell (28575a23ae977d3b5fae324c64b13b57)
REM
REM compiler GCC version 9.2.1 20190827 (Red Hat 9.2.1-1)
REM options -cpp -mtune=generic -march=x86-64 -g -O0 -fpre-include=/usr/include/finclude/math-vector-fortran.h
REM seed -1560368438 435473871 -2019987299 46650253 -1597702693 881478965 -1449168059 -709769758 -1607640577 1614516878 1594272156 -2072390159 -2057182765 -1578030062 -1936582365 1758349677 -1415621442 -418582187 -1233950058 1010667243 -1588496960 369101300 -1908736242 1551756488 -766244147 1246781838 774706450 -1958398756 1764619354 -673721156 -551633890 1980141320 -1970386527
REM
CELL 1.54180   50.00000   50.00000   50.00000   90.00000   90.00000   90.00000
LATT -1
SFAC C  
C      1  0.4615030000000  0.5550230000000  0.4837300000000 1.0
C      1  0.5663960000000  0.5059160000000  0.4858840000000 1.0
C      1  0.4787580000000  0.4322330000000  0.4815310000000 1.0
C      1  0.4478100000000  0.5451040000000  0.5071430000000 1.0
C      1  0.5682480000000  0.5247190000000  0.5087430000000 1.0
C      1  0.4941210000000  0.4278290000000  0.5052090000000 1.0
C      1  0.5132960000000  0.5126060000000  0.5685190000000 1.0
C      1  0.4947580000000  0.4832520000000  0.5716950000000 1.0
C      1  0.4791620000000  0.5126820000000  0.5639010000000 1.0
C      1  0.5255330000000  0.5382640000000  0.5232400000000 1.0
C      1  0.5243910000000  0.4618790000000  0.5295920000000 1.0
C      1  0.4477300000000  0.4976130000000  0.5274110000000 1.0
C      1  0.5495090000000  0.5641530000000  0.4755370000000 1.0
C      1  0.5336780000000  0.4252900000000  0.4767020000000 1.0
C      1  0.4233000000000  0.5163960000000  0.4799430000000 1.0
C      1  0.5363910000000  0.5690970000000  0.5326050000000 1.0
C      1  0.5465850000000  0.4409490000000  0.5446200000000 1.0
C      1  0.4265700000000  0.5001250000000  0.5514130000000 1.0
C      1  0.5057390000000  0.5483350000000  0.4563750000000 1.0
C      1  0.5324070000000  0.4692630000000  0.4598490000000 1.0
C      1  0.4561820000000  0.4919460000000  0.4570900000000 1.0
C      1  0.4828030000000  0.5410220000000  0.4426900000000 1.0
C      1  0.5318400000000  0.4944100000000  0.4487510000000 1.0
C      1  0.4874860000000  0.4732450000000  0.4617780000000 1.0
C      1  0.5449050000000  0.5167230000000  0.4647610000000 1.0
C      1  0.4931990000000  0.4446990000000  0.4601410000000 1.0
C      1  0.4587230000000  0.5410470000000  0.4584910000000 1.0
C      1  0.5349900000000  0.5468400000000  0.4549470000000 1.0
C      1  0.5214530000000  0.4421740000000  0.4567380000000 1.0
C      1  0.4424440000000  0.5174510000000  0.4589330000000 1.0
C      1  0.4816820000000  0.5690740000000  0.5358150000000 1.0
C      1  0.5734100000000  0.4886100000000  0.5394250000000 1.0
C      1  0.4523450000000  0.4410400000000  0.5276520000000 1.0
C      1  0.5062040000000  0.5654200000000  0.5164770000000 1.0
C      1  0.5576800000000  0.4660780000000  0.5240130000000 1.0
C      1  0.4415770000000  0.4675640000000  0.5124490000000 1.0
C      1  0.5071400000000  0.5382980000000  0.4871140000000 1.0
C      1  0.5344070000000  0.4683230000000  0.4915580000000 1.0
C      1  0.4553720000000  0.4783940000000  0.4849340000000 1.0
C      1  0.5301810000000  0.5054750000000  0.5309980000000 1.0
C      1  0.4911030000000  0.4679140000000  0.5255040000000 1.0
C      1  0.4732580000000  0.5199760000000  0.5250910000000 1.0
C      1  0.5644200000000  0.4784990000000  0.4941740000000 1.0
C      1  0.4538420000000  0.4456290000000  0.4880200000000 1.0
C      1  0.4879670000000  0.5638450000000  0.4893070000000 1.0
C      1  0.5245940000000  0.4383330000000  0.5050440000000 1.0
C      1  0.4345420000000  0.5200550000000  0.5054490000000 1.0
C      1  0.5404460000000  0.5355400000000  0.4927770000000 1.0
C      1  0.4993640000000  0.5311890000000  0.5437670000000 1.0
C      1  0.5249140000000  0.4831610000000  0.5561090000000 1.0
C      1  0.4742580000000  0.4851010000000  0.5446330000000 1.0
C      1  0.4873670000000  0.5200990000000  0.4246240000000 1.0
C      1  0.5120320000000  0.5007280000000  0.4307710000000 1.0
C      1  0.4802810000000  0.4902730000000  0.4356870000000 1.0
C      1  0.4626160000000  0.5502880000000  0.5322010000000 1.0
C      1  0.5610100000000  0.5123390000000  0.5326820000000 1.0
C      1  0.4796900000000  0.4396130000000  0.5265500000000 1.0
C      1  0.4933430000000  0.5150950000000  0.5002650000000 1.0
C      1  0.5180090000000  0.4920260000000  0.5042480000000 1.0
C      1  0.4870360000000  0.4817350000000  0.4947010000000 1.0
END
