TITL C-1154828-9214-154 0.000133021386790449 125000 -327.153419383625 0 0 60 (C1) n - 1
REM
REM in /home/nfs/bkarasulu/CARBON/AIRSS/Generating-Clusters/AIREBO/Higher-Symm/Only-C60
REM
REM
REM
REM
REM
REM ./C.cell (28575a23ae977d3b5fae324c64b13b57)
REM
REM compiler GCC version 9.2.1 20190827 (Red Hat 9.2.1-1)
REM options -cpp -mtune=generic -march=x86-64 -g -O0 -fpre-include=/usr/include/finclude/math-vector-fortran.h
REM seed 622813148 1412945149 1025689769 -487680723 1699190038 -1164015301 813064294 1291549522 1123975694 -1951694186 -732587581 1985698169 1999681767 -584154846 11321871 566219125 921910887 605632051 642233810 690987647 535503303 -814087440 -520464632 121632432 -71132711 -203554850 183452597 -170010789 -276848163 -57297559 1578123576 -1824195882 2030817569
REM
CELL 1.54180   50.00000   50.00000   50.00000   90.00000   90.00000   90.00000
LATT -1
SFAC C  
C      1  0.4770880000000  0.5270960000000  0.4711550000000 1.0
C      1  0.5390980000000  0.5009930000000  0.5458500000000 1.0
C      1  0.4664400000000  0.5191830000000  0.5334070000000 1.0
C      1  0.5229500000000  0.5160780000000  0.4597540000000 1.0
C      1  0.5596310000000  0.5184870000000  0.5450390000000 1.0
C      1  0.4493250000000  0.5243270000000  0.4517010000000 1.0
C      1  0.5460290000000  0.5289710000000  0.4546800000000 1.0
C      1  0.4369400000000  0.5126550000000  0.5490730000000 1.0
C      1  0.4801570000000  0.4906200000000  0.5210540000000 1.0
C      1  0.5273990000000  0.4798670000000  0.4814880000000 1.0
C      1  0.4681100000000  0.4944210000000  0.4698410000000 1.0
C      1  0.5349950000000  0.4863510000000  0.5199680000000 1.0
C      1  0.4381570000000  0.5324760000000  0.4783530000000 1.0
C      1  0.5650940000000  0.5339510000000  0.5220410000000 1.0
C      1  0.4285700000000  0.5270940000000  0.5243200000000 1.0
C      1  0.5611920000000  0.5393100000000  0.4759160000000 1.0
C      1  0.4662340000000  0.4672810000000  0.5654700000000 1.0
C      1  0.5120940000000  0.4524440000000  0.4440390000000 1.0
C      1  0.4652250000000  0.4665140000000  0.4272070000000 1.0
C      1  0.5166450000000  0.4608050000000  0.5658060000000 1.0
C      1  0.5110040000000  0.5146980000000  0.5892590000000 1.0
C      1  0.5002000000000  0.5031570000000  0.4182890000000 1.0
C      1  0.5266640000000  0.4941740000000  0.4174400000000 1.0
C      1  0.4886860000000  0.5164710000000  0.5732730000000 1.0
C      1  0.5384650000000  0.4549780000000  0.5247550000000 1.0
C      1  0.4672470000000  0.4611000000000  0.4686220000000 1.0
C      1  0.5310000000000  0.4480860000000  0.4864550000000 1.0
C      1  0.4818290000000  0.4566820000000  0.5227320000000 1.0
C      1  0.5505420000000  0.5638310000000  0.4878720000000 1.0
C      1  0.4524050000000  0.5491050000000  0.5192070000000 1.0
C      1  0.5506770000000  0.5587040000000  0.5173390000000 1.0
C      1  0.4532480000000  0.5539450000000  0.4894190000000 1.0
C      1  0.5172790000000  0.4850130000000  0.4494240000000 1.0
C      1  0.4852790000000  0.4911700000000  0.5546720000000 1.0
C      1  0.5191290000000  0.4916570000000  0.5663220000000 1.0
C      1  0.4840250000000  0.4879940000000  0.4429390000000 1.0
C      1  0.4548330000000  0.4506350000000  0.5425140000000 1.0
C      1  0.5286110000000  0.4365720000000  0.4584970000000 1.0
C      1  0.4452060000000  0.4508350000000  0.4446510000000 1.0
C      1  0.5385050000000  0.4487230000000  0.5545240000000 1.0
C      1  0.4783950000000  0.5485700000000  0.5387190000000 1.0
C      1  0.5217490000000  0.5699940000000  0.4783910000000 1.0
C      1  0.4757650000000  0.5609820000000  0.4718360000000 1.0
C      1  0.5223480000000  0.5574320000000  0.5264390000000 1.0
C      1  0.4351230000000  0.4623950000000  0.5042800000000 1.0
C      1  0.5763180000000  0.4683900000000  0.4943080000000 1.0
C      1  0.5599870000000  0.4463810000000  0.5016280000000 1.0
C      1  0.4620080000000  0.4514450000000  0.4965380000000 1.0
C      1  0.4924330000000  0.4519680000000  0.5558290000000 1.0
C      1  0.4850160000000  0.4480320000000  0.4438860000000 1.0
C      1  0.4331410000000  0.5137330000000  0.4988980000000 1.0
C      1  0.5674570000000  0.5208180000000  0.4966930000000 1.0
C      1  0.4977740000000  0.5767840000000  0.4653570000000 1.0
C      1  0.5013400000000  0.5598710000000  0.5441440000000 1.0
C      1  0.5562410000000  0.4931740000000  0.4946060000000 1.0
C      1  0.4537660000000  0.4904120000000  0.4995460000000 1.0
C      1  0.5075840000000  0.4964690000000  0.5036510000000 1.0
C      1  0.5055780000000  0.5225290000000  0.4850060000000 1.0
C      1  0.5096840000000  0.4446970000000  0.5112040000000 1.0
C      1  0.5154650000000  0.5481520000000  0.4987350000000 1.0
END
