TITL C-1154802-8274-290 0.000240985161626063 125000 -319.137120973493 0 0 60 (C5) n - 1
REM
REM in /home/nfs/bkarasulu/CARBON/AIRSS/Generating-Clusters/AIREBO/Higher-Symm/Only-C60
REM
REM
REM
REM
REM
REM ./C.cell (28575a23ae977d3b5fae324c64b13b57)
REM
REM compiler GCC version 9.2.1 20190827 (Red Hat 9.2.1-1)
REM options -cpp -mtune=generic -march=x86-64 -g -O0 -fpre-include=/usr/include/finclude/math-vector-fortran.h
REM seed 75557071 1052107379 989568530 1053733870 57347094 -1115447231 -820509365 903186366 1032898466 2108339684 1103649682 -1916519169 -1505736391 -1004929104 292034721 -935589578 -291737429 -713415953 110742020 -1203462005 -886737024 1772734813 -904316060 511483076 349189898 2011337132 1463593512 678262144 -325709730 710125757 2122220558 -329411333 1580474492
REM
CELL 1.54180   50.00000   50.00000   50.00000   90.00000   90.00000   90.00000
LATT -1
SFAC C  
C      1  0.5397220000000  0.4873060000000  0.5401240000000 1.0
C      1  0.5243660000000  0.5340130000000  0.5399880000000 1.0
C      1  0.4751990000000  0.5338500000000  0.5398530000000 1.0
C      1  0.4601680000000  0.4870360000000  0.5399420000000 1.0
C      1  0.5000410000000  0.4582710000000  0.5401020000000 1.0
C      1  0.5269950000000  0.4913210000000  0.4633830000000 1.0
C      1  0.5166060000000  0.5228540000000  0.4633520000000 1.0
C      1  0.4833820000000  0.5226740000000  0.4631900000000 1.0
C      1  0.4732440000000  0.4910480000000  0.4633080000000 1.0
C      1  0.5002030000000  0.4716510000000  0.4633910000000 1.0
C      1  0.5002040000000  0.4733280000000  0.5130360000000 1.0
C      1  0.5254330000000  0.4920070000000  0.5130460000000 1.0
C      1  0.5154670000000  0.5217740000000  0.5129670000000 1.0
C      1  0.4840780000000  0.5214900000000  0.5128730000000 1.0
C      1  0.4746430000000  0.4915510000000  0.5129370000000 1.0
C      1  0.5002440000000  0.4553050000000  0.4884490000000 1.0
C      1  0.5425680000000  0.4863770000000  0.4884610000000 1.0
C      1  0.5261060000000  0.5362390000000  0.4883430000000 1.0
C      1  0.4735990000000  0.5359690000000  0.4881650000000 1.0
C      1  0.4576070000000  0.4859640000000  0.4882880000000 1.0
C      1  0.5036740000000  0.4287850000000  0.5360140000000 1.0
C      1  0.5688830000000  0.4816290000000  0.5360330000000 1.0
C      1  0.5387730000000  0.5599780000000  0.5358030000000 1.0
C      1  0.4549570000000  0.5555590000000  0.5355690000000 1.0
C      1  0.4332610000000  0.4744780000000  0.5357460000000 1.0
C      1  0.5372110000000  0.4242180000000  0.4845870000000 1.0
C      1  0.5835680000000  0.5118930000000  0.4844730000000 1.0
C      1  0.5144970000000  0.5830970000000  0.4841630000000 1.0
C      1  0.4254440000000  0.5394010000000  0.4840130000000 1.0
C      1  0.4394540000000  0.4412150000000  0.4843110000000 1.0
C      1  0.4530680000000  0.5733050000000  0.4660480000000 1.0
C      1  0.4157360000000  0.4779010000000  0.4662320000000 1.0
C      1  0.4949930000000  0.4129020000000  0.4665620000000 1.0
C      1  0.5812530000000  0.4681730000000  0.4666250000000 1.0
C      1  0.5553570000000  0.5673190000000  0.4663630000000 1.0
C      1  0.4390910000000  0.5954990000000  0.5137520000000 1.0
C      1  0.3903490000000  0.4716280000000  0.5139850000000 1.0
C      1  0.4931330000000  0.3870080000000  0.5144150000000 1.0
C      1  0.6053250000000  0.4585790000000  0.5145020000000 1.0
C      1  0.5719240000000  0.5874630000000  0.5141550000000 1.0
C      1  0.4740550000000  0.5014980000000  0.4308030000000 1.0
C      1  0.4905360000000  0.4754930000000  0.4310120000000 1.0
C      1  0.5203760000000  0.4831200000000  0.4310570000000 1.0
C      1  0.5223230000000  0.5138550000000  0.4309060000000 1.0
C      1  0.4937010000000  0.5252090000000  0.4308920000000 1.0
C      1  0.4729750000000  0.5087740000000  0.5619760000000 1.0
C      1  0.4833440000000  0.4772600000000  0.5620820000000 1.0
C      1  0.5165170000000  0.4773770000000  0.5621560000000 1.0
C      1  0.5266510000000  0.5089630000000  0.5621090000000 1.0
C      1  0.4997400000000  0.5283670000000  0.5619960000000 1.0
C      1  0.4493610000000  0.5545150000000  0.4873220000000 1.0
C      1  0.4324760000000  0.4686440000000  0.4875270000000 1.0
C      1  0.5089680000000  0.4260540000000  0.4878020000000 1.0
C      1  0.5730830000000  0.4856170000000  0.4878000000000 1.0
C      1  0.5362510000000  0.5650240000000  0.4875560000000 1.0
C      1  0.4485300000000  0.5697840000000  0.5137720000000 1.0
C      1  0.4177210000000  0.4726700000000  0.5139740000000 1.0
C      1  0.5005910000000  0.4133650000000  0.5143010000000 1.0
C      1  0.5825740000000  0.4738330000000  0.5143410000000 1.0
C      1  0.5504010000000  0.5705200000000  0.5140680000000 1.0
END
