TITL C-1154804-8633-552 -0.000689828157524679 125000 -344.459611192375 0 0 60 (C1) n - 1
REM
REM in /home/nfs/bkarasulu/CARBON/AIRSS/Generating-Clusters/AIREBO/Higher-Symm/Only-C60
REM
REM
REM
REM
REM
REM ./C.cell (28575a23ae977d3b5fae324c64b13b57)
REM
REM compiler GCC version 9.2.1 20190827 (Red Hat 9.2.1-1)
REM options -cpp -mtune=generic -march=x86-64 -g -O0 -fpre-include=/usr/include/finclude/math-vector-fortran.h
REM seed 1607644913 538799988 313113830 -1119280219 1942617577 -200199818 974969123 1089534655 1973735023 -1692078758 632368740 -1498647091 981691174 -1894583399 -1773211930 -699693123 153942780 -1926852969 -1094117774 652298669 -86590570 1815146813 -1740897729 1028498405 -1811390881 1883768492 2091161090 965151825 -1541095760 1360910393 -1763814700 295082267 -1999130335
REM
CELL 1.54180   50.00000   50.00000   50.00000   90.00000   90.00000   90.00000
LATT -1
SFAC C  
C      1  0.5276490000000  0.5102150000000  0.5793570000000 1.0
C      1  0.5756680000000  0.5305370000000  0.5111610000000 1.0
C      1  0.5121710000000  0.5759890000000  0.5295750000000 1.0
C      1  0.4698580000000  0.4883890000000  0.5758560000000 1.0
C      1  0.4712990000000  0.5099310000000  0.4204650000000 1.0
C      1  0.5291770000000  0.4895880000000  0.4199350000000 1.0
C      1  0.4265120000000  0.4719400000000  0.5130230000000 1.0
C      1  0.4244720000000  0.5302050000000  0.4892420000000 1.0
C      1  0.5796380000000  0.4714670000000  0.4906990000000 1.0
C      1  0.4885140000000  0.4230360000000  0.5294870000000 1.0
C      1  0.4864710000000  0.5738320000000  0.4712530000000 1.0
C      1  0.5099480000000  0.4204160000000  0.4709070000000 1.0
C      1  0.5098310000000  0.5279170000000  0.5801680000000 1.0
C      1  0.5285950000000  0.5763250000000  0.5109620000000 1.0
C      1  0.5747170000000  0.5126000000000  0.5284640000000 1.0
C      1  0.4876230000000  0.4709260000000  0.5765300000000 1.0
C      1  0.5102200000000  0.4731610000000  0.4227200000000 1.0
C      1  0.4895280000000  0.5272860000000  0.4209870000000 1.0
C      1  0.4714140000000  0.4236250000000  0.5112340000000 1.0
C      1  0.5264390000000  0.4231400000000  0.4897850000000 1.0
C      1  0.4704540000000  0.5750810000000  0.4900860000000 1.0
C      1  0.4256360000000  0.4899710000000  0.5299570000000 1.0
C      1  0.5770430000000  0.4900550000000  0.4738920000000 1.0
C      1  0.4234940000000  0.5122860000000  0.4720300000000 1.0
C      1  0.5561980000000  0.4660930000000  0.5121680000000 1.0
C      1  0.5126610000000  0.5567310000000  0.4648460000000 1.0
C      1  0.4662270000000  0.5139510000000  0.5569700000000 1.0
C      1  0.4431960000000  0.5353000000000  0.5146730000000 1.0
C      1  0.4433920000000  0.4662680000000  0.4864990000000 1.0
C      1  0.5567560000000  0.5347930000000  0.4856310000000 1.0
C      1  0.4883120000000  0.4437840000000  0.4655680000000 1.0
C      1  0.4862290000000  0.5583730000000  0.5358490000000 1.0
C      1  0.5132410000000  0.4429460000000  0.5343890000000 1.0
C      1  0.5326430000000  0.4884320000000  0.5568670000000 1.0
C      1  0.5340480000000  0.5115070000000  0.4430660000000 1.0
C      1  0.4659940000000  0.4876020000000  0.4428020000000 1.0
C      1  0.4645690000000  0.5596690000000  0.5160060000000 1.0
C      1  0.5507070000000  0.5096260000000  0.4716800000000 1.0
C      1  0.5130820000000  0.4662830000000  0.5575200000000 1.0
C      1  0.5276090000000  0.4494080000000  0.5095740000000 1.0
C      1  0.4679570000000  0.4440880000000  0.4869470000000 1.0
C      1  0.5334790000000  0.5576230000000  0.4854760000000 1.0
C      1  0.4422550000000  0.4869640000000  0.4657200000000 1.0
C      1  0.5554860000000  0.4874060000000  0.5327470000000 1.0
C      1  0.4413200000000  0.5156740000000  0.5362760000000 1.0
C      1  0.4877020000000  0.5339940000000  0.5582030000000 1.0
C      1  0.5117930000000  0.5312210000000  0.4433870000000 1.0
C      1  0.4907590000000  0.4728690000000  0.4493200000000 1.0
C      1  0.4883180000000  0.5335100000000  0.4668260000000 1.0
C      1  0.5432020000000  0.4582540000000  0.4811310000000 1.0
C      1  0.4861560000000  0.4634030000000  0.5372900000000 1.0
C      1  0.5423530000000  0.4808090000000  0.4565780000000 1.0
C      1  0.4648810000000  0.5347290000000  0.4895380000000 1.0
C      1  0.5191550000000  0.4570720000000  0.4580790000000 1.0
C      1  0.4626820000000  0.5137750000000  0.4642650000000 1.0
C      1  0.4657480000000  0.4887920000000  0.5354700000000 1.0
C      1  0.5322250000000  0.5114630000000  0.5324810000000 1.0
C      1  0.5114240000000  0.5359680000000  0.5346740000000 1.0
C      1  0.4663260000000  0.4667430000000  0.5114580000000 1.0
C      1  0.5355400000000  0.5369590000000  0.5122530000000 1.0
END
