TITL C-1154801-8518-276 0.000414631746022401 125000 -322.145597618839 0 0 60 (C1) n - 1
REM
REM in /home/nfs/bkarasulu/CARBON/AIRSS/Generating-Clusters/AIREBO/Higher-Symm/Only-C60
REM
REM
REM
REM
REM
REM ./C.cell (28575a23ae977d3b5fae324c64b13b57)
REM
REM compiler GCC version 9.2.1 20190827 (Red Hat 9.2.1-1)
REM options -cpp -mtune=generic -march=x86-64 -g -O0 -fpre-include=/usr/include/finclude/math-vector-fortran.h
REM seed -674346731 -99271875 1204907239 1405808798 -477838388 -1190145834 1711446018 -157223931 -1953317368 740382698 1413694261 686924398 -81796290 876410163 1565404217 1465632370 -196217115 -226018433 547161889 243787183 -545763575 -1403952056 1730051790 -110561662 622315622 1434940524 -855293887 -33772232 1918317385 673411442 -2052068757 2090799012 -1235080907
REM
CELL 1.54180   50.00000   50.00000   50.00000   90.00000   90.00000   90.00000
LATT -1
SFAC C  
C      1  0.5667990000000  0.5184080000000  0.4880660000000 1.0
C      1  0.4551240000000  0.5456840000000  0.4935560000000 1.0
C      1  0.4840040000000  0.4443840000000  0.4847210000000 1.0
C      1  0.4435420000000  0.5148230000000  0.5154170000000 1.0
C      1  0.5427010000000  0.5446370000000  0.5136520000000 1.0
C      1  0.5162850000000  0.4392420000000  0.5076740000000 1.0
C      1  0.4384850000000  0.4832480000000  0.5133650000000 1.0
C      1  0.5424520000000  0.4589740000000  0.5123910000000 1.0
C      1  0.5173510000000  0.5651400000000  0.5076010000000 1.0
C      1  0.5647940000000  0.4868440000000  0.4945810000000 1.0
C      1  0.4538390000000  0.4532220000000  0.4925360000000 1.0
C      1  0.4852290000000  0.5556520000000  0.4860000000000 1.0
C      1  0.5007230000000  0.5293590000000  0.4428990000000 1.0
C      1  0.4754630000000  0.4851970000000  0.4432450000000 1.0
C      1  0.5245620000000  0.4843150000000  0.4415600000000 1.0
C      1  0.4988830000000  0.5282360000000  0.5564580000000 1.0
C      1  0.5243210000000  0.4852840000000  0.5557570000000 1.0
C      1  0.4725930000000  0.4845460000000  0.5559920000000 1.0
C      1  0.4987720000000  0.4722620000000  0.5537870000000 1.0
C      1  0.5239290000000  0.5142580000000  0.5605670000000 1.0
C      1  0.4727090000000  0.5151360000000  0.5582590000000 1.0
C      1  0.4993730000000  0.4692440000000  0.4408520000000 1.0
C      1  0.4760040000000  0.5140100000000  0.4452010000000 1.0
C      1  0.5263900000000  0.5141800000000  0.4390920000000 1.0
C      1  0.4500640000000  0.5289140000000  0.5453480000000 1.0
C      1  0.4998490000000  0.4441560000000  0.5383350000000 1.0
C      1  0.5490760000000  0.5303800000000  0.5442890000000 1.0
C      1  0.5508960000000  0.5267820000000  0.4591430000000 1.0
C      1  0.4994670000000  0.4427170000000  0.4545500000000 1.0
C      1  0.4493950000000  0.5235990000000  0.4594340000000 1.0
C      1  0.5460660000000  0.4688580000000  0.4574630000000 1.0
C      1  0.5004260000000  0.5559470000000  0.4555820000000 1.0
C      1  0.4496950000000  0.4745810000000  0.4561930000000 1.0
C      1  0.4492210000000  0.4705380000000  0.5430360000000 1.0
C      1  0.5009530000000  0.5568700000000  0.5397800000000 1.0
C      1  0.5478850000000  0.4707990000000  0.5438260000000 1.0
C      1  0.5033240000000  0.5270550000000  0.4827150000000 1.0
C      1  0.4698030000000  0.4817040000000  0.4826760000000 1.0
C      1  0.5325160000000  0.4852240000000  0.4840090000000 1.0
C      1  0.5040070000000  0.5345570000000  0.5143020000000 1.0
C      1  0.5260230000000  0.4885320000000  0.5159290000000 1.0
C      1  0.4722400000000  0.4869650000000  0.5154720000000 1.0
C      1  0.4991970000000  0.4679700000000  0.5140620000000 1.0
C      1  0.5287850000000  0.5158160000000  0.5212190000000 1.0
C      1  0.4771810000000  0.5189520000000  0.5181630000000 1.0
C      1  0.5024900000000  0.4726030000000  0.4804740000000 1.0
C      1  0.4709900000000  0.5167460000000  0.4847910000000 1.0
C      1  0.5283350000000  0.5146950000000  0.4785290000000 1.0
C      1  0.5212210000000  0.5682040000000  0.4745440000000 1.0
C      1  0.4299750000000  0.4813910000000  0.4798710000000 1.0
C      1  0.5440250000000  0.4472820000000  0.4803330000000 1.0
C      1  0.4788520000000  0.5652380000000  0.5181000000000 1.0
C      1  0.5689610000000  0.4852290000000  0.5262230000000 1.0
C      1  0.4504820000000  0.4466750000000  0.5235370000000 1.0
C      1  0.4778300000000  0.4343810000000  0.5166450000000 1.0
C      1  0.5687280000000  0.5156530000000  0.5212690000000 1.0
C      1  0.4517310000000  0.5525730000000  0.5248010000000 1.0
C      1  0.5197690000000  0.4303730000000  0.4752010000000 1.0
C      1  0.4316880000000  0.5107780000000  0.4847610000000 1.0
C      1  0.5445290000000  0.5509770000000  0.4821670000000 1.0
END
