TITL C-1154823-9327-276 -6.21283965467007e-05 125000 -300.798642058397 0 0 60 (C1) n - 1
REM
REM in /home/nfs/bkarasulu/CARBON/AIRSS/Generating-Clusters/AIREBO/Higher-Symm/Only-C60
REM
REM
REM
REM
REM
REM ./C.cell (28575a23ae977d3b5fae324c64b13b57)
REM
REM compiler GCC version 9.2.1 20190827 (Red Hat 9.2.1-1)
REM options -cpp -mtune=generic -march=x86-64 -g -O0 -fpre-include=/usr/include/finclude/math-vector-fortran.h
REM seed -466991035 -516659324 -1620177039 -476558792 110535963 -1590891202 -2042331218 -1436778962 -1090229484 111277815 1590152091 1172461718 -167877521 2146212245 -151219481 1090331040 113727926 571827980 -2046513952 1711614673 -1603483615 2088535653 -607309625 1263896001 1335750496 -1754615957 -274718774 -560833839 -1470375667 1738582168 1133540540 -1936966291 -599572805
REM
CELL 1.54180   50.00000   50.00000   50.00000   90.00000   90.00000   90.00000
LATT -1
SFAC C  
C      1  0.5108050000000  0.4523420000000  0.5130670000000 1.0
C      1  0.4808820000000  0.4511370000000  0.5219170000000 1.0
C      1  0.4553780000000  0.4738100000000  0.5190100000000 1.0
C      1  0.4640980000000  0.5258730000000  0.5148870000000 1.0
C      1  0.4958680000000  0.5325740000000  0.5119550000000 1.0
C      1  0.5177210000000  0.5542240000000  0.5224320000000 1.0
C      1  0.5395560000000  0.5043230000000  0.5132580000000 1.0
C      1  0.4584140000000  0.4558950000000  0.5634910000000 1.0
C      1  0.4501350000000  0.5058210000000  0.5568350000000 1.0
C      1  0.4742760000000  0.5508390000000  0.5540840000000 1.0
C      1  0.5233040000000  0.5712520000000  0.5581340000000 1.0
C      1  0.5443790000000  0.5214440000000  0.5585230000000 1.0
C      1  0.5398810000000  0.4710910000000  0.5492490000000 1.0
C      1  0.5062690000000  0.4346390000000  0.5586830000000 1.0
C      1  0.5478660000000  0.4247030000000  0.5329910000000 1.0
C      1  0.4654820000000  0.4092450000000  0.5456660000000 1.0
C      1  0.4142890000000  0.4731790000000  0.5467650000000 1.0
C      1  0.4268170000000  0.5459750000000  0.5398750000000 1.0
C      1  0.4852380000000  0.5950300000000  0.5343660000000 1.0
C      1  0.5659930000000  0.5547010000000  0.5264570000000 1.0
C      1  0.5815400000000  0.4952320000000  0.5384160000000 1.0
C      1  0.5324010000000  0.4743930000000  0.4987820000000 1.0
C      1  0.5113350000000  0.4456330000000  0.4819070000000 1.0
C      1  0.4562870000000  0.4462480000000  0.5004030000000 1.0
C      1  0.4552720000000  0.4971430000000  0.5006870000000 1.0
C      1  0.4766760000000  0.5431020000000  0.4877530000000 1.0
C      1  0.5150640000000  0.5763630000000  0.4979220000000 1.0
C      1  0.5414290000000  0.5361800000000  0.5060300000000 1.0
C      1  0.4503850000000  0.4899710000000  0.4688200000000 1.0
C      1  0.4512110000000  0.5226750000000  0.4775290000000 1.0
C      1  0.5036430000000  0.5711860000000  0.4761140000000 1.0
C      1  0.5465630000000  0.5420790000000  0.4784650000000 1.0
C      1  0.5531050000000  0.4885130000000  0.4793950000000 1.0
C      1  0.5381480000000  0.4530290000000  0.4694330000000 1.0
C      1  0.4620300000000  0.4418020000000  0.4740620000000 1.0
C      1  0.4879530000000  0.4572700000000  0.4641930000000 1.0
C      1  0.4651920000000  0.4753730000000  0.4508200000000 1.0
C      1  0.4755670000000  0.5199430000000  0.4556510000000 1.0
C      1  0.5003550000000  0.5419000000000  0.4633640000000 1.0
C      1  0.5305580000000  0.5316970000000  0.4560290000000 1.0
C      1  0.5399730000000  0.4988920000000  0.4554100000000 1.0
C      1  0.5161920000000  0.4743780000000  0.4546490000000 1.0
C      1  0.4693610000000  0.4857650000000  0.4248540000000 1.0
C      1  0.4694130000000  0.5149850000000  0.4253970000000 1.0
C      1  0.4944850000000  0.5298480000000  0.4123580000000 1.0
C      1  0.5274010000000  0.5304770000000  0.4221890000000 1.0
C      1  0.5363240000000  0.4961170000000  0.4217210000000 1.0
C      1  0.5143610000000  0.4710220000000  0.4208700000000 1.0
C      1  0.4895270000000  0.4722050000000  0.4099470000000 1.0
C      1  0.5420920000000  0.5491620000000  0.5456020000000 1.0
C      1  0.5534640000000  0.4975250000000  0.5402360000000 1.0
C      1  0.5283490000000  0.4442980000000  0.5382990000000 1.0
C      1  0.4766300000000  0.4348400000000  0.5484320000000 1.0
C      1  0.4421500000000  0.4774410000000  0.5466330000000 1.0
C      1  0.4517510000000  0.5329190000000  0.5415250000000 1.0
C      1  0.4952950000000  0.5703790000000  0.5428890000000 1.0
C      1  0.5071200000000  0.5076320000000  0.4347820000000 1.0
C      1  0.5019620000000  0.5022640000000  0.4679650000000 1.0
C      1  0.5061050000000  0.5014540000000  0.5315760000000 1.0
C      1  0.5092000000000  0.5065850000000  0.4980990000000 1.0
END
