TITL C-1154825-9328-344 -0.00209797293112655 125000 -331.352631184763 0 0 60 (C1) n - 1
REM
REM in /home/nfs/bkarasulu/CARBON/AIRSS/Generating-Clusters/AIREBO/Higher-Symm/Only-C60
REM
REM
REM
REM
REM
REM ./C.cell (28575a23ae977d3b5fae324c64b13b57)
REM
REM compiler GCC version 9.2.1 20190827 (Red Hat 9.2.1-1)
REM options -cpp -mtune=generic -march=x86-64 -g -O0 -fpre-include=/usr/include/finclude/math-vector-fortran.h
REM seed 599845663 -710512775 1115378245 924370633 -1142802511 1995613913 778845507 388406668 747315286 -1544366488 -1121134005 -861956229 2043482082 1694817713 1399927707 544427338 -805540279 1147973750 -1833840830 -1775800441 -1272877641 -333413118 -437952661 -1805446439 1026730204 1180178467 1578906912 -1526182230 -1922771830 -1456250879 -1355289089 -23959373 -2138259824
REM
CELL 1.54180   50.00000   50.00000   50.00000   90.00000   90.00000   90.00000
LATT -1
SFAC C  
C      1  0.5158850000000  0.5412430000000  0.5314310000000 1.0
C      1  0.5189210000000  0.4631230000000  0.5177170000000 1.0
C      1  0.5299630000000  0.4534130000000  0.4812530000000 1.0
C      1  0.5509570000000  0.4424610000000  0.5056540000000 1.0
C      1  0.4454080000000  0.4366430000000  0.4968530000000 1.0
C      1  0.5720430000000  0.4808360000000  0.5279670000000 1.0
C      1  0.5386780000000  0.5131050000000  0.5046730000000 1.0
C      1  0.5589290000000  0.5084040000000  0.4609860000000 1.0
C      1  0.4598430000000  0.5142690000000  0.5107330000000 1.0
C      1  0.4828120000000  0.5076970000000  0.5349380000000 1.0
C      1  0.5132340000000  0.5052440000000  0.4843060000000 1.0
C      1  0.4716740000000  0.5608310000000  0.4700440000000 1.0
C      1  0.5221680000000  0.4300700000000  0.5103940000000 1.0
C      1  0.5082940000000  0.4742310000000  0.5664760000000 1.0
C      1  0.5063330000000  0.5756690000000  0.4829620000000 1.0
C      1  0.5011040000000  0.4308570000000  0.5328630000000 1.0
C      1  0.4851100000000  0.4770840000000  0.4371490000000 1.0
C      1  0.4604470000000  0.4623100000000  0.5372410000000 1.0
C      1  0.5670330000000  0.4936060000000  0.4828810000000 1.0
C      1  0.5128660000000  0.4436940000000  0.5558830000000 1.0
C      1  0.4504570000000  0.5531250000000  0.4905690000000 1.0
C      1  0.5082130000000  0.5749460000000  0.5115360000000 1.0
C      1  0.4881250000000  0.4655140000000  0.5177350000000 1.0
C      1  0.4895820000000  0.5084170000000  0.4236130000000 1.0
C      1  0.4484590000000  0.4804200000000  0.5539840000000 1.0
C      1  0.4611100000000  0.5471870000000  0.5194890000000 1.0
C      1  0.5488920000000  0.5015680000000  0.5342310000000 1.0
C      1  0.4377590000000  0.5295200000000  0.4810880000000 1.0
C      1  0.4793130000000  0.5545040000000  0.4426360000000 1.0
C      1  0.4838580000000  0.5322420000000  0.4838390000000 1.0
C      1  0.4987250000000  0.5227810000000  0.5095650000000 1.0
C      1  0.4797080000000  0.4891300000000  0.4993320000000 1.0
C      1  0.4302750000000  0.5074060000000  0.4995140000000 1.0
C      1  0.5353080000000  0.5654640000000  0.5203730000000 1.0
C      1  0.5266460000000  0.5187770000000  0.5492300000000 1.0
C      1  0.4740050000000  0.4350690000000  0.5142140000000 1.0
C      1  0.5067690000000  0.5337930000000  0.4383870000000 1.0
C      1  0.5410150000000  0.4804440000000  0.4985310000000 1.0
C      1  0.4562020000000  0.4885060000000  0.4756480000000 1.0
C      1  0.4677040000000  0.5266820000000  0.4361160000000 1.0
C      1  0.4608400000000  0.5169570000000  0.4640220000000 1.0
C      1  0.5398210000000  0.5336770000000  0.4474890000000 1.0
C      1  0.4237840000000  0.4535500000000  0.4929110000000 1.0
C      1  0.5320640000000  0.4759580000000  0.5427890000000 1.0
C      1  0.4442290000000  0.5323150000000  0.5433490000000 1.0
C      1  0.5270330000000  0.5045210000000  0.4565880000000 1.0
C      1  0.4723570000000  0.4405570000000  0.4803120000000 1.0
C      1  0.5624120000000  0.4538020000000  0.5293120000000 1.0
C      1  0.5142560000000  0.4904600000000  0.4348290000000 1.0
C      1  0.5458030000000  0.4468860000000  0.5546750000000 1.0
C      1  0.5050820000000  0.4744340000000  0.4820670000000 1.0
C      1  0.4278320000000  0.4805760000000  0.4876120000000 1.0
C      1  0.4781580000000  0.4674400000000  0.4657800000000 1.0
C      1  0.4546470000000  0.5075840000000  0.5496370000000 1.0
C      1  0.5858990000000  0.4886180000000  0.5042610000000 1.0
C      1  0.5520770000000  0.5582420000000  0.5000860000000 1.0
C      1  0.4872930000000  0.5589760000000  0.5262690000000 1.0
C      1  0.5043530000000  0.5018180000000  0.5554670000000 1.0
C      1  0.5390600000000  0.5363620000000  0.4813790000000 1.0
C      1  0.5091710000000  0.5469830000000  0.4691340000000 1.0
END
