TITL C-1154802-8274-471 -0.000214803830639236 125000 -334.296193601735 0 0 60 (C1) n - 1
REM
REM in /home/nfs/bkarasulu/CARBON/AIRSS/Generating-Clusters/AIREBO/Higher-Symm/Only-C60
REM
REM
REM
REM
REM
REM ./C.cell (28575a23ae977d3b5fae324c64b13b57)
REM
REM compiler GCC version 9.2.1 20190827 (Red Hat 9.2.1-1)
REM options -cpp -mtune=generic -march=x86-64 -g -O0 -fpre-include=/usr/include/finclude/math-vector-fortran.h
REM seed -615942230 167303562 -674052111 1539855462 2010465391 688899226 -592869802 -699816759 1143674306 -1029798991 -1063485663 2082781021 -758554686 1758500530 1415049118 313999873 856590446 -1038224129 1078926520 1788198641 1685610259 328523602 804164701 819266903 -1556378798 -966990214 203953865 530859785 1304173951 759671324 -1274506157 321990753 1872859599
REM
CELL 1.54180   50.00000   50.00000   50.00000   90.00000   90.00000   90.00000
LATT -1
SFAC C  
C      1  0.5380830000000  0.4648810000000  0.4309230000000 1.0
C      1  0.4419490000000  0.4630550000000  0.4688860000000 1.0
C      1  0.4553300000000  0.4625810000000  0.5672550000000 1.0
C      1  0.5536780000000  0.4552090000000  0.5462530000000 1.0
C      1  0.5330370000000  0.5355490000000  0.5562520000000 1.0
C      1  0.4307890000000  0.5370110000000  0.5478860000000 1.0
C      1  0.4586660000000  0.5408190000000  0.4434880000000 1.0
C      1  0.5633490000000  0.5389740000000  0.4683900000000 1.0
C      1  0.4227690000000  0.5049710000000  0.5108320000000 1.0
C      1  0.5002160000000  0.5230740000000  0.5736990000000 1.0
C      1  0.5857090000000  0.5050320000000  0.5004560000000 1.0
C      1  0.4989090000000  0.5195740000000  0.4124770000000 1.0
C      1  0.4262370000000  0.4731070000000  0.5032850000000 1.0
C      1  0.5086770000000  0.4885850000000  0.4176090000000 1.0
C      1  0.5788380000000  0.4727810000000  0.5051690000000 1.0
C      1  0.4924800000000  0.4914390000000  0.5769720000000 1.0
C      1  0.4729850000000  0.5141470000000  0.5373240000000 1.0
C      1  0.5413240000000  0.5070460000000  0.5177960000000 1.0
C      1  0.5226170000000  0.5133460000000  0.4624650000000 1.0
C      1  0.4666730000000  0.5103530000000  0.4813010000000 1.0
C      1  0.4794210000000  0.4928020000000  0.4570290000000 1.0
C      1  0.5362290000000  0.4863610000000  0.4751860000000 1.0
C      1  0.5187280000000  0.4877500000000  0.5312800000000 1.0
C      1  0.4664290000000  0.4847330000000  0.5245670000000 1.0
C      1  0.5164040000000  0.4632350000000  0.4811140000000 1.0
C      1  0.4907980000000  0.4633420000000  0.4604880000000 1.0
C      1  0.4810000000000  0.4567740000000  0.5219630000000 1.0
C      1  0.5119490000000  0.4604820000000  0.5121340000000 1.0
C      1  0.5379420000000  0.5366760000000  0.5066010000000 1.0
C      1  0.4767370000000  0.5412390000000  0.5211380000000 1.0
C      1  0.4846780000000  0.5353990000000  0.4913210000000 1.0
C      1  0.5157270000000  0.5367890000000  0.4825620000000 1.0
C      1  0.5700590000000  0.5307680000000  0.4963050000000 1.0
C      1  0.4870470000000  0.5412830000000  0.4288140000000 1.0
C      1  0.4204590000000  0.5313360000000  0.5179740000000 1.0
C      1  0.5009270000000  0.5415930000000  0.5451650000000 1.0
C      1  0.5695140000000  0.4506460000000  0.5187560000000 1.0
C      1  0.4849980000000  0.4649920000000  0.5791620000000 1.0
C      1  0.4551180000000  0.4554620000000  0.4998020000000 1.0
C      1  0.5046640000000  0.4587420000000  0.4297070000000 1.0
C      1  0.4468010000000  0.5156750000000  0.5576800000000 1.0
C      1  0.5449600000000  0.5112420000000  0.5500850000000 1.0
C      1  0.5551800000000  0.5151430000000  0.4554020000000 1.0
C      1  0.4483590000000  0.5179440000000  0.4553120000000 1.0
C      1  0.4468250000000  0.4869160000000  0.4557790000000 1.0
C      1  0.5464230000000  0.4883660000000  0.4423490000000 1.0
C      1  0.5439480000000  0.4805550000000  0.5515480000000 1.0
C      1  0.4489660000000  0.4860430000000  0.5521550000000 1.0
C      1  0.4787040000000  0.4467990000000  0.5516970000000 1.0
C      1  0.5372890000000  0.4427400000000  0.5214420000000 1.0
C      1  0.5250800000000  0.4451030000000  0.4536770000000 1.0
C      1  0.4682540000000  0.4456200000000  0.4705270000000 1.0
C      1  0.4849280000000  0.5496960000000  0.4606070000000 1.0
C      1  0.5400160000000  0.5568380000000  0.4705170000000 1.0
C      1  0.5289850000000  0.5533710000000  0.5303810000000 1.0
C      1  0.4467260000000  0.5511590000000  0.5235690000000 1.0
C      1  0.5551430000000  0.4924690000000  0.4960350000000 1.0
C      1  0.4517340000000  0.4952230000000  0.5006280000000 1.0
C      1  0.4989330000000  0.5017210000000  0.5472630000000 1.0
C      1  0.5016030000000  0.5071220000000  0.4435630000000 1.0
END
