TITL C-1154803-8277-284 -0.00616920348062526 125000 -329.995954473378 0 0 60 (C1) n - 1
REM
REM in /home/nfs/bkarasulu/CARBON/AIRSS/Generating-Clusters/AIREBO/Higher-Symm/Only-C60
REM
REM
REM
REM
REM
REM ./C.cell (28575a23ae977d3b5fae324c64b13b57)
REM
REM compiler GCC version 9.2.1 20190827 (Red Hat 9.2.1-1)
REM options -cpp -mtune=generic -march=x86-64 -g -O0 -fpre-include=/usr/include/finclude/math-vector-fortran.h
REM seed 466203412 -1036260898 -1856668696 1708326173 -1580192520 427236967 -968126304 -1813364044 -1378020803 1854633769 610390434 -601090320 -1483865758 -1596172419 1437546457 1116090269 679802210 -1676029994 606059071 -452229339 1881650077 -2097665287 1533942090 -289636044 176143669 1340607521 -787114252 -97477515 -1137974511 -304474052 1536683065 -1667882131 610228453
REM
CELL 1.54180   50.00000   50.00000   50.00000   90.00000   90.00000   90.00000
LATT -1
SFAC C  
C      1  0.5411110000000  0.5131310000000  0.4773130000000 1.0
C      1  0.5339340000000  0.4813310000000  0.5265520000000 1.0
C      1  0.5260150000000  0.5104820000000  0.5230120000000 1.0
C      1  0.5391930000000  0.4823210000000  0.4742570000000 1.0
C      1  0.5309500000000  0.5711750000000  0.4711550000000 1.0
C      1  0.5399730000000  0.4300070000000  0.5266590000000 1.0
C      1  0.5468380000000  0.5666870000000  0.5260750000000 1.0
C      1  0.5319290000000  0.4231980000000  0.4705680000000 1.0
C      1  0.4581520000000  0.4919540000000  0.5575020000000 1.0
C      1  0.4527170000000  0.5138750000000  0.4471270000000 1.0
C      1  0.4530290000000  0.4847440000000  0.4428770000000 1.0
C      1  0.4544800000000  0.5219210000000  0.5592060000000 1.0
C      1  0.4858420000000  0.4848530000000  0.5564760000000 1.0
C      1  0.4842790000000  0.5256870000000  0.4516380000000 1.0
C      1  0.4849600000000  0.4729400000000  0.4437940000000 1.0
C      1  0.4803390000000  0.5349720000000  0.5732030000000 1.0
C      1  0.4543550000000  0.4515850000000  0.5231300000000 1.0
C      1  0.4521530000000  0.5353160000000  0.4729670000000 1.0
C      1  0.4522960000000  0.4597470000000  0.4650130000000 1.0
C      1  0.4520290000000  0.5404060000000  0.5308080000000 1.0
C      1  0.5042480000000  0.5375820000000  0.5605270000000 1.0
C      1  0.5117290000000  0.4611200000000  0.4391590000000 1.0
C      1  0.5108190000000  0.5385760000000  0.4448540000000 1.0
C      1  0.5088740000000  0.4755960000000  0.5715750000000 1.0
C      1  0.5009800000000  0.5551880000000  0.4726880000000 1.0
C      1  0.4995530000000  0.4618080000000  0.5187500000000 1.0
C      1  0.5016290000000  0.5411620000000  0.5295750000000 1.0
C      1  0.5044830000000  0.4420830000000  0.4648080000000 1.0
C      1  0.5309930000000  0.4540320000000  0.4831860000000 1.0
C      1  0.5299450000000  0.5437400000000  0.5157510000000 1.0
C      1  0.5280380000000  0.4539690000000  0.5124350000000 1.0
C      1  0.5296200000000  0.5419820000000  0.4861510000000 1.0
C      1  0.5793050000000  0.4787650000000  0.5135160000000 1.0
C      1  0.5789310000000  0.5210530000000  0.4873250000000 1.0
C      1  0.5771840000000  0.4892480000000  0.4832820000000 1.0
C      1  0.5736900000000  0.5104630000000  0.5168070000000 1.0
C      1  0.4943900000000  0.4865940000000  0.5294480000000 1.0
C      1  0.4832020000000  0.5105320000000  0.4821420000000 1.0
C      1  0.4832090000000  0.4825130000000  0.4741210000000 1.0
C      1  0.4943230000000  0.5130630000000  0.5118780000000 1.0
C      1  0.5370200000000  0.4714120000000  0.4441570000000 1.0
C      1  0.5315280000000  0.5268540000000  0.5518740000000 1.0
C      1  0.5328530000000  0.4780230000000  0.5592020000000 1.0
C      1  0.5360630000000  0.5287120000000  0.4491130000000 1.0
C      1  0.5671760000000  0.5163940000000  0.4557260000000 1.0
C      1  0.5627350000000  0.4824170000000  0.5429850000000 1.0
C      1  0.5594300000000  0.5163460000000  0.5439450000000 1.0
C      1  0.5680590000000  0.4831140000000  0.4511080000000 1.0
C      1  0.4241130000000  0.5332720000000  0.5485630000000 1.0
C      1  0.4237080000000  0.4683860000000  0.4503650000000 1.0
C      1  0.4236200000000  0.5293080000000  0.4566170000000 1.0
C      1  0.4413050000000  0.4764260000000  0.5408540000000 1.0
C      1  0.4256860000000  0.4645600000000  0.4840910000000 1.0
C      1  0.4233120000000  0.5359570000000  0.5154470000000 1.0
C      1  0.4322200000000  0.4698820000000  0.5098470000000 1.0
C      1  0.4231670000000  0.5330980000000  0.4892780000000 1.0
C      1  0.4773660000000  0.5434670000000  0.4867920000000 1.0
C      1  0.4779340000000  0.4485130000000  0.5085560000000 1.0
C      1  0.4753170000000  0.5492640000000  0.5161470000000 1.0
C      1  0.4776640000000  0.4491930000000  0.4780210000000 1.0
END
