TITL C-1154825-9328-180 0.000592304399919857 125000 -311.14584553373 0 0 60 (C1) n - 1
REM
REM in /home/nfs/bkarasulu/CARBON/AIRSS/Generating-Clusters/AIREBO/Higher-Symm/Only-C60
REM
REM
REM
REM
REM
REM ./C.cell (28575a23ae977d3b5fae324c64b13b57)
REM
REM compiler GCC version 9.2.1 20190827 (Red Hat 9.2.1-1)
REM options -cpp -mtune=generic -march=x86-64 -g -O0 -fpre-include=/usr/include/finclude/math-vector-fortran.h
REM seed -824780148 -1030305504 1749905173 543830460 -1569380610 1017973863 -1234547623 970315858 -453178393 1966982842 1653150921 670780024 -1063243448 -1708758272 852645299 -421596540 1411949558 1292928975 1052534420 -1719255475 -2070505542 -2071721421 -1500487143 -1955341726 947584189 939576894 1566370635 1774243009 -1597457221 -505384488 -1056366070 -544209884 1982316912
REM
CELL 1.54180   50.00000   50.00000   50.00000   90.00000   90.00000   90.00000
LATT -1
SFAC C  
C      1  0.5272170000000  0.4427310000000  0.5756280000000 1.0
C      1  0.5207840000000  0.4426490000000  0.5178590000000 1.0
C      1  0.5258140000000  0.4913590000000  0.5384390000000 1.0
C      1  0.4447890000000  0.4958270000000  0.5279610000000 1.0
C      1  0.5480530000000  0.4536660000000  0.5006870000000 1.0
C      1  0.4932330000000  0.5669330000000  0.4999100000000 1.0
C      1  0.5472560000000  0.4995230000000  0.4401660000000 1.0
C      1  0.5096680000000  0.4559760000000  0.4904860000000 1.0
C      1  0.5552370000000  0.5470460000000  0.5341270000000 1.0
C      1  0.5435330000000  0.4779760000000  0.4590080000000 1.0
C      1  0.5593850000000  0.4963860000000  0.5404980000000 1.0
C      1  0.5058370000000  0.5433600000000  0.5294310000000 1.0
C      1  0.4654150000000  0.4902100000000  0.4362680000000 1.0
C      1  0.4734100000000  0.4812520000000  0.5693490000000 1.0
C      1  0.4979010000000  0.4453570000000  0.5643030000000 1.0
C      1  0.4867820000000  0.4418790000000  0.5197380000000 1.0
C      1  0.5203830000000  0.5679970000000  0.4948990000000 1.0
C      1  0.4809000000000  0.5644300000000  0.5277850000000 1.0
C      1  0.4923730000000  0.4818450000000  0.4496560000000 1.0
C      1  0.4849510000000  0.4677440000000  0.4778900000000 1.0
C      1  0.5182610000000  0.5221430000000  0.5512200000000 1.0
C      1  0.5712510000000  0.5104320000000  0.5114080000000 1.0
C      1  0.4707810000000  0.4348760000000  0.4966420000000 1.0
C      1  0.4429700000000  0.4701240000000  0.4520430000000 1.0
C      1  0.4559860000000  0.5552920000000  0.5374100000000 1.0
C      1  0.4702470000000  0.4450340000000  0.5527560000000 1.0
C      1  0.5005070000000  0.4508370000000  0.4436820000000 1.0
C      1  0.4760550000000  0.5091850000000  0.5286110000000 1.0
C      1  0.4786530000000  0.5450270000000  0.4841570000000 1.0
C      1  0.4284250000000  0.5058270000000  0.4991410000000 1.0
C      1  0.4538120000000  0.4581200000000  0.4785750000000 1.0
C      1  0.5412260000000  0.5437380000000  0.4882380000000 1.0
C      1  0.4506900000000  0.5431160000000  0.4730810000000 1.0
C      1  0.4806230000000  0.5008920000000  0.4827020000000 1.0
C      1  0.5628040000000  0.5375560000000  0.5086620000000 1.0
C      1  0.4931840000000  0.5228310000000  0.5054420000000 1.0
C      1  0.5487600000000  0.5436610000000  0.4586040000000 1.0
C      1  0.5541060000000  0.4819470000000  0.5118090000000 1.0
C      1  0.4930950000000  0.4914460000000  0.5471990000000 1.0
C      1  0.4976350000000  0.5236650000000  0.4626790000000 1.0
C      1  0.4478930000000  0.4705830000000  0.5505710000000 1.0
C      1  0.4524050000000  0.5316460000000  0.4453140000000 1.0
C      1  0.5212110000000  0.5199670000000  0.4869050000000 1.0
C      1  0.5225730000000  0.4841990000000  0.5043830000000 1.0
C      1  0.5315170000000  0.5629750000000  0.5329690000000 1.0
C      1  0.5492650000000  0.5245500000000  0.5505650000000 1.0
C      1  0.5079130000000  0.4379150000000  0.4643720000000 1.0
C      1  0.5226280000000  0.4582300000000  0.5455110000000 1.0
C      1  0.4354220000000  0.5029170000000  0.4471780000000 1.0
C      1  0.4547910000000  0.4844200000000  0.4975250000000 1.0
C      1  0.4786290000000  0.5278800000000  0.4367210000000 1.0
C      1  0.5060300000000  0.5230200000000  0.5789830000000 1.0
C      1  0.4292360000000  0.5206800000000  0.4755050000000 1.0
C      1  0.4804920000000  0.5096690000000  0.4137310000000 1.0
C      1  0.5507460000000  0.4541170000000  0.4730230000000 1.0
C      1  0.5665200000000  0.5238410000000  0.4429570000000 1.0
C      1  0.5269270000000  0.5250670000000  0.4454040000000 1.0
C      1  0.4760400000000  0.4693910000000  0.5314660000000 1.0
C      1  0.4503980000000  0.5290020000000  0.5375310000000 1.0
C      1  0.5173720000000  0.4900340000000  0.4712380000000 1.0
END
