TITL C-1154821-8623-170 0.00191357196065977 125000 -324.756221717786 0 0 60 (C2) n - 1
REM
REM in /home/nfs/bkarasulu/CARBON/AIRSS/Generating-Clusters/AIREBO/Higher-Symm/Only-C60
REM
REM
REM
REM
REM
REM ./C.cell (28575a23ae977d3b5fae324c64b13b57)
REM
REM compiler GCC version 9.2.1 20190827 (Red Hat 9.2.1-1)
REM options -cpp -mtune=generic -march=x86-64 -g -O0 -fpre-include=/usr/include/finclude/math-vector-fortran.h
REM seed -334856101 701941438 -1325216394 -2106582263 -2087113573 182644058 626198349 -1143218353 -1859115786 754632020 284836306 1812967246 -1418451146 522868263 1313548725 -641782512 1618120537 32319390 87196680 1242289477 675821078 1457348829 -827930446 1716414437 497730545 -775163421 -675044498 162131162 -1846779439 830312942 -1861845511 -1054519371 -992725259
REM
CELL 1.54180   50.00000   50.00000   50.00000   90.00000   90.00000   90.00000
LATT -1
SFAC C  
C      1  0.4971010000000  0.5489330000000  0.4511530000000 1.0
C      1  0.4575580000000  0.5532320000000  0.5276110000000 1.0
C      1  0.5390070000000  0.5499070000000  0.5204780000000 1.0
C      1  0.4971030000000  0.4510700000000  0.5488420000000 1.0
C      1  0.4575730000000  0.4467460000000  0.4723660000000 1.0
C      1  0.5390090000000  0.4501320000000  0.4795530000000 1.0
C      1  0.5535030000000  0.4589710000000  0.4572770000000 1.0
C      1  0.4328340000000  0.4580490000000  0.4728910000000 1.0
C      1  0.5051740000000  0.4625140000000  0.5730050000000 1.0
C      1  0.5534850000000  0.5410540000000  0.5427600000000 1.0
C      1  0.4328210000000  0.5419250000000  0.5270930000000 1.0
C      1  0.5051990000000  0.5374860000000  0.4270000000000 1.0
C      1  0.4998400000000  0.4904940000000  0.4582510000000 1.0
C      1  0.4510170000000  0.4767460000000  0.5399120000000 1.0
C      1  0.5510120000000  0.4869320000000  0.5309330000000 1.0
C      1  0.4998420000000  0.5094950000000  0.5417300000000 1.0
C      1  0.4509800000000  0.5232500000000  0.4600530000000 1.0
C      1  0.5509950000000  0.5130550000000  0.4691000000000 1.0
C      1  0.4320290000000  0.4881240000000  0.5234190000000 1.0
C      1  0.5512040000000  0.4908740000000  0.5591630000000 1.0
C      1  0.5169720000000  0.4893990000000  0.4360140000000 1.0
C      1  0.4320050000000  0.5118550000000  0.4765510000000 1.0
C      1  0.5512130000000  0.5091170000000  0.4408770000000 1.0
C      1  0.5169580000000  0.5105950000000  0.5639840000000 1.0
C      1  0.4621300000000  0.5815560000000  0.4603750000000 1.0
C      1  0.4839510000000  0.5723740000000  0.5609590000000 1.0
C      1  0.5628400000000  0.5701940000000  0.4746820000000 1.0
C      1  0.4622030000000  0.4184540000000  0.5396120000000 1.0
C      1  0.4839990000000  0.4275880000000  0.4390470000000 1.0
C      1  0.5628480000000  0.4298390000000  0.5253270000000 1.0
C      1  0.4346260000000  0.5173320000000  0.5095530000000 1.0
C      1  0.5463160000000  0.5223610000000  0.5623840000000 1.0
C      1  0.5242000000000  0.5172450000000  0.4249310000000 1.0
C      1  0.4346440000000  0.4826520000000  0.4904160000000 1.0
C      1  0.5463360000000  0.4776380000000  0.4376270000000 1.0
C      1  0.5241730000000  0.4827550000000  0.5750850000000 1.0
C      1  0.5379960000000  0.5587770000000  0.4758460000000 1.0
C      1  0.4678120000000  0.5654600000000  0.4818390000000 1.0
C      1  0.4949730000000  0.5594480000000  0.5394680000000 1.0
C      1  0.5379960000000  0.4412390000000  0.5241740000000 1.0
C      1  0.4678650000000  0.4345430000000  0.5181370000000 1.0
C      1  0.4949980000000  0.4405390000000  0.4605340000000 1.0
C      1  0.4641000000000  0.5725550000000  0.5085050000000 1.0
C      1  0.5177670000000  0.5672640000000  0.5256050000000 1.0
C      1  0.5150270000000  0.5673590000000  0.4626280000000 1.0
C      1  0.4641300000000  0.4274340000000  0.4914770000000 1.0
C      1  0.5177880000000  0.4327520000000  0.4744190000000 1.0
C      1  0.5150330000000  0.4326330000000  0.5373890000000 1.0
C      1  0.4823820000000  0.4692270000000  0.4696740000000 1.0
C      1  0.4786060000000  0.4656310000000  0.5243930000000 1.0
C      1  0.5341760000000  0.4695230000000  0.5070620000000 1.0
C      1  0.4823820000000  0.5307580000000  0.5302970000000 1.0
C      1  0.4785550000000  0.5343870000000  0.4755690000000 1.0
C      1  0.5342020000000  0.5305020000000  0.4929740000000 1.0
C      1  0.4679580000000  0.4831120000000  0.4972260000000 1.0
C      1  0.5064250000000  0.4848660000000  0.5208170000000 1.0
C      1  0.5313960000000  0.4922860000000  0.4819540000000 1.0
C      1  0.4679400000000  0.5168960000000  0.5027430000000 1.0
C      1  0.5063510000000  0.5151230000000  0.4791650000000 1.0
C      1  0.5314420000000  0.5077410000000  0.5180880000000 1.0
END
