TITL C-1154825-9328-254 0.00191904005786977 125000 -342.023142792964 0 0 60 (C1) n - 1
REM
REM in /home/nfs/bkarasulu/CARBON/AIRSS/Generating-Clusters/AIREBO/Higher-Symm/Only-C60
REM
REM
REM
REM
REM
REM ./C.cell (28575a23ae977d3b5fae324c64b13b57)
REM
REM compiler GCC version 9.2.1 20190827 (Red Hat 9.2.1-1)
REM options -cpp -mtune=generic -march=x86-64 -g -O0 -fpre-include=/usr/include/finclude/math-vector-fortran.h
REM seed 1007176015 -821297583 -718346118 1382927771 -1971976593 -2012475034 -1444098345 1383920740 -779541389 -1070553963 -1779234924 -515304930 -818769130 -1046903171 -1552964231 810496591 -802209156 1753774877 1925230141 722602923 -4923448 46066183 -1580094407 1378965480 -1304961162 543431461 758526175 2022720671 1208129448 1752353139 260481260 2007428586 -606239663
REM
CELL 1.54180   50.00000   50.00000   50.00000   90.00000   90.00000   90.00000
LATT -1
SFAC C  
C      1  0.5228960000000  0.4670820000000  0.5784670000000 1.0
C      1  0.4726900000000  0.4470400000000  0.4317190000000 1.0
C      1  0.4795790000000  0.5236460000000  0.5705210000000 1.0
C      1  0.5318560000000  0.5436090000000  0.4401370000000 1.0
C      1  0.4709640000000  0.4308060000000  0.5129700000000 1.0
C      1  0.4385290000000  0.5063060000000  0.4878420000000 1.0
C      1  0.5128950000000  0.5727130000000  0.5140030000000 1.0
C      1  0.5668050000000  0.4834730000000  0.4871820000000 1.0
C      1  0.4737900000000  0.5346370000000  0.4584080000000 1.0
C      1  0.5138100000000  0.5386650000000  0.5342970000000 1.0
C      1  0.5387800000000  0.4851190000000  0.4593810000000 1.0
C      1  0.4969370000000  0.4692550000000  0.5406880000000 1.0
C      1  0.4998300000000  0.4546180000000  0.4781360000000 1.0
C      1  0.4489860000000  0.4887610000000  0.5319360000000 1.0
C      1  0.4989760000000  0.5536770000000  0.4692810000000 1.0
C      1  0.5631360000000  0.5095180000000  0.5267750000000 1.0
C      1  0.4438580000000  0.4776350000000  0.4813140000000 1.0
C      1  0.4933600000000  0.5452310000000  0.5079360000000 1.0
C      1  0.5441860000000  0.5076510000000  0.4844380000000 1.0
C      1  0.4962880000000  0.4478770000000  0.5172220000000 1.0
C      1  0.5234890000000  0.4836130000000  0.5284040000000 1.0
C      1  0.4803760000000  0.4751720000000  0.4223560000000 1.0
C      1  0.4875180000000  0.5203430000000  0.5386900000000 1.0
C      1  0.5181230000000  0.5213540000000  0.4555670000000 1.0
C      1  0.4521650000000  0.5322850000000  0.5530590000000 1.0
C      1  0.5540400000000  0.5538440000000  0.4543640000000 1.0
C      1  0.5422860000000  0.4758870000000  0.5556630000000 1.0
C      1  0.4490010000000  0.4422870000000  0.4458600000000 1.0
C      1  0.5559280000000  0.5323370000000  0.5043360000000 1.0
C      1  0.5253660000000  0.4532960000000  0.5013690000000 1.0
C      1  0.4397640000000  0.4670190000000  0.5122410000000 1.0
C      1  0.4637670000000  0.5429140000000  0.5044450000000 1.0
C      1  0.4965600000000  0.4685920000000  0.5703020000000 1.0
C      1  0.4907100000000  0.5102450000000  0.4126880000000 1.0
C      1  0.5097790000000  0.5257080000000  0.5794570000000 1.0
C      1  0.5145030000000  0.4948670000000  0.4167990000000 1.0
C      1  0.5220200000000  0.5654740000000  0.4859610000000 1.0
C      1  0.5694580000000  0.4840810000000  0.5156390000000 1.0
C      1  0.4740730000000  0.4385430000000  0.4853090000000 1.0
C      1  0.4337580000000  0.5103860000000  0.5160140000000 1.0
C      1  0.4456050000000  0.4405840000000  0.5209830000000 1.0
C      1  0.4563900000000  0.5287680000000  0.4794610000000 1.0
C      1  0.5384030000000  0.5539330000000  0.5205170000000 1.0
C      1  0.5470460000000  0.4612610000000  0.4781160000000 1.0
C      1  0.4501770000000  0.4491390000000  0.4733290000000 1.0
C      1  0.4465670000000  0.5345380000000  0.5256650000000 1.0
C      1  0.5480400000000  0.5556690000000  0.4819130000000 1.0
C      1  0.5486610000000  0.4616370000000  0.5251310000000 1.0
C      1  0.5019900000000  0.5526040000000  0.4367040000000 1.0
C      1  0.5473830000000  0.5070660000000  0.5502210000000 1.0
C      1  0.4993930000000  0.4596580000000  0.4485750000000 1.0
C      1  0.4568300000000  0.4996030000000  0.5627390000000 1.0
C      1  0.5175450000000  0.5001170000000  0.5021090000000 1.0
C      1  0.4942280000000  0.4782480000000  0.5019420000000 1.0
C      1  0.4796940000000  0.4931220000000  0.5288460000000 1.0
C      1  0.5088130000000  0.5261110000000  0.4865960000000 1.0
C      1  0.4725130000000  0.4773220000000  0.5798320000000 1.0
C      1  0.4816870000000  0.5312790000000  0.4286900000000 1.0
C      1  0.5271600000000  0.5241880000000  0.5580610000000 1.0
C      1  0.5210390000000  0.4795860000000  0.4393960000000 1.0
END
