TITL C-1154808-8168-343 -0.00038638295917301 125000 -335.740067885049 0 0 60 (C1) n - 1
REM
REM in /home/nfs/bkarasulu/CARBON/AIRSS/Generating-Clusters/AIREBO/Higher-Symm/Only-C60
REM
REM
REM
REM
REM
REM ./C.cell (28575a23ae977d3b5fae324c64b13b57)
REM
REM compiler GCC version 9.2.1 20190827 (Red Hat 9.2.1-1)
REM options -cpp -mtune=generic -march=x86-64 -g -O0 -fpre-include=/usr/include/finclude/math-vector-fortran.h
REM seed 1588728786 2112869741 687713921 -697489938 -654783473 -498377596 950146871 -1688016868 -629285447 -517874993 -1896282618 1460515857 -1823970432 1799759922 2142671546 2019943205 -1742851069 -17811044 -1812751408 -578691200 -465760746 -894723457 1580442751 881328073 1072528717 1314555981 -655568901 -340859809 -290452929 -2008956691 -1782406413 58677863 -56009335
REM
CELL 1.54180   50.00000   50.00000   50.00000   90.00000   90.00000   90.00000
LATT -1
SFAC C  
C      1  0.5562150000000  0.5159230000000  0.5345760000000 1.0
C      1  0.5491470000000  0.5107560000000  0.4568900000000 1.0
C      1  0.4776030000000  0.5175320000000  0.4411790000000 1.0
C      1  0.4322830000000  0.5144790000000  0.5039100000000 1.0
C      1  0.4827890000000  0.5153450000000  0.5625520000000 1.0
C      1  0.4974020000000  0.5482700000000  0.5253500000000 1.0
C      1  0.5253220000000  0.5493940000000  0.5059620000000 1.0
C      1  0.5157580000000  0.5585620000000  0.4778400000000 1.0
C      1  0.4842600000000  0.5563410000000  0.4750270000000 1.0
C      1  0.4720890000000  0.5615240000000  0.5066150000000 1.0
C      1  0.4468600000000  0.4815880000000  0.4689040000000 1.0
C      1  0.4545240000000  0.4797690000000  0.5403360000000 1.0
C      1  0.5243070000000  0.4817730000000  0.5553120000000 1.0
C      1  0.5671160000000  0.4806710000000  0.4975700000000 1.0
C      1  0.5113240000000  0.4803280000000  0.4429190000000 1.0
C      1  0.4953240000000  0.5242060000000  0.4764040000000 1.0
C      1  0.4727170000000  0.5288170000000  0.5007280000000 1.0
C      1  0.4885650000000  0.5155430000000  0.5227000000000 1.0
C      1  0.5198110000000  0.5173500000000  0.5137110000000 1.0
C      1  0.5277890000000  0.5151290000000  0.4811330000000 1.0
C      1  0.4616240000000  0.4497340000000  0.5005020000000 1.0
C      1  0.4901900000000  0.4430930000000  0.5398790000000 1.0
C      1  0.5385290000000  0.4434690000000  0.5258010000000 1.0
C      1  0.5294720000000  0.4531230000000  0.4792750000000 1.0
C      1  0.4847070000000  0.4488480000000  0.4625600000000 1.0
C      1  0.4809090000000  0.4736050000000  0.4292850000000 1.0
C      1  0.4281430000000  0.4709490000000  0.4952320000000 1.0
C      1  0.4737310000000  0.4711580000000  0.5670480000000 1.0
C      1  0.5559760000000  0.4725370000000  0.5470240000000 1.0
C      1  0.5654590000000  0.4704160000000  0.4651330000000 1.0
C      1  0.5245790000000  0.5346460000000  0.5664200000000 1.0
C      1  0.5730180000000  0.5317190000000  0.4943350000000 1.0
C      1  0.5279590000000  0.5287100000000  0.4435550000000 1.0
C      1  0.4381750000000  0.5339370000000  0.4595170000000 1.0
C      1  0.4412620000000  0.5320860000000  0.5434480000000 1.0
C      1  0.5124410000000  0.4504490000000  0.4574830000000 1.0
C      1  0.4566540000000  0.4487590000000  0.4686350000000 1.0
C      1  0.4651580000000  0.4499820000000  0.5278470000000 1.0
C      1  0.5171890000000  0.4507670000000  0.5432930000000 1.0
C      1  0.5481330000000  0.4547870000000  0.5018890000000 1.0
C      1  0.5671890000000  0.4900070000000  0.5279340000000 1.0
C      1  0.5450850000000  0.4818440000000  0.4471390000000 1.0
C      1  0.4628690000000  0.4919910000000  0.4406990000000 1.0
C      1  0.4319510000000  0.4889430000000  0.5165640000000 1.0
C      1  0.4946670000000  0.4897270000000  0.5697590000000 1.0
C      1  0.4655370000000  0.5390250000000  0.4543030000000 1.0
C      1  0.4448100000000  0.5420620000000  0.5135900000000 1.0
C      1  0.4988590000000  0.5372230000000  0.5556010000000 1.0
C      1  0.5547940000000  0.5365060000000  0.5152720000000 1.0
C      1  0.5280860000000  0.5546570000000  0.4540330000000 1.0
C      1  0.4805770000000  0.4858680000000  0.5193560000000 1.0
C      1  0.5139720000000  0.4852590000000  0.5233170000000 1.0
C      1  0.5220510000000  0.4834260000000  0.4928350000000 1.0
C      1  0.4977720000000  0.4908200000000  0.4722960000000 1.0
C      1  0.4747310000000  0.4785690000000  0.4881410000000 1.0
C      1  0.5057170000000  0.5133690000000  0.4371440000000 1.0
C      1  0.4322570000000  0.5115380000000  0.4757520000000 1.0
C      1  0.4569310000000  0.5116990000000  0.5517830000000 1.0
C      1  0.5385140000000  0.5126740000000  0.5562900000000 1.0
C      1  0.5691140000000  0.5087170000000  0.4804130000000 1.0
END
