TITL C-1154823-9327-661 7.26865459260329e-05 125000 -329.83119788096 0 0 60 (C1) n - 1
REM
REM in /home/nfs/bkarasulu/CARBON/AIRSS/Generating-Clusters/AIREBO/Higher-Symm/Only-C60
REM
REM
REM
REM
REM
REM ./C.cell (28575a23ae977d3b5fae324c64b13b57)
REM
REM compiler GCC version 9.2.1 20190827 (Red Hat 9.2.1-1)
REM options -cpp -mtune=generic -march=x86-64 -g -O0 -fpre-include=/usr/include/finclude/math-vector-fortran.h
REM seed -2046639894 -117820719 692940979 -1238233934 1925009426 1703709414 -937352473 -1798177944 -447378036 1592595548 -290440386 1558463237 812752961 -1308733576 -504374451 -479216869 -1756933600 1129158581 1513986661 49859422 -1105252561 146861259 -1952331761 2077662722 1491675035 -2012808558 979945603 -416289949 1277645803 1583867425 -556220543 577517017 -134138433
REM
CELL 1.54180   50.00000   50.00000   50.00000   90.00000   90.00000   90.00000
LATT -1
SFAC C  
C      1  0.5169540000000  0.4667590000000  0.4376840000000 1.0
C      1  0.5472630000000  0.4596130000000  0.4813620000000 1.0
C      1  0.4690700000000  0.5300830000000  0.5378890000000 1.0
C      1  0.6315270000000  0.4826990000000  0.5543900000000 1.0
C      1  0.4966890000000  0.4904580000000  0.4485580000000 1.0
C      1  0.5387250000000  0.4508770000000  0.4570490000000 1.0
C      1  0.4758360000000  0.4987060000000  0.5293380000000 1.0
C      1  0.5130700000000  0.5588500000000  0.5073580000000 1.0
C      1  0.4959130000000  0.4412620000000  0.5299750000000 1.0
C      1  0.5382850000000  0.5384120000000  0.5055150000000 1.0
C      1  0.4675670000000  0.5749710000000  0.5026780000000 1.0
C      1  0.4399620000000  0.4714460000000  0.5222790000000 1.0
C      1  0.5629020000000  0.4678880000000  0.5378410000000 1.0
C      1  0.4961430000000  0.5136530000000  0.4699600000000 1.0
C      1  0.5436310000000  0.4794960000000  0.5979020000000 1.0
C      1  0.4348940000000  0.4773800000000  0.4543340000000 1.0
C      1  0.5544970000000  0.4561620000000  0.5099650000000 1.0
C      1  0.4337250000000  0.5244250000000  0.4703270000000 1.0
C      1  0.4400460000000  0.5310800000000  0.5238420000000 1.0
C      1  0.4483880000000  0.4536860000000  0.5026090000000 1.0
C      1  0.4576650000000  0.4760190000000  0.5442030000000 1.0
C      1  0.4501700000000  0.5428940000000  0.4238120000000 1.0
C      1  0.4693830000000  0.4690800000000  0.5685030000000 1.0
C      1  0.5667680000000  0.4716980000000  0.5843210000000 1.0
C      1  0.5440060000000  0.4893140000000  0.6229550000000 1.0
C      1  0.5032900000000  0.4049880000000  0.4587010000000 1.0
C      1  0.4789100000000  0.4570070000000  0.4879800000000 1.0
C      1  0.4981050000000  0.4763650000000  0.5012830000000 1.0
C      1  0.4877500000000  0.5714730000000  0.5233150000000 1.0
C      1  0.5789570000000  0.4723220000000  0.5591940000000 1.0
C      1  0.4826130000000  0.5650770000000  0.5722450000000 1.0
C      1  0.4338920000000  0.4968370000000  0.5113380000000 1.0
C      1  0.5202930000000  0.4756960000000  0.5833870000000 1.0
C      1  0.6062130000000  0.4763510000000  0.5568140000000 1.0
C      1  0.5014480000000  0.5093400000000  0.5007060000000 1.0
C      1  0.4990020000000  0.4744910000000  0.5352230000000 1.0
C      1  0.4269090000000  0.5037140000000  0.4523230000000 1.0
C      1  0.5310180000000  0.4839830000000  0.4943740000000 1.0
C      1  0.5017730000000  0.4874400000000  0.4153210000000 1.0
C      1  0.4942170000000  0.4271210000000  0.5096940000000 1.0
C      1  0.5234900000000  0.5268290000000  0.4592790000000 1.0
C      1  0.5096660000000  0.4367830000000  0.4499190000000 1.0
C      1  0.5320630000000  0.4765240000000  0.5275390000000 1.0
C      1  0.4927090000000  0.4309210000000  0.4781030000000 1.0
C      1  0.4750720000000  0.5602680000000  0.4791970000000 1.0
C      1  0.5327440000000  0.5663820000000  0.4223220000000 1.0
C      1  0.4978620000000  0.4745350000000  0.5683800000000 1.0
C      1  0.5039160000000  0.5641660000000  0.4773540000000 1.0
C      1  0.4663590000000  0.5298720000000  0.4723880000000 1.0
C      1  0.4678900000000  0.5305810000000  0.4384210000000 1.0
C      1  0.5192200000000  0.5624090000000  0.4524960000000 1.0
C      1  0.4937730000000  0.5178250000000  0.4285930000000 1.0
C      1  0.4493790000000  0.4637910000000  0.4729050000000 1.0
C      1  0.5174590000000  0.5376880000000  0.4292120000000 1.0
C      1  0.4956620000000  0.5325340000000  0.5188430000000 1.0
C      1  0.5474650000000  0.5798250000000  0.4066690000000 1.0
C      1  0.4804440000000  0.5575560000000  0.5461430000000 1.0
C      1  0.4234230000000  0.5231670000000  0.4961340000000 1.0
C      1  0.5320900000000  0.5153240000000  0.4873570000000 1.0
C      1  0.4618480000000  0.5139030000000  0.5021990000000 1.0
END
