TITL C-1154801-8518-223 -0.00234714282254647 125000 -333.822584768827 0 0 60 (C1) n - 1
REM
REM in /home/nfs/bkarasulu/CARBON/AIRSS/Generating-Clusters/AIREBO/Higher-Symm/Only-C60
REM
REM
REM
REM
REM
REM ./C.cell (28575a23ae977d3b5fae324c64b13b57)
REM
REM compiler GCC version 9.2.1 20190827 (Red Hat 9.2.1-1)
REM options -cpp -mtune=generic -march=x86-64 -g -O0 -fpre-include=/usr/include/finclude/math-vector-fortran.h
REM seed 1522252796 1920693805 1041247411 -1568751461 1627973735 420747281 -907231238 -973068406 1028892818 -1190978805 1348999180 142774332 -557833552 1599222021 -1845381906 1317634565 -1700300116 -1826974884 -1848983879 -760434714 -74088195 827787141 26971574 1224349119 1635960456 1086332430 -86626981 -1633821886 -2026323527 625459759 -1522097673 435972933 1561763651
REM
CELL 1.54180   50.00000   50.00000   50.00000   90.00000   90.00000   90.00000
LATT -1
SFAC C  
C      1  0.4961920000000  0.4370090000000  0.4932020000000 1.0
C      1  0.4397180000000  0.4996700000000  0.4850200000000 1.0
C      1  0.4739140000000  0.5624690000000  0.4969370000000 1.0
C      1  0.5459120000000  0.5513940000000  0.5015570000000 1.0
C      1  0.5687590000000  0.4784350000000  0.5084740000000 1.0
C      1  0.5460410000000  0.4908520000000  0.5679860000000 1.0
C      1  0.5116130000000  0.4471990000000  0.5592380000000 1.0
C      1  0.4599260000000  0.4675990000000  0.5484160000000 1.0
C      1  0.4698090000000  0.5188470000000  0.5436080000000 1.0
C      1  0.5165820000000  0.5376210000000  0.5610270000000 1.0
C      1  0.4950570000000  0.5816210000000  0.4504630000000 1.0
C      1  0.5890930000000  0.5466420000000  0.4803930000000 1.0
C      1  0.5793240000000  0.4421750000000  0.4752920000000 1.0
C      1  0.4559100000000  0.4278000000000  0.4675680000000 1.0
C      1  0.4131290000000  0.5291120000000  0.4560290000000 1.0
C      1  0.4375650000000  0.4756270000000  0.5055910000000 1.0
C      1  0.4481040000000  0.5567060000000  0.5146360000000 1.0
C      1  0.5349710000000  0.5675330000000  0.5263770000000 1.0
C      1  0.5811050000000  0.4943770000000  0.5330490000000 1.0
C      1  0.5154340000000  0.4248870000000  0.5158300000000 1.0
C      1  0.5227840000000  0.5734960000000  0.4976100000000 1.0
C      1  0.5718720000000  0.5099960000000  0.5065010000000 1.0
C      1  0.5285120000000  0.4433750000000  0.4908780000000 1.0
C      1  0.4641290000000  0.4759860000000  0.4848650000000 1.0
C      1  0.4481270000000  0.5479660000000  0.4841320000000 1.0
C      1  0.5584380000000  0.4583230000000  0.4900590000000 1.0
C      1  0.4745670000000  0.4470340000000  0.4755000000000 1.0
C      1  0.4380280000000  0.5246110000000  0.4682900000000 1.0
C      1  0.4979130000000  0.5700000000000  0.4823770000000 1.0
C      1  0.5655720000000  0.5330600000000  0.4885390000000 1.0
C      1  0.4500300000000  0.5412210000000  0.5376310000000 1.0
C      1  0.5297740000000  0.5630730000000  0.5529400000000 1.0
C      1  0.5748910000000  0.4930530000000  0.5601480000000 1.0
C      1  0.5160590000000  0.4223970000000  0.5424470000000 1.0
C      1  0.4362010000000  0.4652650000000  0.5300130000000 1.0
C      1  0.5039630000000  0.4846610000000  0.4659590000000 1.0
C      1  0.4863910000000  0.5015030000000  0.4882020000000 1.0
C      1  0.4867690000000  0.5210680000000  0.4626520000000 1.0
C      1  0.5185380000000  0.5238460000000  0.4564460000000 1.0
C      1  0.5342960000000  0.4952080000000  0.4538960000000 1.0
C      1  0.5263470000000  0.4921840000000  0.5432280000000 1.0
C      1  0.5097940000000  0.4712970000000  0.5395500000000 1.0
C      1  0.4847210000000  0.4801340000000  0.5327340000000 1.0
C      1  0.4867640000000  0.5082370000000  0.5171990000000 1.0
C      1  0.5125570000000  0.5159030000000  0.5374560000000 1.0
C      1  0.4631920000000  0.4585980000000  0.4063950000000 1.0
C      1  0.4710490000000  0.4734640000000  0.4301320000000 1.0
C      1  0.4585560000000  0.4999450000000  0.4279650000000 1.0
C      1  0.4436150000000  0.5001490000000  0.4030360000000 1.0
C      1  0.4465630000000  0.4749750000000  0.3901420000000 1.0
C      1  0.4607170000000  0.5182690000000  0.4484640000000 1.0
C      1  0.5020690000000  0.5507880000000  0.4561250000000 1.0
C      1  0.5503040000000  0.5220740000000  0.4650820000000 1.0
C      1  0.5323890000000  0.4714650000000  0.4753340000000 1.0
C      1  0.4852110000000  0.4659390000000  0.4524960000000 1.0
C      1  0.5191280000000  0.5084790000000  0.5789860000000 1.0
C      1  0.5178330000000  0.4745050000000  0.5785270000000 1.0
C      1  0.4857310000000  0.4661880000000  0.5710170000000 1.0
C      1  0.4689200000000  0.4946040000000  0.5664650000000 1.0
C      1  0.4895290000000  0.5200880000000  0.5698890000000 1.0
END
