TITL C-1154826-9507-58 -0.000206475662303063 125000 -353.225455269802 0 0 60 (C1) n - 1
REM
REM in /home/nfs/bkarasulu/CARBON/AIRSS/Generating-Clusters/AIREBO/Higher-Symm/Only-C60
REM
REM
REM
REM
REM
REM ./C.cell (28575a23ae977d3b5fae324c64b13b57)
REM
REM compiler GCC version 9.2.1 20190827 (Red Hat 9.2.1-1)
REM options -cpp -mtune=generic -march=x86-64 -g -O0 -fpre-include=/usr/include/finclude/math-vector-fortran.h
REM seed -747902331 -1248893026 -737188910 -850149110 -1710072870 1728555516 -848284746 -1547052244 -846505450 -1665595021 86888036 972675128 1055237630 83941388 -913601987 -2046521857 -2036846796 -1464628320 967391902 -893478735 -1101139671 675459911 -99180047 -959180604 1771880667 1545947726 974989043 1188004367 594408828 726042332 731405607 -1032103403 917430290
REM
CELL 1.54180   50.00000   50.00000   50.00000   90.00000   90.00000   90.00000
LATT -1
SFAC C  
C      1  0.4997280000000  0.5580670000000  0.4975960000000 1.0
C      1  0.4585840000000  0.4799490000000  0.5009630000000 1.0
C      1  0.5406600000000  0.4753340000000  0.4963330000000 1.0
C      1  0.4966200000000  0.4526900000000  0.5012920000000 1.0
C      1  0.4499540000000  0.5293970000000  0.4996950000000 1.0
C      1  0.5501330000000  0.5253810000000  0.4913420000000 1.0
C      1  0.5341560000000  0.4758450000000  0.4442600000000 1.0
C      1  0.5154620000000  0.5530850000000  0.4430090000000 1.0
C      1  0.4532510000000  0.4827660000000  0.4457720000000 1.0
C      1  0.5337920000000  0.5357890000000  0.4518130000000 1.0
C      1  0.5096560000000  0.4585030000000  0.4465500000000 1.0
C      1  0.4620870000000  0.5126700000000  0.4467290000000 1.0
C      1  0.4787230000000  0.5616090000000  0.4738960000000 1.0
C      1  0.4462700000000  0.4414660000000  0.4815270000000 1.0
C      1  0.5727550000000  0.4793820000000  0.4917560000000 1.0
C      1  0.4782860000000  0.4325350000000  0.4808950000000 1.0
C      1  0.4535950000000  0.5567270000000  0.4833270000000 1.0
C      1  0.5807060000000  0.5021100000000  0.4802370000000 1.0
C      1  0.5564740000000  0.4907910000000  0.4395850000000 1.0
C      1  0.4874100000000  0.5542910000000  0.4479600000000 1.0
C      1  0.4570340000000  0.4530760000000  0.4541890000000 1.0
C      1  0.5592990000000  0.5161410000000  0.4598130000000 1.0
C      1  0.4852310000000  0.4415270000000  0.4492100000000 1.0
C      1  0.4697900000000  0.5365820000000  0.4335500000000 1.0
C      1  0.5459610000000  0.4919170000000  0.5677890000000 1.0
C      1  0.4844140000000  0.5453920000000  0.5698430000000 1.0
C      1  0.4550690000000  0.4652780000000  0.5669160000000 1.0
C      1  0.5485760000000  0.5192150000000  0.5634590000000 1.0
C      1  0.4801430000000  0.4542210000000  0.5686650000000 1.0
C      1  0.4629640000000  0.5279290000000  0.5706460000000 1.0
C      1  0.5224250000000  0.5149040000000  0.4746580000000 1.0
C      1  0.4700250000000  0.5170710000000  0.4778880000000 1.0
C      1  0.4956470000000  0.4699900000000  0.4751630000000 1.0
C      1  0.5235350000000  0.4846450000000  0.4731090000000 1.0
C      1  0.4702730000000  0.4850720000000  0.4740480000000 1.0
C      1  0.4972360000000  0.5275740000000  0.4829870000000 1.0
C      1  0.4756840000000  0.4898510000000  0.5205930000000 1.0
C      1  0.5282810000000  0.4870230000000  0.5207270000000 1.0
C      1  0.4994870000000  0.5354090000000  0.5214410000000 1.0
C      1  0.4716780000000  0.5206390000000  0.5224130000000 1.0
C      1  0.5282750000000  0.5175650000000  0.5162080000000 1.0
C      1  0.4993210000000  0.4714910000000  0.5248820000000 1.0
C      1  0.5167530000000  0.5826070000000  0.5021380000000 1.0
C      1  0.4382410000000  0.4587750000000  0.5028070000000 1.0
C      1  0.5619390000000  0.4498180000000  0.4960760000000 1.0
C      1  0.5052030000000  0.4210330000000  0.4970810000000 1.0
C      1  0.4210040000000  0.5219660000000  0.5065660000000 1.0
C      1  0.5685070000000  0.5483430000000  0.4999860000000 1.0
C      1  0.5425960000000  0.5893630000000  0.5057220000000 1.0
C      1  0.4277960000000  0.4773980000000  0.5261910000000 1.0
C      1  0.5537550000000  0.4244740000000  0.5021540000000 1.0
C      1  0.5297050000000  0.4117110000000  0.4992380000000 1.0
C      1  0.4113380000000  0.4987330000000  0.5170950000000 1.0
C      1  0.5643980000000  0.5733730000000  0.5093140000000 1.0
C      1  0.5280300000000  0.4777720000000  0.5516510000000 1.0
C      1  0.5057240000000  0.5449940000000  0.5521370000000 1.0
C      1  0.4449230000000  0.4844220000000  0.5486950000000 1.0
C      1  0.5310880000000  0.5316530000000  0.5453630000000 1.0
C      1  0.5030830000000  0.4622800000000  0.5557090000000 1.0
C      1  0.4572700000000  0.5103870000000  0.5493460000000 1.0
END
