TITL C-1154808-8168-85 0.000933119033827387 125000 -324.157347966847 0 0 60 (C1) n - 1
REM
REM in /home/nfs/bkarasulu/CARBON/AIRSS/Generating-Clusters/AIREBO/Higher-Symm/Only-C60
REM
REM
REM
REM
REM
REM ./C.cell (28575a23ae977d3b5fae324c64b13b57)
REM
REM compiler GCC version 9.2.1 20190827 (Red Hat 9.2.1-1)
REM options -cpp -mtune=generic -march=x86-64 -g -O0 -fpre-include=/usr/include/finclude/math-vector-fortran.h
REM seed -1718514618 -802850175 960107693 -1609969982 -2059217525 1679914100 -1871869332 14563784 -376203818 1565433338 1464327761 -1346131780 -250240275 -1928555641 202893141 -125592803 897835859 1917421112 -352378232 -157163498 1977451558 1979257637 1088204281 -165817083 -909076856 -923128519 1463724073 -1732152115 1521472688 -283589730 655861008 2103562754 1453170533
REM
CELL 1.54180   50.00000   50.00000   50.00000   90.00000   90.00000   90.00000
LATT -1
SFAC C  
C      1  0.4613900000000  0.4452390000000  0.5505180000000 1.0
C      1  0.4717630000000  0.5575290000000  0.5533920000000 1.0
C      1  0.5695950000000  0.5008330000000  0.5522110000000 1.0
C      1  0.5375780000000  0.5139390000000  0.4368980000000 1.0
C      1  0.4963490000000  0.4620960000000  0.4384610000000 1.0
C      1  0.4711310000000  0.5220010000000  0.4403150000000 1.0
C      1  0.4344680000000  0.5399280000000  0.5085660000000 1.0
C      1  0.5722960000000  0.5332490000000  0.5049950000000 1.0
C      1  0.4924020000000  0.4232790000000  0.5053390000000 1.0
C      1  0.4494060000000  0.5455050000000  0.4858300000000 1.0
C      1  0.5709830000000  0.5185880000000  0.4801680000000 1.0
C      1  0.4815250000000  0.4353070000000  0.4827490000000 1.0
C      1  0.4687530000000  0.5098040000000  0.4998160000000 1.0
C      1  0.5253660000000  0.5204900000000  0.4955260000000 1.0
C      1  0.5051080000000  0.4680980000000  0.4984520000000 1.0
C      1  0.4962290000000  0.4801480000000  0.5611750000000 1.0
C      1  0.4864700000000  0.5119000000000  0.5645420000000 1.0
C      1  0.5194710000000  0.5045050000000  0.5608530000000 1.0
C      1  0.5398670000000  0.4783810000000  0.5385470000000 1.0
C      1  0.4542770000000  0.4712700000000  0.5213590000000 1.0
C      1  0.4968590000000  0.5527750000000  0.5230200000000 1.0
C      1  0.4325870000000  0.4685450000000  0.4707120000000 1.0
C      1  0.5047210000000  0.5600360000000  0.4743680000000 1.0
C      1  0.5495430000000  0.4764740000000  0.4763330000000 1.0
C      1  0.4773600000000  0.5604990000000  0.4945500000000 1.0
C      1  0.5737830000000  0.4900770000000  0.4823580000000 1.0
C      1  0.4537790000000  0.4535580000000  0.4904210000000 1.0
C      1  0.4504560000000  0.5225600000000  0.5254900000000 1.0
C      1  0.5475850000000  0.5301220000000  0.5194080000000 1.0
C      1  0.5023560000000  0.4442860000000  0.5225790000000 1.0
C      1  0.4549240000000  0.5183310000000  0.4699320000000 1.0
C      1  0.5434680000000  0.5276860000000  0.4676030000000 1.0
C      1  0.5051630000000  0.4519160000000  0.4685300000000 1.0
C      1  0.5197930000000  0.5369900000000  0.4356700000000 1.0
C      1  0.5254110000000  0.4652930000000  0.4365550000000 1.0
C      1  0.4583780000000  0.4956360000000  0.4372270000000 1.0
C      1  0.4680540000000  0.5910300000000  0.5062810000000 1.0
C      1  0.5862400000000  0.4794130000000  0.5055520000000 1.0
C      1  0.4350140000000  0.4278840000000  0.5024670000000 1.0
C      1  0.4805450000000  0.4922530000000  0.5264570000000 1.0
C      1  0.5091130000000  0.5211440000000  0.5253970000000 1.0
C      1  0.5126310000000  0.4873190000000  0.5254800000000 1.0
C      1  0.4750880000000  0.5769680000000  0.5308240000000 1.0
C      1  0.5722970000000  0.4802200000000  0.5296320000000 1.0
C      1  0.4436630000000  0.4405030000000  0.5268220000000 1.0
C      1  0.4384770000000  0.4915660000000  0.4586070000000 1.0
C      1  0.5259990000000  0.5549250000000  0.4579970000000 1.0
C      1  0.5387430000000  0.4552660000000  0.4611100000000 1.0
C      1  0.4632220000000  0.4799880000000  0.5530200000000 1.0
C      1  0.5019920000000  0.5395100000000  0.5531670000000 1.0
C      1  0.5463820000000  0.4885400000000  0.5702280000000 1.0
C      1  0.4763080000000  0.4789890000000  0.4891000000000 1.0
C      1  0.4934950000000  0.5309230000000  0.4899100000000 1.0
C      1  0.5280710000000  0.4892040000000  0.4886850000000 1.0
C      1  0.5370830000000  0.4887370000000  0.4260490000000 1.0
C      1  0.4737480000000  0.4738080000000  0.4286670000000 1.0
C      1  0.4925940000000  0.5345790000000  0.4291540000000 1.0
C      1  0.4907100000000  0.4519730000000  0.5465390000000 1.0
C      1  0.4639540000000  0.5286580000000  0.5488540000000 1.0
C      1  0.5459830000000  0.5197240000000  0.5455330000000 1.0
END
