TITL C-1154827-9204-303 0.000271071415187904 125000 -349.902941863966 0 0 60 (C1) n - 1
REM
REM in /home/nfs/bkarasulu/CARBON/AIRSS/Generating-Clusters/AIREBO/Higher-Symm/Only-C60
REM
REM
REM
REM
REM
REM ./C.cell (28575a23ae977d3b5fae324c64b13b57)
REM
REM compiler GCC version 9.2.1 20190827 (Red Hat 9.2.1-1)
REM options -cpp -mtune=generic -march=x86-64 -g -O0 -fpre-include=/usr/include/finclude/math-vector-fortran.h
REM seed 2125168286 -554702028 2011350788 -896541541 205362349 471484339 -125193309 1674416365 -58704442 2002531675 -287949779 -753528918 -1792474557 -1301062232 -2138793495 -1371496431 -1293978382 -87091689 1725109535 837377455 -677227969 2000211525 1539869686 -899796725 624453564 1546391522 1822589163 466064787 249380742 821625143 1905391026 70022352 -1852614430
REM
CELL 1.54180   50.00000   50.00000   50.00000   90.00000   90.00000   90.00000
LATT -1
SFAC C  
C      1  0.5139070000000  0.5451340000000  0.5157480000000 1.0
C      1  0.5087730000000  0.4664980000000  0.5267900000000 1.0
C      1  0.4966090000000  0.5062490000000  0.4589090000000 1.0
C      1  0.4299980000000  0.5770930000000  0.4524320000000 1.0
C      1  0.4286460000000  0.5005170000000  0.5938610000000 1.0
C      1  0.4456720000000  0.4131540000000  0.4636190000000 1.0
C      1  0.4361890000000  0.4600400000000  0.4647960000000 1.0
C      1  0.4346130000000  0.5448260000000  0.4873990000000 1.0
C      1  0.4339800000000  0.4855450000000  0.5489050000000 1.0
C      1  0.5232230000000  0.5085950000000  0.4538010000000 1.0
C      1  0.5451920000000  0.5500980000000  0.5033350000000 1.0
C      1  0.5389310000000  0.4657950000000  0.5344180000000 1.0
C      1  0.4346420000000  0.4884390000000  0.4517340000000 1.0
C      1  0.4461440000000  0.5389860000000  0.5162430000000 1.0
C      1  0.4421950000000  0.4614660000000  0.5305750000000 1.0
C      1  0.5689030000000  0.5197260000000  0.5774060000000 1.0
C      1  0.5361370000000  0.3938740000000  0.4645010000000 1.0
C      1  0.5698040000000  0.5883280000000  0.4444070000000 1.0
C      1  0.5340880000000  0.5794450000000  0.5123110000000 1.0
C      1  0.5353450000000  0.4533430000000  0.5635740000000 1.0
C      1  0.5366930000000  0.4853150000000  0.4369680000000 1.0
C      1  0.5672060000000  0.5321800000000  0.4600610000000 1.0
C      1  0.5723200000000  0.5047300000000  0.5159540000000 1.0
C      1  0.5811510000000  0.4339230000000  0.5071460000000 1.0
C      1  0.4729350000000  0.4445500000000  0.4393940000000 1.0
C      1  0.4638750000000  0.5823890000000  0.4860940000000 1.0
C      1  0.4651580000000  0.4719880000000  0.5812080000000 1.0
C      1  0.4908970000000  0.5598680000000  0.5173930000000 1.0
C      1  0.4893360000000  0.4556720000000  0.5437110000000 1.0
C      1  0.4822690000000  0.4909750000000  0.4399360000000 1.0
C      1  0.5402770000000  0.4202540000000  0.4685600000000 1.0
C      1  0.5518890000000  0.5781590000000  0.4618630000000 1.0
C      1  0.5484190000000  0.5044450000000  0.5674770000000 1.0
C      1  0.5112330000000  0.5148730000000  0.5088700000000 1.0
C      1  0.5011150000000  0.4838170000000  0.5080690000000 1.0
C      1  0.4914130000000  0.5036210000000  0.4856380000000 1.0
C      1  0.4669680000000  0.5510230000000  0.5288820000000 1.0
C      1  0.4647600000000  0.4465180000000  0.5337750000000 1.0
C      1  0.4551670000000  0.4967410000000  0.4352860000000 1.0
C      1  0.4312870000000  0.5143340000000  0.5014690000000 1.0
C      1  0.4250810000000  0.4854460000000  0.5163490000000 1.0
C      1  0.4296110000000  0.4866210000000  0.4842210000000 1.0
C      1  0.4900620000000  0.4646910000000  0.5707550000000 1.0
C      1  0.4925640000000  0.4644760000000  0.4363240000000 1.0
C      1  0.4891180000000  0.5805430000000  0.4980190000000 1.0
C      1  0.5546410000000  0.4498480000000  0.5158650000000 1.0
C      1  0.5535950000000  0.5109560000000  0.4490940000000 1.0
C      1  0.5429160000000  0.5183050000000  0.5151690000000 1.0
C      1  0.5325300000000  0.4389000000000  0.4493900000000 1.0
C      1  0.5277340000000  0.5920700000000  0.4677540000000 1.0
C      1  0.5271770000000  0.4948860000000  0.5834980000000 1.0
C      1  0.4415700000000  0.4862150000000  0.5750300000000 1.0
C      1  0.4510170000000  0.4385150000000  0.4562230000000 1.0
C      1  0.4424190000000  0.5680180000000  0.4745910000000 1.0
C      1  0.5532790000000  0.4293220000000  0.4912420000000 1.0
C      1  0.5566440000000  0.5535300000000  0.4750190000000 1.0
C      1  0.5495150000000  0.4948450000000  0.5389850000000 1.0
C      1  0.5153150000000  0.5900380000000  0.4930580000000 1.0
C      1  0.5168410000000  0.4688440000000  0.5791050000000 1.0
C      1  0.5210130000000  0.4614030000000  0.4377910000000 1.0
END
