TITL C-1154830-9999-248 -7.15969649418048e-05 125000 -365.352394073867 0 0 60 (C1) n - 1
REM
REM in /home/nfs/bkarasulu/CARBON/AIRSS/Generating-Clusters/AIREBO/Higher-Symm/Only-C60
REM
REM
REM
REM
REM
REM ./C.cell (28575a23ae977d3b5fae324c64b13b57)
REM
REM compiler GCC version 9.2.1 20190827 (Red Hat 9.2.1-1)
REM options -cpp -mtune=generic -march=x86-64 -g -O0 -fpre-include=/usr/include/finclude/math-vector-fortran.h
REM seed 1718342308 1251365058 -1978777014 220593668 1238614866 781687074 -1575438821 1650167700 1668432603 960719677 -286404859 840813861 1562763264 1097620426 -1471399610 -2115248146 -450152553 -62760967 -1504440824 1648399098 -883784877 719941121 -303126461 1229090806 -1240770933 -1450188727 1916125952 352226756 -1685019233 1525879359 -1952251613 -1071989964 -1391825411
REM
CELL 1.54180   50.00000   50.00000   50.00000   90.00000   90.00000   90.00000
LATT -1
SFAC C  
C      1  0.4341770000000  0.4426550000000  0.4897760000000 1.0
C      1  0.5624320000000  0.4468150000000  0.4857020000000 1.0
C      1  0.4335670000000  0.4779060000000  0.4483030000000 1.0
C      1  0.5460970000000  0.4916930000000  0.4575280000000 1.0
C      1  0.4402900000000  0.5293920000000  0.4573280000000 1.0
C      1  0.5735240000000  0.5399570000000  0.4602510000000 1.0
C      1  0.4366130000000  0.5522400000000  0.5083510000000 1.0
C      1  0.5663970000000  0.5529290000000  0.5126570000000 1.0
C      1  0.4405050000000  0.5141480000000  0.5509720000000 1.0
C      1  0.5672300000000  0.5145270000000  0.5531770000000 1.0
C      1  0.4314190000000  0.4614570000000  0.5430970000000 1.0
C      1  0.5624550000000  0.4617160000000  0.5384270000000 1.0
C      1  0.4850570000000  0.5191160000000  0.4774860000000 1.0
C      1  0.5164440000000  0.5232820000000  0.4805800000000 1.0
C      1  0.4741860000000  0.5358230000000  0.4992830000000 1.0
C      1  0.5127580000000  0.5333030000000  0.5093850000000 1.0
C      1  0.4852160000000  0.5308810000000  0.5276900000000 1.0
C      1  0.5187910000000  0.5097610000000  0.5303080000000 1.0
C      1  0.4831450000000  0.4673360000000  0.5214420000000 1.0
C      1  0.5107890000000  0.4827020000000  0.5234470000000 1.0
C      1  0.4742350000000  0.4638180000000  0.4955750000000 1.0
C      1  0.5123100000000  0.4752010000000  0.4932670000000 1.0
C      1  0.4852500000000  0.4872760000000  0.4765500000000 1.0
C      1  0.5274380000000  0.4961520000000  0.4780870000000 1.0
C      1  0.4838020000000  0.4820070000000  0.4463400000000 1.0
C      1  0.5030380000000  0.4996140000000  0.4343290000000 1.0
C      1  0.4962880000000  0.5277320000000  0.4465120000000 1.0
C      1  0.5245530000000  0.5420790000000  0.4560240000000 1.0
C      1  0.4875170000000  0.5648150000000  0.5067430000000 1.0
C      1  0.5175870000000  0.5641890000000  0.5109300000000 1.0
C      1  0.4886920000000  0.5221890000000  0.5535350000000 1.0
C      1  0.5186000000000  0.5175640000000  0.5591470000000 1.0
C      1  0.4802800000000  0.4537090000000  0.5480020000000 1.0
C      1  0.5129070000000  0.4590740000000  0.5462650000000 1.0
C      1  0.4835640000000  0.4366960000000  0.4845500000000 1.0
C      1  0.5117880000000  0.4453450000000  0.4863440000000 1.0
C      1  0.4242470000000  0.4871740000000  0.4735040000000 1.0
C      1  0.5714980000000  0.4928000000000  0.4720030000000 1.0
C      1  0.4272220000000  0.5150250000000  0.4780780000000 1.0
C      1  0.5790930000000  0.5196480000000  0.4794240000000 1.0
C      1  0.4285200000000  0.5252670000000  0.5046320000000 1.0
C      1  0.5766580000000  0.5271130000000  0.5068950000000 1.0
C      1  0.4282310000000  0.5068330000000  0.5264740000000 1.0
C      1  0.5758630000000  0.5071420000000  0.5271200000000 1.0
C      1  0.4246240000000  0.4790030000000  0.5218540000000 1.0
C      1  0.5735870000000  0.4797820000000  0.5196130000000 1.0
C      1  0.4259150000000  0.4691340000000  0.4952850000000 1.0
C      1  0.5737190000000  0.4721410000000  0.4920950000000 1.0
C      1  0.5447470000000  0.5699030000000  0.5124770000000 1.0
C      1  0.4639690000000  0.5157180000000  0.5654900000000 1.0
C      1  0.5448790000000  0.5185210000000  0.5690000000000 1.0
C      1  0.4536480000000  0.4516500000000  0.5561070000000 1.0
C      1  0.5396800000000  0.4527050000000  0.5509040000000 1.0
C      1  0.4559000000000  0.4272600000000  0.4824510000000 1.0
C      1  0.5376750000000  0.4347650000000  0.4850610000000 1.0
C      1  0.4586450000000  0.4728770000000  0.4381590000000 1.0
C      1  0.5311810000000  0.4928150000000  0.4329400000000 1.0
C      1  0.4646950000000  0.5361430000000  0.4476190000000 1.0
C      1  0.5492280000000  0.5514550000000  0.4541190000000 1.0
C      1  0.4576380000000  0.5700280000000  0.5113060000000 1.0
END
