TITL C-1154804-8633-324 0.000630569932229455 125000 -323.647080069837 0 0 60 (C1) n - 1
REM
REM in /home/nfs/bkarasulu/CARBON/AIRSS/Generating-Clusters/AIREBO/Higher-Symm/Only-C60
REM
REM
REM
REM
REM
REM ./C.cell (28575a23ae977d3b5fae324c64b13b57)
REM
REM compiler GCC version 9.2.1 20190827 (Red Hat 9.2.1-1)
REM options -cpp -mtune=generic -march=x86-64 -g -O0 -fpre-include=/usr/include/finclude/math-vector-fortran.h
REM seed 1467034258 2045844559 851142464 -695109361 -573361939 1201877598 1328488707 -483998886 1227021645 108101274 1776584740 367518824 -448673162 1669810569 -74699020 1815007061 -1500724379 1474011996 1025753086 531418230 2136031789 -1483614356 1052773743 -883633603 1842677366 -566886469 -552814622 1950780156 604649141 -1562943023 1045091790 1593449449 -496495334
REM
CELL 1.54180   50.00000   50.00000   50.00000   90.00000   90.00000   90.00000
LATT -1
SFAC C  
C      1  0.5357920000000  0.5027100000000  0.4493800000000 1.0
C      1  0.4917380000000  0.5316150000000  0.4632460000000 1.0
C      1  0.4857490000000  0.4679010000000  0.4526690000000 1.0
C      1  0.5162590000000  0.5617770000000  0.5287400000000 1.0
C      1  0.4325430000000  0.4777740000000  0.5318410000000 1.0
C      1  0.5518680000000  0.4549510000000  0.5274630000000 1.0
C      1  0.4868620000000  0.4302990000000  0.5160170000000 1.0
C      1  0.5689510000000  0.5192620000000  0.5040190000000 1.0
C      1  0.4482060000000  0.5434920000000  0.5162590000000 1.0
C      1  0.5468460000000  0.5392610000000  0.5021330000000 1.0
C      1  0.4505150000000  0.5116980000000  0.5208550000000 1.0
C      1  0.5144460000000  0.4340020000000  0.5066070000000 1.0
C      1  0.4744250000000  0.5538670000000  0.5090550000000 1.0
C      1  0.4637360000000  0.4479840000000  0.5087170000000 1.0
C      1  0.5616620000000  0.4898810000000  0.5013040000000 1.0
C      1  0.4639850000000  0.4761530000000  0.4655300000000 1.0
C      1  0.5378020000000  0.4790550000000  0.4614450000000 1.0
C      1  0.4991640000000  0.5624100000000  0.4579860000000 1.0
C      1  0.5441820000000  0.5457920000000  0.4341940000000 1.0
C      1  0.4438290000000  0.5265930000000  0.4474950000000 1.0
C      1  0.5126670000000  0.4367140000000  0.4343000000000 1.0
C      1  0.4443270000000  0.4698230000000  0.5061020000000 1.0
C      1  0.5546480000000  0.4620130000000  0.4993590000000 1.0
C      1  0.5037600000000  0.5597890000000  0.5029990000000 1.0
C      1  0.5336160000000  0.5317950000000  0.4120730000000 1.0
C      1  0.4589910000000  0.5229570000000  0.4244640000000 1.0
C      1  0.5044000000000  0.4543300000000  0.4138540000000 1.0
C      1  0.4847120000000  0.4703660000000  0.5231240000000 1.0
C      1  0.5371040000000  0.5020690000000  0.5207970000000 1.0
C      1  0.4868810000000  0.5277830000000  0.5195960000000 1.0
C      1  0.4912310000000  0.4291440000000  0.5451620000000 1.0
C      1  0.5737460000000  0.5264010000000  0.5331780000000 1.0
C      1  0.4212560000000  0.5507940000000  0.5220810000000 1.0
C      1  0.4961530000000  0.4829380000000  0.5525770000000 1.0
C      1  0.5224450000000  0.5044920000000  0.5513790000000 1.0
C      1  0.4759070000000  0.5087650000000  0.5436300000000 1.0
C      1  0.4859790000000  0.5031130000000  0.5002930000000 1.0
C      1  0.5061830000000  0.4778630000000  0.5001130000000 1.0
C      1  0.5172300000000  0.5094290000000  0.4984990000000 1.0
C      1  0.5097710000000  0.4517570000000  0.5535590000000 1.0
C      1  0.5475920000000  0.5273400000000  0.5497040000000 1.0
C      1  0.4059910000000  0.5291980000000  0.5319030000000 1.0
C      1  0.4594240000000  0.5231570000000  0.4698160000000 1.0
C      1  0.5048670000000  0.4477510000000  0.4595310000000 1.0
C      1  0.5401580000000  0.5300610000000  0.4577710000000 1.0
C      1  0.4695190000000  0.4737300000000  0.5721810000000 1.0
C      1  0.5489930000000  0.4916500000000  0.5684560000000 1.0
C      1  0.4833420000000  0.5372240000000  0.5582630000000 1.0
C      1  0.5179620000000  0.5065240000000  0.4236130000000 1.0
C      1  0.4878650000000  0.5151960000000  0.4336380000000 1.0
C      1  0.4954270000000  0.4829760000000  0.4263080000000 1.0
C      1  0.4206840000000  0.5050540000000  0.5324550000000 1.0
C      1  0.5282460000000  0.4404710000000  0.5317990000000 1.0
C      1  0.5404710000000  0.5480560000000  0.5284850000000 1.0
C      1  0.4584390000000  0.4728050000000  0.5445770000000 1.0
C      1  0.5516330000000  0.4793890000000  0.5415470000000 1.0
C      1  0.4990850000000  0.5583830000000  0.5510090000000 1.0
C      1  0.5194100000000  0.5377510000000  0.4820820000000 1.0
C      1  0.4566780000000  0.4971600000000  0.4907270000000 1.0
C      1  0.5246500000000  0.4573100000000  0.4840420000000 1.0
END
