TITL C-1154802-8274-67 0.00164277327388704 125000 -343.680242440422 0 0 60 (C1) n - 1
REM
REM in /home/nfs/bkarasulu/CARBON/AIRSS/Generating-Clusters/AIREBO/Higher-Symm/Only-C60
REM
REM
REM
REM
REM
REM ./C.cell (28575a23ae977d3b5fae324c64b13b57)
REM
REM compiler GCC version 9.2.1 20190827 (Red Hat 9.2.1-1)
REM options -cpp -mtune=generic -march=x86-64 -g -O0 -fpre-include=/usr/include/finclude/math-vector-fortran.h
REM seed -1667284714 -1998246153 1166071566 -1439988874 1650100161 -1694745606 459300141 1259687163 -828754883 -1264587677 1498167322 -1165097562 -1052408207 227546037 1391543439 1623819070 -1372671760 -1362978072 -642630368 878292136 -1375644622 769465122 -455479078 1809325757 1303597742 1187728825 -1417057711 1975737729 1240848293 1578272517 1841675331 651398915 1753820969
REM
CELL 1.54180   50.00000   50.00000   50.00000   90.00000   90.00000   90.00000
LATT -1
SFAC C  
C      1  0.4795040000000  0.5564740000000  0.4646300000000 1.0
C      1  0.4519880000000  0.5008520000000  0.4630060000000 1.0
C      1  0.4840320000000  0.4431740000000  0.4514110000000 1.0
C      1  0.5452100000000  0.4665070000000  0.4558400000000 1.0
C      1  0.5487000000000  0.5367670000000  0.4586310000000 1.0
C      1  0.4708070000000  0.5075480000000  0.5551690000000 1.0
C      1  0.4853130000000  0.4784470000000  0.5550800000000 1.0
C      1  0.5162280000000  0.4870380000000  0.5549570000000 1.0
C      1  0.5231330000000  0.5190710000000  0.5546540000000 1.0
C      1  0.4928530000000  0.5309360000000  0.5579210000000 1.0
C      1  0.4523930000000  0.5514680000000  0.5372950000000 1.0
C      1  0.4386910000000  0.4734950000000  0.5362290000000 1.0
C      1  0.5068600000000  0.4332200000000  0.5309220000000 1.0
C      1  0.5564390000000  0.4871670000000  0.5309250000000 1.0
C      1  0.5366980000000  0.5518220000000  0.5331470000000 1.0
C      1  0.4940520000000  0.4249310000000  0.5005320000000 1.0
C      1  0.5638740000000  0.4738870000000  0.5056990000000 1.0
C      1  0.5459380000000  0.5647790000000  0.5030980000000 1.0
C      1  0.4635360000000  0.5608040000000  0.5130380000000 1.0
C      1  0.4334220000000  0.4826140000000  0.5091860000000 1.0
C      1  0.4919150000000  0.5623940000000  0.5143020000000 1.0
C      1  0.4338440000000  0.5116590000000  0.5100510000000 1.0
C      1  0.4741930000000  0.4401070000000  0.5230920000000 1.0
C      1  0.5478010000000  0.4490010000000  0.5054870000000 1.0
C      1  0.5556870000000  0.5337480000000  0.5113310000000 1.0
C      1  0.4512040000000  0.5207960000000  0.4881240000000 1.0
C      1  0.4729480000000  0.4518020000000  0.4924810000000 1.0
C      1  0.5296490000000  0.4565980000000  0.4824500000000 1.0
C      1  0.5486390000000  0.5190950000000  0.4860340000000 1.0
C      1  0.5006090000000  0.5505060000000  0.4882140000000 1.0
C      1  0.5022270000000  0.4735400000000  0.4269250000000 1.0
C      1  0.5265260000000  0.4889440000000  0.4388860000000 1.0
C      1  0.5293920000000  0.5225520000000  0.4345990000000 1.0
C      1  0.4802590000000  0.5339860000000  0.4414830000000 1.0
C      1  0.4751840000000  0.4744570000000  0.4282080000000 1.0
C      1  0.4635250000000  0.5128980000000  0.4416590000000 1.0
C      1  0.4613540000000  0.4628290000000  0.4522960000000 1.0
C      1  0.5174350000000  0.4492530000000  0.4452320000000 1.0
C      1  0.5548550000000  0.5046050000000  0.4494720000000 1.0
C      1  0.5109010000000  0.5459350000000  0.4501100000000 1.0
C      1  0.5064970000000  0.5526680000000  0.5362050000000 1.0
C      1  0.4440120000000  0.5225770000000  0.5369800000000 1.0
C      1  0.4627110000000  0.4600810000000  0.5404560000000 1.0
C      1  0.5337300000000  0.4465190000000  0.5297850000000 1.0
C      1  0.5501070000000  0.5141880000000  0.5349550000000 1.0
C      1  0.4864130000000  0.4796550000000  0.4925220000000 1.0
C      1  0.5137950000000  0.4802990000000  0.4901670000000 1.0
C      1  0.5219490000000  0.5059700000000  0.4906530000000 1.0
C      1  0.4998900000000  0.5215780000000  0.4924320000000 1.0
C      1  0.4776720000000  0.5057220000000  0.4931620000000 1.0
C      1  0.5364590000000  0.4708510000000  0.5442320000000 1.0
C      1  0.5465910000000  0.5421760000000  0.5631530000000 1.0
C      1  0.4700080000000  0.5546060000000  0.5587760000000 1.0
C      1  0.4387650000000  0.4961710000000  0.5548280000000 1.0
C      1  0.4947070000000  0.4460050000000  0.5591020000000 1.0
C      1  0.5293660000000  0.5562690000000  0.4774830000000 1.0
C      1  0.4569540000000  0.5504270000000  0.4870900000000 1.0
C      1  0.4485690000000  0.4728120000000  0.4819740000000 1.0
C      1  0.5059010000000  0.4375990000000  0.4750220000000 1.0
C      1  0.5580850000000  0.4881260000000  0.4792180000000 1.0
END
