TITL C-1154827-9204-566 -0.00450731288702458 125000 -316.419262016764 0 0 60 (C1) n - 1
REM
REM in /home/nfs/bkarasulu/CARBON/AIRSS/Generating-Clusters/AIREBO/Higher-Symm/Only-C60
REM
REM
REM
REM
REM
REM ./C.cell (28575a23ae977d3b5fae324c64b13b57)
REM
REM compiler GCC version 9.2.1 20190827 (Red Hat 9.2.1-1)
REM options -cpp -mtune=generic -march=x86-64 -g -O0 -fpre-include=/usr/include/finclude/math-vector-fortran.h
REM seed 675115628 517366251 250685675 -1191714987 -1558289115 384148198 481472372 1587442258 -2034891181 634047661 407320093 -874320454 100831161 -391939247 45024113 1858819534 -1314847741 401264556 -1035453364 538277691 1015464506 1248849689 -1902014762 -696305281 1032339098 1923354341 287160974 -1548272153 886786426 -1234216219 416102144 -1823960640 944252794
REM
CELL 1.54180   50.00000   50.00000   50.00000   90.00000   90.00000   90.00000
LATT -1
SFAC C  
C      1  0.4916450000000  0.5279620000000  0.4588100000000 1.0
C      1  0.4771310000000  0.5378280000000  0.5575360000000 1.0
C      1  0.5217540000000  0.4522130000000  0.4714900000000 1.0
C      1  0.5199480000000  0.4552140000000  0.5317470000000 1.0
C      1  0.5218910000000  0.5529730000000  0.5384730000000 1.0
C      1  0.5245300000000  0.5489200000000  0.4652130000000 1.0
C      1  0.4942280000000  0.5152040000000  0.5618620000000 1.0
C      1  0.4895190000000  0.5298740000000  0.4266240000000 1.0
C      1  0.5640840000000  0.4519620000000  0.5400180000000 1.0
C      1  0.5575780000000  0.4516610000000  0.4537380000000 1.0
C      1  0.4419790000000  0.5028220000000  0.5547330000000 1.0
C      1  0.4493380000000  0.4968040000000  0.4405200000000 1.0
C      1  0.4438530000000  0.5402890000000  0.5245980000000 1.0
C      1  0.4544790000000  0.5370580000000  0.4700420000000 1.0
C      1  0.5583580000000  0.5210330000000  0.5156450000000 1.0
C      1  0.5547760000000  0.5120810000000  0.4830310000000 1.0
C      1  0.4884150000000  0.5554540000000  0.5368280000000 1.0
C      1  0.4995680000000  0.5695320000000  0.4663440000000 1.0
C      1  0.5778690000000  0.4879440000000  0.4792370000000 1.0
C      1  0.5717770000000  0.4903290000000  0.5116710000000 1.0
C      1  0.5359500000000  0.5221510000000  0.4227290000000 1.0
C      1  0.5394490000000  0.5194960000000  0.5755490000000 1.0
C      1  0.4893570000000  0.4607340000000  0.5179330000000 1.0
C      1  0.4946700000000  0.4632980000000  0.4843860000000 1.0
C      1  0.4342450000000  0.5159440000000  0.5111570000000 1.0
C      1  0.4482340000000  0.5109320000000  0.4859450000000 1.0
C      1  0.4695620000000  0.4775830000000  0.5398500000000 1.0
C      1  0.4771960000000  0.4779950000000  0.4620570000000 1.0
C      1  0.4752900000000  0.5006820000000  0.4948980000000 1.0
C      1  0.4815560000000  0.4995560000000  0.5224550000000 1.0
C      1  0.5068350000000  0.4256320000000  0.4860750000000 1.0
C      1  0.5013910000000  0.4291980000000  0.5184520000000 1.0
C      1  0.4389440000000  0.4888420000000  0.4662690000000 1.0
C      1  0.4345750000000  0.4928850000000  0.5283320000000 1.0
C      1  0.4603070000000  0.5254600000000  0.4411450000000 1.0
C      1  0.4490600000000  0.5315540000000  0.5525060000000 1.0
C      1  0.4670230000000  0.4355120000000  0.5225890000000 1.0
C      1  0.4743640000000  0.4365770000000  0.4898380000000 1.0
C      1  0.5420760000000  0.5258820000000  0.5428840000000 1.0
C      1  0.5405770000000  0.5238930000000  0.4559650000000 1.0
C      1  0.5482480000000  0.4713290000000  0.4809280000000 1.0
C      1  0.5467190000000  0.4675580000000  0.5147990000000 1.0
C      1  0.5248870000000  0.4964950000000  0.4805030000000 1.0
C      1  0.5327480000000  0.4987590000000  0.5136190000000 1.0
C      1  0.4674810000000  0.5564540000000  0.5155860000000 1.0
C      1  0.4748050000000  0.5547800000000  0.4848230000000 1.0
C      1  0.4549290000000  0.4646470000000  0.4840230000000 1.0
C      1  0.4493290000000  0.4643260000000  0.5167430000000 1.0
C      1  0.4970340000000  0.5016960000000  0.4735990000000 1.0
C      1  0.5078730000000  0.5086300000000  0.5313930000000 1.0
C      1  0.5478180000000  0.4954130000000  0.5581990000000 1.0
C      1  0.5363340000000  0.4949030000000  0.4384000000000 1.0
C      1  0.4683030000000  0.4765040000000  0.4304130000000 1.0
C      1  0.4631170000000  0.4870150000000  0.5690440000000 1.0
C      1  0.5119400000000  0.5328500000000  0.4126040000000 1.0
C      1  0.5125670000000  0.5179730000000  0.5832880000000 1.0
C      1  0.5032620000000  0.5379090000000  0.4891940000000 1.0
C      1  0.5143750000000  0.5341530000000  0.5153550000000 1.0
C      1  0.5415760000000  0.4688400000000  0.5541890000000 1.0
C      1  0.5332700000000  0.4688010000000  0.4441230000000 1.0
END
