TITL C-1154824-75-380 0.00212719126704349 125000 -357.453055339123 0 0 60 (C1) n - 1
REM
REM in /home/nfs/bkarasulu/CARBON/AIRSS/Generating-Clusters/AIREBO/Higher-Symm/Only-C60
REM
REM
REM
REM
REM
REM ./C.cell (28575a23ae977d3b5fae324c64b13b57)
REM
REM compiler GCC version 9.2.1 20190827 (Red Hat 9.2.1-1)
REM options -cpp -mtune=generic -march=x86-64 -g -O0 -fpre-include=/usr/include/finclude/math-vector-fortran.h
REM seed -1037704025 848368640 -1213814068 -83189494 -1917791734 -1458035550 75906609 267045858 -956881227 1683194505 1657793354 253553810 -1088662168 641264652 1122654028 237109629 -181288735 1784487346 1442619211 749377773 -389193639 -675498671 2117382310 853233099 1221668833 141264011 -868074226 -1623410719 786861100 -850667795 -1016869314 515593914 1359648872
REM
CELL 1.54180   50.00000   50.00000   50.00000   90.00000   90.00000   90.00000
LATT -1
SFAC C  
C      1  0.5652190000000  0.4734590000000  0.5237650000000 1.0
C      1  0.5310370000000  0.4235480000000  0.4866580000000 1.0
C      1  0.5005690000000  0.4103950000000  0.4778720000000 1.0
C      1  0.4427320000000  0.4628280000000  0.4559460000000 1.0
C      1  0.5736290000000  0.4622900000000  0.4782500000000 1.0
C      1  0.4959280000000  0.4514100000000  0.5105340000000 1.0
C      1  0.4812130000000  0.5333460000000  0.3854340000000 1.0
C      1  0.4636320000000  0.4905760000000  0.4876790000000 1.0
C      1  0.5757010000000  0.4994810000000  0.5284940000000 1.0
C      1  0.5580570000000  0.5214930000000  0.5304050000000 1.0
C      1  0.5000670000000  0.4983580000000  0.5165700000000 1.0
C      1  0.4712840000000  0.4201880000000  0.4631840000000 1.0
C      1  0.5059190000000  0.5636490000000  0.4927590000000 1.0
C      1  0.4480660000000  0.4945740000000  0.4593700000000 1.0
C      1  0.5533050000000  0.4620950000000  0.5473170000000 1.0
C      1  0.5416780000000  0.4733380000000  0.4992230000000 1.0
C      1  0.4860450000000  0.5622440000000  0.4477620000000 1.0
C      1  0.5117270000000  0.5165600000000  0.4195040000000 1.0
C      1  0.4441710000000  0.5294880000000  0.4977190000000 1.0
C      1  0.5236320000000  0.5197600000000  0.4473780000000 1.0
C      1  0.5089580000000  0.5640090000000  0.4646380000000 1.0
C      1  0.4841350000000  0.5076230000000  0.5397260000000 1.0
C      1  0.4616600000000  0.5480550000000  0.5103330000000 1.0
C      1  0.5080020000000  0.4338770000000  0.4556320000000 1.0
C      1  0.5155230000000  0.4728900000000  0.5202790000000 1.0
C      1  0.4279810000000  0.5267900000000  0.5768780000000 1.0
C      1  0.4887420000000  0.5305430000000  0.4110840000000 1.0
C      1  0.5233900000000  0.4778820000000  0.4714770000000 1.0
C      1  0.5501930000000  0.4426640000000  0.4867080000000 1.0
C      1  0.4904130000000  0.4839670000000  0.5935270000000 1.0
C      1  0.4787390000000  0.5679590000000  0.5002180000000 1.0
C      1  0.5653850000000  0.4923970000000  0.4840230000000 1.0
C      1  0.4736990000000  0.5410550000000  0.4331520000000 1.0
C      1  0.4602430000000  0.4451470000000  0.4682430000000 1.0
C      1  0.4792680000000  0.4617650000000  0.4858590000000 1.0
C      1  0.5606020000000  0.5198990000000  0.4825950000000 1.0
C      1  0.5280160000000  0.4752930000000  0.5481470000000 1.0
C      1  0.4387400000000  0.5257020000000  0.4707580000000 1.0
C      1  0.5195870000000  0.5464730000000  0.5403380000000 1.0
C      1  0.4450090000000  0.5033180000000  0.5113690000000 1.0
C      1  0.4783750000000  0.5299550000000  0.5721360000000 1.0
C      1  0.4918850000000  0.5041950000000  0.4897280000000 1.0
C      1  0.4937940000000  0.5490920000000  0.5525330000000 1.0
C      1  0.5119260000000  0.5031990000000  0.4698640000000 1.0
C      1  0.5064160000000  0.4254460000000  0.5069520000000 1.0
C      1  0.4960050000000  0.5035700000000  0.5713680000000 1.0
C      1  0.5309440000000  0.5510830000000  0.4546170000000 1.0
C      1  0.4910190000000  0.4125910000000  0.4391120000000 1.0
C      1  0.5532670000000  0.5298710000000  0.4577750000000 1.0
C      1  0.5046430000000  0.4586110000000  0.4662310000000 1.0
C      1  0.4523330000000  0.5040650000000  0.5380210000000 1.0
C      1  0.4514330000000  0.5212340000000  0.5634380000000 1.0
C      1  0.4061090000000  0.5298940000000  0.5909810000000 1.0
C      1  0.5240550000000  0.5007850000000  0.5594690000000 1.0
C      1  0.4720520000000  0.5384440000000  0.5338170000000 1.0
C      1  0.4556790000000  0.5243670000000  0.4448630000000 1.0
C      1  0.5255550000000  0.5514160000000  0.5109430000000 1.0
C      1  0.4856280000000  0.4672920000000  0.6122370000000 1.0
C      1  0.5503430000000  0.5341900000000  0.5055600000000 1.0
C      1  0.5366460000000  0.5243110000000  0.5495460000000 1.0
END
