TITL C-1154830-9999-508 0.0016071786149484 125000 -338.570215960386 0 0 60 (C1) n - 1
REM
REM in /home/nfs/bkarasulu/CARBON/AIRSS/Generating-Clusters/AIREBO/Higher-Symm/Only-C60
REM
REM
REM
REM
REM
REM ./C.cell (28575a23ae977d3b5fae324c64b13b57)
REM
REM compiler GCC version 9.2.1 20190827 (Red Hat 9.2.1-1)
REM options -cpp -mtune=generic -march=x86-64 -g -O0 -fpre-include=/usr/include/finclude/math-vector-fortran.h
REM seed 1873540973 1163351537 -1348394695 -625746133 -1000021088 49149436 -1609366264 -1782259457 -139594380 -1414751270 673239077 -2006681748 -139619804 -1751435193 605156872 1815076835 1779750500 76521962 698430715 903629963 -1903656893 -1138087612 1681452348 -633380229 423412146 -850887720 151949578 782585732 1480659993 1234941704 1091523771 1617678927 684452715
REM
CELL 1.54180   50.00000   50.00000   50.00000   90.00000   90.00000   90.00000
LATT -1
SFAC C  
C      1  0.5460340000000  0.4992240000000  0.4756040000000 1.0
C      1  0.4635900000000  0.5083330000000  0.5277680000000 1.0
C      1  0.5696080000000  0.5008470000000  0.5532980000000 1.0
C      1  0.4259860000000  0.5010370000000  0.4587120000000 1.0
C      1  0.5588480000000  0.4752310000000  0.4667870000000 1.0
C      1  0.4532320000000  0.5372260000000  0.5328260000000 1.0
C      1  0.4611930000000  0.5276930000000  0.4735740000000 1.0
C      1  0.5435600000000  0.4742740000000  0.5246210000000 1.0
C      1  0.5136870000000  0.5181020000000  0.4352070000000 1.0
C      1  0.4733920000000  0.4661490000000  0.5588990000000 1.0
C      1  0.5423070000000  0.4482750000000  0.5133730000000 1.0
C      1  0.4654880000000  0.5548690000000  0.4803010000000 1.0
C      1  0.4753680000000  0.5557650000000  0.5293030000000 1.0
C      1  0.5396950000000  0.4535920000000  0.4646110000000 1.0
C      1  0.5490000000000  0.5597080000000  0.4228480000000 1.0
C      1  0.4218950000000  0.4472640000000  0.5719230000000 1.0
C      1  0.4732960000000  0.5065970000000  0.4974070000000 1.0
C      1  0.5320530000000  0.4967960000000  0.5030570000000 1.0
C      1  0.5229500000000  0.4526420000000  0.4430480000000 1.0
C      1  0.4973060000000  0.5516040000000  0.5463310000000 1.0
C      1  0.4252050000000  0.5383460000000  0.5315280000000 1.0
C      1  0.5867930000000  0.4757140000000  0.4692360000000 1.0
C      1  0.4540370000000  0.4308110000000  0.5040690000000 1.0
C      1  0.5577900000000  0.5688170000000  0.5012350000000 1.0
C      1  0.4967280000000  0.5294050000000  0.4991000000000 1.0
C      1  0.5099140000000  0.4735230000000  0.4954870000000 1.0
C      1  0.4090450000000  0.4866240000000  0.4821620000000 1.0
C      1  0.5866710000000  0.5124870000000  0.5290810000000 1.0
C      1  0.4928710000000  0.5013340000000  0.4356410000000 1.0
C      1  0.4987020000000  0.4801150000000  0.5618040000000 1.0
C      1  0.5261560000000  0.4499160000000  0.4896840000000 1.0
C      1  0.4841000000000  0.5554400000000  0.5019130000000 1.0
C      1  0.4417890000000  0.4606050000000  0.5615420000000 1.0
C      1  0.5382210000000  0.5385960000000  0.4338340000000 1.0
C      1  0.4624200000000  0.4548070000000  0.5003440000000 1.0
C      1  0.5435490000000  0.5480280000000  0.5056900000000 1.0
C      1  0.5625360000000  0.5300630000000  0.5422490000000 1.0
C      1  0.4370200000000  0.4745990000000  0.4720770000000 1.0
C      1  0.4110880000000  0.5197440000000  0.5175610000000 1.0
C      1  0.6025170000000  0.4846620000000  0.4896690000000 1.0
C      1  0.5369910000000  0.5176780000000  0.4576950000000 1.0
C      1  0.4528670000000  0.4816570000000  0.5400480000000 1.0
C      1  0.3978640000000  0.5007800000000  0.5033420000000 1.0
C      1  0.6032910000000  0.5031590000000  0.5096270000000 1.0
C      1  0.4670680000000  0.4340860000000  0.4640720000000 1.0
C      1  0.5395240000000  0.5692260000000  0.5394320000000 1.0
C      1  0.4554510000000  0.4748080000000  0.4318730000000 1.0
C      1  0.5245690000000  0.5187970000000  0.5688050000000 1.0
C      1  0.4971650000000  0.5271490000000  0.5617920000000 1.0
C      1  0.5037130000000  0.4503910000000  0.4185210000000 1.0
C      1  0.5229370000000  0.5241880000000  0.5125700000000 1.0
C      1  0.4813770000000  0.4782930000000  0.4884800000000 1.0
C      1  0.4672420000000  0.4630780000000  0.4615420000000 1.0
C      1  0.5298070000000  0.5393690000000  0.5422350000000 1.0
C      1  0.5257170000000  0.4900530000000  0.5658400000000 1.0
C      1  0.4641730000000  0.5029750000000  0.4320840000000 1.0
C      1  0.5483530000000  0.4825310000000  0.5508440000000 1.0
C      1  0.4481710000000  0.5168680000000  0.4513560000000 1.0
C      1  0.4949070000000  0.4716280000000  0.4437020000000 1.0
C      1  0.4831720000000  0.5044200000000  0.5527350000000 1.0
END
