TITL C-1154802-8274-548 -0.00225504811925264 125000 -307.44878375641 0 0 60 (C1) n - 1
REM
REM in /home/nfs/bkarasulu/CARBON/AIRSS/Generating-Clusters/AIREBO/Higher-Symm/Only-C60
REM
REM
REM
REM
REM
REM ./C.cell (28575a23ae977d3b5fae324c64b13b57)
REM
REM compiler GCC version 9.2.1 20190827 (Red Hat 9.2.1-1)
REM options -cpp -mtune=generic -march=x86-64 -g -O0 -fpre-include=/usr/include/finclude/math-vector-fortran.h
REM seed -440387951 2019565444 -1329568522 -148561776 -356504436 -1014704549 573698729 1209245646 1949257133 712298680 -2022281331 -606927947 -727286206 -61390069 -330155969 -109065376 288042071 391070870 -2057378103 -1088926307 1220261276 619142379 690537313 110543869 -2033226143 1573263987 846335947 777958673 -209419367 402530766 1209936292 -1496552736 1287659704
REM
CELL 1.54180   50.00000   50.00000   50.00000   90.00000   90.00000   90.00000
LATT -1
SFAC C  
C      1  0.4720250000000  0.4468280000000  0.5084460000000 1.0
C      1  0.5271920000000  0.5516810000000  0.4849090000000 1.0
C      1  0.5476910000000  0.4545040000000  0.5015320000000 1.0
C      1  0.4546240000000  0.5534580000000  0.5031790000000 1.0
C      1  0.4267180000000  0.5411300000000  0.4968850000000 1.0
C      1  0.5704050000000  0.4621410000000  0.5144910000000 1.0
C      1  0.4431130000000  0.4691670000000  0.5246620000000 1.0
C      1  0.5648150000000  0.5187380000000  0.4774390000000 1.0
C      1  0.5204160000000  0.4379780000000  0.5242050000000 1.0
C      1  0.4823290000000  0.5640940000000  0.4691350000000 1.0
C      1  0.5846320000000  0.4896530000000  0.5125420000000 1.0
C      1  0.4204890000000  0.5115510000000  0.5078410000000 1.0
C      1  0.4378860000000  0.4711720000000  0.4721360000000 1.0
C      1  0.5570050000000  0.5317210000000  0.5264440000000 1.0
C      1  0.4901680000000  0.4764140000000  0.4438750000000 1.0
C      1  0.5021070000000  0.5252450000000  0.5511440000000 1.0
C      1  0.5411700000000  0.5249950000000  0.5005460000000 1.0
C      1  0.4590140000000  0.4735700000000  0.4949310000000 1.0
C      1  0.4772520000000  0.5348670000000  0.5622280000000 1.0
C      1  0.5180460000000  0.4656470000000  0.4401950000000 1.0
C      1  0.4903560000000  0.4613080000000  0.5530230000000 1.0
C      1  0.5084160000000  0.5358440000000  0.4405160000000 1.0
C      1  0.5185270000000  0.5085260000000  0.4556460000000 1.0
C      1  0.4838900000000  0.4892600000000  0.5381990000000 1.0
C      1  0.4159220000000  0.4869310000000  0.5173460000000 1.0
C      1  0.5888200000000  0.5065380000000  0.4925930000000 1.0
C      1  0.5030350000000  0.5459200000000  0.5062080000000 1.0
C      1  0.5008600000000  0.4574470000000  0.4953300000000 1.0
C      1  0.4803600000000  0.5322160000000  0.4302080000000 1.0
C      1  0.5165970000000  0.4647630000000  0.5671350000000 1.0
C      1  0.4474350000000  0.5169880000000  0.4848520000000 1.0
C      1  0.5643910000000  0.4841870000000  0.5396670000000 1.0
C      1  0.4771820000000  0.4994360000000  0.4859640000000 1.0
C      1  0.5201240000000  0.5016440000000  0.5052960000000 1.0
C      1  0.5359550000000  0.4789570000000  0.4853820000000 1.0
C      1  0.4602730000000  0.5240690000000  0.5159460000000 1.0
C      1  0.4780920000000  0.5667990000000  0.5087490000000 1.0
C      1  0.5270820000000  0.4400930000000  0.4848410000000 1.0
C      1  0.5711920000000  0.5157220000000  0.5396810000000 1.0
C      1  0.4288390000000  0.4947820000000  0.4670390000000 1.0
C      1  0.4704830000000  0.5381260000000  0.4069790000000 1.0
C      1  0.5235530000000  0.4554680000000  0.5903730000000 1.0
C      1  0.4931890000000  0.5164060000000  0.5199450000000 1.0
C      1  0.5043740000000  0.4832850000000  0.4734950000000 1.0
C      1  0.5598940000000  0.5519700000000  0.4785700000000 1.0
C      1  0.4416280000000  0.4355080000000  0.5186440000000 1.0
C      1  0.4526970000000  0.4959590000000  0.5432940000000 1.0
C      1  0.5523340000000  0.5052400000000  0.4541260000000 1.0
C      1  0.4838410000000  0.5325040000000  0.4816410000000 1.0
C      1  0.5174940000000  0.4717440000000  0.5213230000000 1.0
C      1  0.4926580000000  0.4405650000000  0.5315940000000 1.0
C      1  0.5096200000000  0.5576100000000  0.4606630000000 1.0
C      1  0.4642180000000  0.5224000000000  0.4557740000000 1.0
C      1  0.5347780000000  0.4829080000000  0.5483920000000 1.0
C      1  0.4548030000000  0.5263020000000  0.5484930000000 1.0
C      1  0.5396880000000  0.4748570000000  0.4536430000000 1.0
C      1  0.5244180000000  0.5117710000000  0.5584950000000 1.0
C      1  0.4706080000000  0.4943400000000  0.4384790000000 1.0
C      1  0.4585150000000  0.4648540000000  0.5557350000000 1.0
C      1  0.5367630000000  0.5222020000000  0.4299580000000 1.0
END
