TITL C-1154802-8274-650 0.000739815250841387 125000 -322.895376278131 0 0 60 (C1) n - 1
REM
REM in /home/nfs/bkarasulu/CARBON/AIRSS/Generating-Clusters/AIREBO/Higher-Symm/Only-C60
REM
REM
REM
REM
REM
REM ./C.cell (28575a23ae977d3b5fae324c64b13b57)
REM
REM compiler GCC version 9.2.1 20190827 (Red Hat 9.2.1-1)
REM options -cpp -mtune=generic -march=x86-64 -g -O0 -fpre-include=/usr/include/finclude/math-vector-fortran.h
REM seed -700649288 -152066469 -1756598650 -309653232 -810874384 153996483 -891413489 1570913863 -1933747635 179972306 1370090914 247438256 -1224818722 1103040712 -1885989053 199341510 -1922139592 549672011 1005232326 2106029209 -591780945 1411913186 -1524436513 -1631494898 1709287222 1155880229 -1456974605 397531645 1671705124 621545873 -1798649939 1729630704 -1701564267
REM
CELL 1.54180   50.00000   50.00000   50.00000   90.00000   90.00000   90.00000
LATT -1
SFAC C  
C      1  0.4269180000000  0.5206600000000  0.5507830000000 1.0
C      1  0.5040990000000  0.4361410000000  0.4896760000000 1.0
C      1  0.4917070000000  0.5719950000000  0.4398270000000 1.0
C      1  0.4029370000000  0.5260170000000  0.5627510000000 1.0
C      1  0.4543330000000  0.5232670000000  0.5305460000000 1.0
C      1  0.6096880000000  0.5085060000000  0.5337730000000 1.0
C      1  0.4988040000000  0.4651960000000  0.5490780000000 1.0
C      1  0.4793540000000  0.4535290000000  0.4967150000000 1.0
C      1  0.5899660000000  0.4952920000000  0.5244060000000 1.0
C      1  0.4768290000000  0.4933770000000  0.4295890000000 1.0
C      1  0.5427150000000  0.4718950000000  0.5734480000000 1.0
C      1  0.4424710000000  0.4995290000000  0.4882830000000 1.0
C      1  0.5393500000000  0.4742880000000  0.4409840000000 1.0
C      1  0.4528560000000  0.5416010000000  0.5558790000000 1.0
C      1  0.5124650000000  0.4368260000000  0.4657470000000 1.0
C      1  0.5399820000000  0.4690220000000  0.4745700000000 1.0
C      1  0.5716840000000  0.4721760000000  0.4518710000000 1.0
C      1  0.5350520000000  0.4946040000000  0.5169970000000 1.0
C      1  0.5203560000000  0.5132060000000  0.4656400000000 1.0
C      1  0.4296430000000  0.4925350000000  0.5354800000000 1.0
C      1  0.4921380000000  0.4852140000000  0.4693160000000 1.0
C      1  0.4350450000000  0.4177290000000  0.5251090000000 1.0
C      1  0.4494460000000  0.5021800000000  0.4350030000000 1.0
C      1  0.5506140000000  0.4601820000000  0.5296910000000 1.0
C      1  0.4418990000000  0.4468930000000  0.5343990000000 1.0
C      1  0.4593210000000  0.5499200000000  0.4748910000000 1.0
C      1  0.4986000000000  0.5511380000000  0.5491150000000 1.0
C      1  0.5280770000000  0.4790390000000  0.5467950000000 1.0
C      1  0.5312720000000  0.5491540000000  0.5134740000000 1.0
C      1  0.4628210000000  0.5022510000000  0.4658710000000 1.0
C      1  0.4732540000000  0.5601840000000  0.5580020000000 1.0
C      1  0.4245640000000  0.4944880000000  0.5076980000000 1.0
C      1  0.5209580000000  0.4895050000000  0.4868560000000 1.0
C      1  0.4837640000000  0.5289650000000  0.4679050000000 1.0
C      1  0.5094130000000  0.4633510000000  0.4497700000000 1.0
C      1  0.5289140000000  0.5033350000000  0.4357850000000 1.0
C      1  0.4621060000000  0.4494590000000  0.4463400000000 1.0
C      1  0.5029760000000  0.5542700000000  0.4576270000000 1.0
C      1  0.4481750000000  0.4722020000000  0.5429100000000 1.0
C      1  0.4807620000000  0.5078610000000  0.5277440000000 1.0
C      1  0.5202190000000  0.5629590000000  0.5356210000000 1.0
C      1  0.5557990000000  0.4350250000000  0.5331470000000 1.0
C      1  0.5632530000000  0.5801900000000  0.4930280000000 1.0
C      1  0.5284660000000  0.5568300000000  0.4677040000000 1.0
C      1  0.5849010000000  0.5949080000000  0.4943170000000 1.0
C      1  0.4819120000000  0.5873670000000  0.4209930000000 1.0
C      1  0.4507040000000  0.4388200000000  0.5035190000000 1.0
C      1  0.4942920000000  0.5171350000000  0.4979500000000 1.0
C      1  0.4969440000000  0.5129100000000  0.4409700000000 1.0
C      1  0.4840580000000  0.4848920000000  0.5014640000000 1.0
C      1  0.5001890000000  0.5229730000000  0.5478020000000 1.0
C      1  0.4818990000000  0.4667260000000  0.4354210000000 1.0
C      1  0.4757660000000  0.4794980000000  0.5437160000000 1.0
C      1  0.4983680000000  0.4393950000000  0.5586790000000 1.0
C      1  0.5661380000000  0.4819650000000  0.5115200000000 1.0
C      1  0.5689170000000  0.4733850000000  0.4827230000000 1.0
C      1  0.5226590000000  0.5225920000000  0.5089770000000 1.0
C      1  0.4583520000000  0.4444030000000  0.4720770000000 1.0
C      1  0.5197170000000  0.5084570000000  0.5588110000000 1.0
C      1  0.5421200000000  0.5625850000000  0.4912180000000 1.0
END
