TITL C-1154824-75-184 0.00118228583897093 125000 -341.124145256608 0 0 60 (C1) n - 1
REM
REM in /home/nfs/bkarasulu/CARBON/AIRSS/Generating-Clusters/AIREBO/Higher-Symm/Only-C60
REM
REM
REM
REM
REM
REM ./C.cell (28575a23ae977d3b5fae324c64b13b57)
REM
REM compiler GCC version 9.2.1 20190827 (Red Hat 9.2.1-1)
REM options -cpp -mtune=generic -march=x86-64 -g -O0 -fpre-include=/usr/include/finclude/math-vector-fortran.h
REM seed 1165188489 -1645271577 -513008 -1337512360 1303823224 -498118683 -7141018 -1790332643 1551806615 -2112079573 1565082922 -1621421259 1674908807 1220069383 895011722 -1616956051 -833476630 -962925932 932674459 -49732668 -690598849 1610002694 2007861449 -814974503 758344517 780171184 1514083700 -410429641 1572318739 -1834878632 2077260781 1228122626 1183591592
REM
CELL 1.54180   50.00000   50.00000   50.00000   90.00000   90.00000   90.00000
LATT -1
SFAC C  
C      1  0.6359110000000  0.4907360000000  0.4691780000000 1.0
C      1  0.4533350000000  0.4959630000000  0.6345910000000 1.0
C      1  0.4196430000000  0.5268150000000  0.4253120000000 1.0
C      1  0.4616990000000  0.4922980000000  0.6101470000000 1.0
C      1  0.4388660000000  0.5149980000000  0.4406400000000 1.0
C      1  0.6102850000000  0.4889090000000  0.4737790000000 1.0
C      1  0.4950950000000  0.4937680000000  0.5188440000000 1.0
C      1  0.4874100000000  0.4950900000000  0.4863960000000 1.0
C      1  0.5189710000000  0.5029820000000  0.4963700000000 1.0
C      1  0.4561310000000  0.4925330000000  0.4815770000000 1.0
C      1  0.5346250000000  0.5060690000000  0.4670720000000 1.0
C      1  0.5031370000000  0.5011090000000  0.5484440000000 1.0
C      1  0.5351670000000  0.5663360000000  0.4974930000000 1.0
C      1  0.4882350000000  0.5604840000000  0.5258970000000 1.0
C      1  0.4697290000000  0.5623160000000  0.4659900000000 1.0
C      1  0.5533110000000  0.4872390000000  0.4535400000000 1.0
C      1  0.5060910000000  0.4818390000000  0.5712740000000 1.0
C      1  0.4411120000000  0.4696720000000  0.4849860000000 1.0
C      1  0.5502620000000  0.5279750000000  0.5287300000000 1.0
C      1  0.4550210000000  0.5241810000000  0.5155680000000 1.0
C      1  0.5038610000000  0.5187180000000  0.4586770000000 1.0
C      1  0.4321140000000  0.5176770000000  0.5012720000000 1.0
C      1  0.5243830000000  0.5266170000000  0.4329690000000 1.0
C      1  0.5458120000000  0.5220760000000  0.5580560000000 1.0
C      1  0.4399960000000  0.5185330000000  0.4697250000000 1.0
C      1  0.5385580000000  0.5383440000000  0.4583930000000 1.0
C      1  0.5159850000000  0.5259150000000  0.5525680000000 1.0
C      1  0.4840540000000  0.4836730000000  0.5895750000000 1.0
C      1  0.4593860000000  0.4993520000000  0.4321810000000 1.0
C      1  0.5804730000000  0.4881380000000  0.4634430000000 1.0
C      1  0.4838890000000  0.4682710000000  0.4348520000000 1.0
C      1  0.5652280000000  0.4842040000000  0.5125790000000 1.0
C      1  0.4509360000000  0.4919260000000  0.5512980000000 1.0
C      1  0.5454530000000  0.4594880000000  0.4363270000000 1.0
C      1  0.5249330000000  0.4539310000000  0.5720930000000 1.0
C      1  0.4242960000000  0.4436840000000  0.4948200000000 1.0
C      1  0.4990010000000  0.4458830000000  0.4374060000000 1.0
C      1  0.5626170000000  0.4640740000000  0.5303460000000 1.0
C      1  0.4280060000000  0.4796550000000  0.5434810000000 1.0
C      1  0.4562520000000  0.4921740000000  0.5782680000000 1.0
C      1  0.4638950000000  0.4760870000000  0.4125840000000 1.0
C      1  0.5857520000000  0.4842330000000  0.4941350000000 1.0
C      1  0.5465870000000  0.5054490000000  0.5117480000000 1.0
C      1  0.4670820000000  0.5046370000000  0.5315670000000 1.0
C      1  0.4842910000000  0.4947170000000  0.4534660000000 1.0
C      1  0.4737250000000  0.5467340000000  0.5024750000000 1.0
C      1  0.4948290000000  0.5446020000000  0.4755670000000 1.0
C      1  0.5359410000000  0.5522590000000  0.5214870000000 1.0
C      1  0.5377930000000  0.4810140000000  0.5807790000000 1.0
C      1  0.4140140000000  0.4737740000000  0.5001870000000 1.0
C      1  0.5468230000000  0.4870600000000  0.4213490000000 1.0
C      1  0.5238320000000  0.5552510000000  0.4746470000000 1.0
C      1  0.5115930000000  0.5496230000000  0.5367170000000 1.0
C      1  0.4481190000000  0.5473560000000  0.4801010000000 1.0
C      1  0.5344740000000  0.5103320000000  0.4129280000000 1.0
C      1  0.5527750000000  0.5040230000000  0.5782290000000 1.0
C      1  0.4110220000000  0.5002570000000  0.5084450000000 1.0
C      1  0.4206750000000  0.4178490000000  0.4953310000000 1.0
C      1  0.5409120000000  0.4333180000000  0.4363910000000 1.0
C      1  0.5265970000000  0.4277830000000  0.5677110000000 1.0
END
