TITL C-1154808-8168-620 -0.00278841714274804 125000 -339.586945728565 0 0 60 (C1) n - 1
REM
REM in /home/nfs/bkarasulu/CARBON/AIRSS/Generating-Clusters/AIREBO/Higher-Symm/Only-C60
REM
REM
REM
REM
REM
REM ./C.cell (28575a23ae977d3b5fae324c64b13b57)
REM
REM compiler GCC version 9.2.1 20190827 (Red Hat 9.2.1-1)
REM options -cpp -mtune=generic -march=x86-64 -g -O0 -fpre-include=/usr/include/finclude/math-vector-fortran.h
REM seed 1753471549 813826436 -15804638 -1492031319 1013526391 -803671628 1830748458 -1735376439 -239125443 813581693 -768386912 -549734879 1255276562 143029427 1196305806 851451439 1958964617 -1743116739 1846997578 1013498838 482909337 -1133175960 -449756674 -17362353 -1019251775 339829320 1499029079 414685855 -716056949 1227211321 596622195 -1942424487 1574859815
REM
CELL 1.54180   50.00000   50.00000   50.00000   90.00000   90.00000   90.00000
LATT -1
SFAC C  
C      1  0.5085650000000  0.4510420000000  0.4840510000000 1.0
C      1  0.5466300000000  0.4831970000000  0.5157500000000 1.0
C      1  0.5392330000000  0.5318400000000  0.4832220000000 1.0
C      1  0.4931560000000  0.5514430000000  0.5177870000000 1.0
C      1  0.4519270000000  0.5187250000000  0.4825160000000 1.0
C      1  0.4612830000000  0.4676380000000  0.5167140000000 1.0
C      1  0.4431520000000  0.5154940000000  0.5213220000000 1.0
C      1  0.4579720000000  0.4583420000000  0.4780580000000 1.0
C      1  0.5145910000000  0.4429880000000  0.5226570000000 1.0
C      1  0.5568190000000  0.4836540000000  0.4771800000000 1.0
C      1  0.5425940000000  0.5400050000000  0.5221360000000 1.0
C      1  0.4864270000000  0.5563160000000  0.4787100000000 1.0
C      1  0.5569080000000  0.5164720000000  0.4703950000000 1.0
C      1  0.5157980000000  0.5581900000000  0.5302660000000 1.0
C      1  0.4573730000000  0.5420180000000  0.4704600000000 1.0
C      1  0.4429130000000  0.4831320000000  0.5286390000000 1.0
C      1  0.4864990000000  0.4426180000000  0.4712940000000 1.0
C      1  0.5427690000000  0.4600860000000  0.5287990000000 1.0
C      1  0.4423700000000  0.5186590000000  0.4069890000000 1.0
C      1  0.4540320000000  0.4600780000000  0.5926770000000 1.0
C      1  0.5110120000000  0.4397040000000  0.4082590000000 1.0
C      1  0.5584010000000  0.4795780000000  0.5911100000000 1.0
C      1  0.5464010000000  0.5398460000000  0.4079800000000 1.0
C      1  0.4873160000000  0.5590040000000  0.5929270000000 1.0
C      1  0.4318700000000  0.4991370000000  0.4937260000000 1.0
C      1  0.4663620000000  0.4404310000000  0.5057230000000 1.0
C      1  0.5341630000000  0.4409270000000  0.4949070000000 1.0
C      1  0.5684940000000  0.4998450000000  0.5047320000000 1.0
C      1  0.5344090000000  0.5588460000000  0.4950180000000 1.0
C      1  0.4660700000000  0.5581180000000  0.5058970000000 1.0
C      1  0.4725320000000  0.5098830000000  0.4491940000000 1.0
C      1  0.4773720000000  0.4815300000000  0.5507190000000 1.0
C      1  0.5046230000000  0.4713250000000  0.4498140000000 1.0
C      1  0.5271230000000  0.4900840000000  0.5501260000000 1.0
C      1  0.5222520000000  0.5184610000000  0.4495690000000 1.0
C      1  0.4946580000000  0.5285810000000  0.5506000000000 1.0
C      1  0.5076250000000  0.4564420000000  0.4281370000000 1.0
C      1  0.5418780000000  0.4851160000000  0.5715380000000 1.0
C      1  0.5336290000000  0.5285220000000  0.4278650000000 1.0
C      1  0.4911660000000  0.5428500000000  0.5726540000000 1.0
C      1  0.4583590000000  0.5139440000000  0.4272110000000 1.0
C      1  0.4664210000000  0.4714470000000  0.5725770000000 1.0
C      1  0.4443450000000  0.5464430000000  0.5169470000000 1.0
C      1  0.4313900000000  0.4745440000000  0.4823180000000 1.0
C      1  0.4877560000000  0.4274500000000  0.5164310000000 1.0
C      1  0.5562610000000  0.4526700000000  0.4841190000000 1.0
C      1  0.5695690000000  0.5248920000000  0.5156540000000 1.0
C      1  0.5129400000000  0.5720000000000  0.4846700000000 1.0
C      1  0.5223550000000  0.5026040000000  0.5124730000000 1.0
C      1  0.5095640000000  0.5215800000000  0.4873230000000 1.0
C      1  0.4866240000000  0.5202810000000  0.5123910000000 1.0
C      1  0.4764510000000  0.4994630000000  0.4875020000000 1.0
C      1  0.4892390000000  0.4805220000000  0.5126780000000 1.0
C      1  0.5121480000000  0.4818040000000  0.4875850000000 1.0
C      1  0.4715450000000  0.5090180000000  0.5389010000000 1.0
C      1  0.4779020000000  0.4803120000000  0.4614080000000 1.0
C      1  0.5058940000000  0.4715710000000  0.5389070000000 1.0
C      1  0.5277780000000  0.4908650000000  0.4610020000000 1.0
C      1  0.5214810000000  0.5197710000000  0.5395110000000 1.0
C      1  0.4936100000000  0.5286470000000  0.4602750000000 1.0
END
