TITL C-1154808-8168-88 -0.00110635627397013 125000 -348.950037491873 0 0 60 (C1) n - 1
REM
REM in /home/nfs/bkarasulu/CARBON/AIRSS/Generating-Clusters/AIREBO/Higher-Symm/Only-C60
REM
REM
REM
REM
REM
REM ./C.cell (28575a23ae977d3b5fae324c64b13b57)
REM
REM compiler GCC version 9.2.1 20190827 (Red Hat 9.2.1-1)
REM options -cpp -mtune=generic -march=x86-64 -g -O0 -fpre-include=/usr/include/finclude/math-vector-fortran.h
REM seed 1331707999 821747379 671882525 282382890 -1629249742 365458524 966010387 -1007865381 -438937259 940867842 1915020433 1181188311 -1341484563 -1213381172 -1320315625 548636848 -1276428615 557016567 -1599170044 2112096842 -765164898 -736567298 -1558646634 -1462394516 1581057116 1428679913 985220670 788011150 -140653414 1232049709 -1896967751 -30381387 1549818852
REM
CELL 1.54180   50.00000   50.00000   50.00000   90.00000   90.00000   90.00000
LATT -1
SFAC C  
C      1  0.5298530000000  0.4805420000000  0.5030930000000 1.0
C      1  0.5045370000000  0.5293370000000  0.5039600000000 1.0
C      1  0.4620660000000  0.4866820000000  0.5047730000000 1.0
C      1  0.4991370000000  0.5182930000000  0.5756360000000 1.0
C      1  0.4842670000000  0.4900900000000  0.5712980000000 1.0
C      1  0.5160830000000  0.4910410000000  0.5753390000000 1.0
C      1  0.5549500000000  0.4811370000000  0.5219950000000 1.0
C      1  0.4913550000000  0.5517540000000  0.5220680000000 1.0
C      1  0.4527120000000  0.4613210000000  0.5212220000000 1.0
C      1  0.5001570000000  0.4400840000000  0.4465970000000 1.0
C      1  0.5550000000000  0.5318600000000  0.4454740000000 1.0
C      1  0.4440450000000  0.5348990000000  0.4449780000000 1.0
C      1  0.4864680000000  0.5434910000000  0.4714890000000 1.0
C      1  0.4625770000000  0.4649720000000  0.4712300000000 1.0
C      1  0.5527660000000  0.4880920000000  0.4712130000000 1.0
C      1  0.4509680000000  0.5147960000000  0.4941820000000 1.0
C      1  0.5091380000000  0.4601000000000  0.4955630000000 1.0
C      1  0.5352650000000  0.5333440000000  0.4945360000000 1.0
C      1  0.5439720000000  0.5489040000000  0.4706750000000 1.0
C      1  0.4342420000000  0.5176120000000  0.4700940000000 1.0
C      1  0.5173180000000  0.4418250000000  0.4734450000000 1.0
C      1  0.5593770000000  0.5049110000000  0.4438320000000 1.0
C      1  0.4677900000000  0.5483400000000  0.4451450000000 1.0
C      1  0.4756470000000  0.4511830000000  0.4438690000000 1.0
C      1  0.4608050000000  0.4754230000000  0.5693390000000 1.0
C      1  0.5405430000000  0.4791450000000  0.5704630000000 1.0
C      1  0.5006520000000  0.5456390000000  0.5710240000000 1.0
C      1  0.5285630000000  0.5501050000000  0.4426000000000 1.0
C      1  0.4405450000000  0.5030110000000  0.4422860000000 1.0
C      1  0.5311000000000  0.4491360000000  0.4456170000000 1.0
C      1  0.4427550000000  0.4546450000000  0.4912940000000 1.0
C      1  0.5680080000000  0.4743140000000  0.4931420000000 1.0
C      1  0.4900780000000  0.5646940000000  0.4926540000000 1.0
C      1  0.5294280000000  0.5048430000000  0.4848460000000 1.0
C      1  0.4838860000000  0.5135510000000  0.4857430000000 1.0
C      1  0.4870680000000  0.4796240000000  0.4861640000000 1.0
C      1  0.5373170000000  0.5524180000000  0.5392120000000 1.0
C      1  0.4357910000000  0.5044190000000  0.5395080000000 1.0
C      1  0.5251540000000  0.4455940000000  0.5388070000000 1.0
C      1  0.4455480000000  0.4788400000000  0.5457580000000 1.0
C      1  0.5434550000000  0.4658450000000  0.5457860000000 1.0
C      1  0.5099990000000  0.5541680000000  0.5457470000000 1.0
C      1  0.5181540000000  0.4913730000000  0.4255160000000 1.0
C      1  0.4980470000000  0.5154630000000  0.4255610000000 1.0
C      1  0.4864970000000  0.4857490000000  0.4269280000000 1.0
C      1  0.4620760000000  0.5452660000000  0.5304000000000 1.0
C      1  0.4766760000000  0.4424370000000  0.5273780000000 1.0
C      1  0.5622060000000  0.5110390000000  0.5284810000000 1.0
C      1  0.5614480000000  0.4818860000000  0.5872880000000 1.0
C      1  0.4926230000000  0.5636060000000  0.5894960000000 1.0
C      1  0.4532380000000  0.4578450000000  0.5883480000000 1.0
C      1  0.4211520000000  0.4410860000000  0.4860380000000 1.0
C      1  0.5896220000000  0.4600660000000  0.4902550000000 1.0
C      1  0.4897480000000  0.5904290000000  0.4884910000000 1.0
C      1  0.4470460000000  0.5241400000000  0.5232210000000 1.0
C      1  0.5026850000000  0.4466230000000  0.5220760000000 1.0
C      1  0.5489140000000  0.5336610000000  0.5218770000000 1.0
C      1  0.5390730000000  0.4775160000000  0.4426610000000 1.0
C      1  0.5006400000000  0.5405040000000  0.4416980000000 1.0
C      1  0.4597700000000  0.4812850000000  0.4425920000000 1.0
END
