TITL C-1154826-9507-388 -0.00363672983106772 125000 -359.142902374437 0 0 60 (C1) n - 1
REM
REM in /home/nfs/bkarasulu/CARBON/AIRSS/Generating-Clusters/AIREBO/Higher-Symm/Only-C60
REM
REM
REM
REM
REM
REM ./C.cell (28575a23ae977d3b5fae324c64b13b57)
REM
REM compiler GCC version 9.2.1 20190827 (Red Hat 9.2.1-1)
REM options -cpp -mtune=generic -march=x86-64 -g -O0 -fpre-include=/usr/include/finclude/math-vector-fortran.h
REM seed 1571338492 -1445620896 259428846 1893427343 516600626 1830315761 -1198432795 263402711 1665643407 -2047028280 -1365275221 668130221 -760465327 -1612756133 -376618259 -1371348834 -745309892 -1041991286 -994734632 -1224920605 521258307 79688257 1238462621 -1433895477 1657086965 -789134904 733491545 -2084164736 1815422324 -181879906 1551206742 2140781452 1410707708
REM
CELL 1.54180   50.00000   50.00000   50.00000   90.00000   90.00000   90.00000
LATT -1
SFAC C  
C      1  0.5500850000000  0.4635960000000  0.4590800000000 1.0
C      1  0.5606010000000  0.5355180000000  0.5412380000000 1.0
C      1  0.5572670000000  0.4635360000000  0.5354120000000 1.0
C      1  0.5533770000000  0.5295510000000  0.4603450000000 1.0
C      1  0.4553030000000  0.4685110000000  0.4509890000000 1.0
C      1  0.4601500000000  0.5331480000000  0.5536820000000 1.0
C      1  0.4506550000000  0.4688100000000  0.5508770000000 1.0
C      1  0.4539890000000  0.5284190000000  0.4491330000000 1.0
C      1  0.5889920000000  0.4887230000000  0.4731640000000 1.0
C      1  0.5539960000000  0.5108800000000  0.5597170000000 1.0
C      1  0.5529750000000  0.4840640000000  0.5587840000000 1.0
C      1  0.5812600000000  0.5148960000000  0.4693950000000 1.0
C      1  0.5715670000000  0.4671450000000  0.4793580000000 1.0
C      1  0.5594320000000  0.5360950000000  0.5129750000000 1.0
C      1  0.5589390000000  0.4659580000000  0.5072430000000 1.0
C      1  0.5738850000000  0.5383230000000  0.4887920000000 1.0
C      1  0.4650340000000  0.4878280000000  0.5292720000000 1.0
C      1  0.4494710000000  0.5146010000000  0.4754890000000 1.0
C      1  0.4497860000000  0.4850530000000  0.4772680000000 1.0
C      1  0.4540820000000  0.5165880000000  0.5294560000000 1.0
C      1  0.4816870000000  0.4394960000000  0.5195890000000 1.0
C      1  0.4793390000000  0.5600940000000  0.4819790000000 1.0
C      1  0.4769230000000  0.4428790000000  0.4905190000000 1.0
C      1  0.4817060000000  0.5551460000000  0.5121160000000 1.0
C      1  0.4567460000000  0.4866740000000  0.5763930000000 1.0
C      1  0.4640340000000  0.5112030000000  0.4258430000000 1.0
C      1  0.4700740000000  0.4833490000000  0.4312440000000 1.0
C      1  0.4634340000000  0.5172070000000  0.5773250000000 1.0
C      1  0.5042450000000  0.5154280000000  0.4664070000000 1.0
C      1  0.5144740000000  0.4832630000000  0.5209600000000 1.0
C      1  0.5128100000000  0.5134090000000  0.5235010000000 1.0
C      1  0.5026140000000  0.4850350000000  0.4638260000000 1.0
C      1  0.5247840000000  0.5293020000000  0.4419150000000 1.0
C      1  0.5252070000000  0.4698060000000  0.5473830000000 1.0
C      1  0.5280250000000  0.5280990000000  0.5482960000000 1.0
C      1  0.5442770000000  0.4587410000000  0.4319570000000 1.0
C      1  0.4279360000000  0.5247240000000  0.5164920000000 1.0
C      1  0.4325140000000  0.4721430000000  0.5001320000000 1.0
C      1  0.4265550000000  0.5264730000000  0.4915350000000 1.0
C      1  0.4309740000000  0.4675720000000  0.5245100000000 1.0
C      1  0.5206930000000  0.4687920000000  0.4211430000000 1.0
C      1  0.5046860000000  0.5380050000000  0.5629740000000 1.0
C      1  0.4992070000000  0.4657010000000  0.5616700000000 1.0
C      1  0.5108100000000  0.5383470000000  0.4209160000000 1.0
C      1  0.4828790000000  0.5390300000000  0.4243330000000 1.0
C      1  0.4887310000000  0.4865970000000  0.5779030000000 1.0
C      1  0.4943220000000  0.5184920000000  0.5818020000000 1.0
C      1  0.4978280000000  0.4775990000000  0.4346180000000 1.0
C      1  0.4800190000000  0.4745360000000  0.4817800000000 1.0
C      1  0.4842030000000  0.5225100000000  0.5158380000000 1.0
C      1  0.4862880000000  0.4741240000000  0.5135560000000 1.0
C      1  0.4795020000000  0.5266120000000  0.4828470000000 1.0
C      1  0.4835050000000  0.5492190000000  0.5455630000000 1.0
C      1  0.4650120000000  0.4431100000000  0.4621160000000 1.0
C      1  0.4719890000000  0.5531190000000  0.4526220000000 1.0
C      1  0.4788250000000  0.4529260000000  0.5466090000000 1.0
C      1  0.5334930000000  0.5283300000000  0.5066190000000 1.0
C      1  0.5273090000000  0.4718090000000  0.4734270000000 1.0
C      1  0.5292550000000  0.5267610000000  0.4804380000000 1.0
C      1  0.5322410000000  0.4730920000000  0.4996330000000 1.0
END
