TITL C-1154825-9328-98 -0.00144042278732006 125000 -325.004663867368 0 0 60 (C1) n - 1
REM
REM in /home/nfs/bkarasulu/CARBON/AIRSS/Generating-Clusters/AIREBO/Higher-Symm/Only-C60
REM
REM
REM
REM
REM
REM ./C.cell (28575a23ae977d3b5fae324c64b13b57)
REM
REM compiler GCC version 9.2.1 20190827 (Red Hat 9.2.1-1)
REM options -cpp -mtune=generic -march=x86-64 -g -O0 -fpre-include=/usr/include/finclude/math-vector-fortran.h
REM seed 1071831600 -266407089 -776047470 -539880664 300090155 2059619052 1605080814 -150728347 -1010081431 1003700100 1779250835 -704842113 1913331700 2125783755 -1669813949 -443640139 -1458927594 999228653 -1705039403 2119952202 -179178639 771232456 1732420806 2085426380 1990391277 -902641251 -1160163495 19504316 1888035380 1648847651 1015517753 2079259957 1737005567
REM
CELL 1.54180   50.00000   50.00000   50.00000   90.00000   90.00000   90.00000
LATT -1
SFAC C  
C      1  0.5152540000000  0.4484260000000  0.4643800000000 1.0
C      1  0.5249030000000  0.4794360000000  0.5655280000000 1.0
C      1  0.5103740000000  0.5634460000000  0.4740160000000 1.0
C      1  0.5110430000000  0.5542990000000  0.4476290000000 1.0
C      1  0.5216220000000  0.5076390000000  0.5675620000000 1.0
C      1  0.5146030000000  0.4293850000000  0.4853890000000 1.0
C      1  0.5588660000000  0.4857510000000  0.5249730000000 1.0
C      1  0.5594860000000  0.5259560000000  0.4998450000000 1.0
C      1  0.5647220000000  0.4827170000000  0.4773770000000 1.0
C      1  0.5565970000000  0.5135820000000  0.5253610000000 1.0
C      1  0.5714870000000  0.4725940000000  0.5033320000000 1.0
C      1  0.5717230000000  0.5105510000000  0.4787800000000 1.0
C      1  0.4980040000000  0.5629210000000  0.5561740000000 1.0
C      1  0.4942620000000  0.5278520000000  0.4231860000000 1.0
C      1  0.4907730000000  0.4213670000000  0.5162580000000 1.0
C      1  0.4854630000000  0.4457900000000  0.5590190000000 1.0
C      1  0.4972440000000  0.4806460000000  0.4303230000000 1.0
C      1  0.4936640000000  0.5720810000000  0.5253690000000 1.0
C      1  0.5022630000000  0.5178550000000  0.5254870000000 1.0
C      1  0.4920530000000  0.5161420000000  0.4746580000000 1.0
C      1  0.4981930000000  0.4688460000000  0.5018890000000 1.0
C      1  0.5051940000000  0.4840380000000  0.5274710000000 1.0
C      1  0.4886200000000  0.4877120000000  0.4788040000000 1.0
C      1  0.4937530000000  0.5343720000000  0.4994490000000 1.0
C      1  0.5301050000000  0.4638920000000  0.4977870000000 1.0
C      1  0.5318670000000  0.5232720000000  0.5412370000000 1.0
C      1  0.5220160000000  0.5253070000000  0.4724660000000 1.0
C      1  0.5368870000000  0.5393940000000  0.4913080000000 1.0
C      1  0.5357990000000  0.4729650000000  0.5361710000000 1.0
C      1  0.5361370000000  0.4728820000000  0.4655370000000 1.0
C      1  0.4647480000000  0.4362180000000  0.5219860000000 1.0
C      1  0.4718280000000  0.5483840000000  0.5483010000000 1.0
C      1  0.4702490000000  0.5097690000000  0.4281650000000 1.0
C      1  0.4651360000000  0.5551670000000  0.5164660000000 1.0
C      1  0.4594480000000  0.4594690000000  0.5416460000000 1.0
C      1  0.4669640000000  0.4834260000000  0.4455630000000 1.0
C      1  0.4523620000000  0.5186520000000  0.4787030000000 1.0
C      1  0.4512140000000  0.4726040000000  0.4936820000000 1.0
C      1  0.4524230000000  0.5087500000000  0.5258570000000 1.0
C      1  0.4494490000000  0.4907460000000  0.4724010000000 1.0
C      1  0.4523800000000  0.5279490000000  0.5052440000000 1.0
C      1  0.4493920000000  0.4816550000000  0.5203520000000 1.0
C      1  0.5133790000000  0.4514470000000  0.5490680000000 1.0
C      1  0.5204930000000  0.5631300000000  0.5064760000000 1.0
C      1  0.5225340000000  0.4908850000000  0.4401020000000 1.0
C      1  0.5234780000000  0.5531400000000  0.5388570000000 1.0
C      1  0.5188650000000  0.4388070000000  0.5179330000000 1.0
C      1  0.5221680000000  0.5229370000000  0.4401770000000 1.0
C      1  0.4847170000000  0.4589370000000  0.4611070000000 1.0
C      1  0.4816340000000  0.4839740000000  0.5487700000000 1.0
C      1  0.4815930000000  0.5642930000000  0.4886970000000 1.0
C      1  0.4703600000000  0.5307520000000  0.4549220000000 1.0
C      1  0.4763290000000  0.5163600000000  0.5478090000000 1.0
C      1  0.4738230000000  0.4473300000000  0.4911550000000 1.0
C      1  0.4841930000000  0.4520310000000  0.4270930000000 1.0
C      1  0.4737360000000  0.4681430000000  0.5778080000000 1.0
C      1  0.4674750000000  0.5872210000000  0.4797720000000 1.0
C      1  0.4830250000000  0.5549770000000  0.4344320000000 1.0
C      1  0.4965160000000  0.5168380000000  0.5749320000000 1.0
C      1  0.4871140000000  0.4148920000000  0.4857610000000 1.0
END
