TITL C-1154828-9214-599 0.00105461154729435 125000 -355.869882309234 0 0 60 (C1) n - 1
REM
REM in /home/nfs/bkarasulu/CARBON/AIRSS/Generating-Clusters/AIREBO/Higher-Symm/Only-C60
REM
REM
REM
REM
REM
REM ./C.cell (28575a23ae977d3b5fae324c64b13b57)
REM
REM compiler GCC version 9.2.1 20190827 (Red Hat 9.2.1-1)
REM options -cpp -mtune=generic -march=x86-64 -g -O0 -fpre-include=/usr/include/finclude/math-vector-fortran.h
REM seed 370529866 1803978251 1791294084 -57780289 -1300886517 674667962 -1669019853 -1744775461 -718938771 -952924758 -1684950449 10025769 294708247 -2031951313 287406398 -2097963460 -1574506713 1668566087 -312108914 1296737718 -455042043 -1205893971 -360610466 1905488944 -1464473563 -1193215178 1703482116 1879375035 663824449 -440911547 2020252758 -1430024265 -6194116
REM
CELL 1.54180   50.00000   50.00000   50.00000   90.00000   90.00000   90.00000
LATT -1
SFAC C  
C      1  0.4317820000000  0.5401560000000  0.5143180000000 1.0
C      1  0.5110800000000  0.4341030000000  0.5365650000000 1.0
C      1  0.5474270000000  0.5315390000000  0.4307780000000 1.0
C      1  0.5583240000000  0.4619980000000  0.5176020000000 1.0
C      1  0.5551160000000  0.5332140000000  0.4822890000000 1.0
C      1  0.4405750000000  0.4608260000000  0.4808650000000 1.0
C      1  0.4809750000000  0.5496400000000  0.5351630000000 1.0
C      1  0.4811960000000  0.4408100000000  0.4626010000000 1.0
C      1  0.5173090000000  0.5631160000000  0.4607110000000 1.0
C      1  0.4659760000000  0.4837380000000  0.4455290000000 1.0
C      1  0.4573060000000  0.5133850000000  0.5678190000000 1.0
C      1  0.5370810000000  0.4806440000000  0.5576340000000 1.0
C      1  0.5371690000000  0.4368370000000  0.5147210000000 1.0
C      1  0.4455780000000  0.5278040000000  0.5398160000000 1.0
C      1  0.5183820000000  0.5405340000000  0.4361040000000 1.0
C      1  0.4603130000000  0.5581500000000  0.5183330000000 1.0
C      1  0.5431470000000  0.5605080000000  0.4816720000000 1.0
C      1  0.4598340000000  0.4395340000000  0.4802870000000 1.0
C      1  0.5556160000000  0.4822560000000  0.5372690000000 1.0
C      1  0.4441700000000  0.4829680000000  0.4642620000000 1.0
C      1  0.5625200000000  0.5153120000000  0.4558740000000 1.0
C      1  0.4829410000000  0.4617830000000  0.4430890000000 1.0
C      1  0.5160520000000  0.4613200000000  0.5558950000000 1.0
C      1  0.4849050000000  0.5328660000000  0.5636720000000 1.0
C      1  0.5060250000000  0.5122700000000  0.5759430000000 1.0
C      1  0.5614390000000  0.5096000000000  0.5312990000000 1.0
C      1  0.5165920000000  0.5638530000000  0.5004210000000 1.0
C      1  0.4880430000000  0.4686750000000  0.5716420000000 1.0
C      1  0.5020970000000  0.5146580000000  0.4359050000000 1.0
C      1  0.5106960000000  0.4658630000000  0.4363860000000 1.0
C      1  0.4305570000000  0.4899060000000  0.5179680000000 1.0
C      1  0.4393140000000  0.5096710000000  0.4741290000000 1.0
C      1  0.5690320000000  0.4961620000000  0.4815720000000 1.0
C      1  0.4634170000000  0.4294050000000  0.5071770000000 1.0
C      1  0.4683170000000  0.5689100000000  0.4882250000000 1.0
C      1  0.5121760000000  0.4288640000000  0.4971240000000 1.0
C      1  0.5313740000000  0.5068880000000  0.5674100000000 1.0
C      1  0.5105650000000  0.5626270000000  0.5264480000000 1.0
C      1  0.5653700000000  0.5165070000000  0.5048970000000 1.0
C      1  0.4823020000000  0.4946910000000  0.5750050000000 1.0
C      1  0.5191470000000  0.4920190000000  0.4325090000000 1.0
C      1  0.4757850000000  0.5109380000000  0.4430360000000 1.0
C      1  0.4891160000000  0.4243440000000  0.5147530000000 1.0
C      1  0.5079740000000  0.4328640000000  0.4703030000000 1.0
C      1  0.4935980000000  0.5683760000000  0.4812950000000 1.0
C      1  0.4310250000000  0.4638650000000  0.5080860000000 1.0
C      1  0.5712140000000  0.4701750000000  0.4886820000000 1.0
C      1  0.4297590000000  0.5123330000000  0.4999770000000 1.0
C      1  0.5460070000000  0.4998770000000  0.4313650000000 1.0
C      1  0.4957880000000  0.4367340000000  0.5669640000000 1.0
C      1  0.5122420000000  0.5730970000000  0.4285450000000 1.0
C      1  0.4361520000000  0.5688970000000  0.4971740000000 1.0
C      1  0.4384510000000  0.4980610000000  0.5436540000000 1.0
C      1  0.5648350000000  0.4374440000000  0.4949140000000 1.0
C      1  0.5025260000000  0.5614820000000  0.5583390000000 1.0
C      1  0.5505810000000  0.5243070000000  0.5540110000000 1.0
C      1  0.4563160000000  0.5268780000000  0.4577780000000 1.0
C      1  0.5611680000000  0.5818760000000  0.4820950000000 1.0
C      1  0.4410990000000  0.4404200000000  0.5222830000000 1.0
C      1  0.5251260000000  0.4444240000000  0.4498140000000 1.0
END
