TITL C-1154804-8633-7 0.00414141187908568 125000 -348.261228860954 0 0 60 (C1) n - 1
REM
REM in /home/nfs/bkarasulu/CARBON/AIRSS/Generating-Clusters/AIREBO/Higher-Symm/Only-C60
REM
REM
REM
REM
REM
REM ./C.cell (28575a23ae977d3b5fae324c64b13b57)
REM
REM compiler GCC version 9.2.1 20190827 (Red Hat 9.2.1-1)
REM options -cpp -mtune=generic -march=x86-64 -g -O0 -fpre-include=/usr/include/finclude/math-vector-fortran.h
REM seed -676363538 366594711 -1510892926 -1858628153 719013683 -1922056458 -351041126 -1065543516 469772055 -151805049 984416589 -1842238513 18095451 1815053725 743575027 -336447390 -1724801022 -7837559 -767968231 1985894000 1031010389 -1597478319 -1249066173 615430545 -441762265 -768883353 -302539425 -701366843 1187231882 708963979 1550257604 58909967 448284057
REM
CELL 1.54180   50.00000   50.00000   50.00000   90.00000   90.00000   90.00000
LATT -1
SFAC C  
C      1  0.4861000000000  0.5008900000000  0.4490850000000 1.0
C      1  0.5183800000000  0.5089160000000  0.4505720000000 1.0
C      1  0.4841000000000  0.5064460000000  0.5491720000000 1.0
C      1  0.5153540000000  0.4959660000000  0.5479500000000 1.0
C      1  0.4715400000000  0.5264160000000  0.4382120000000 1.0
C      1  0.5305950000000  0.4806860000000  0.4384810000000 1.0
C      1  0.4697320000000  0.4825910000000  0.5635110000000 1.0
C      1  0.5320170000000  0.5205040000000  0.5592590000000 1.0
C      1  0.5671850000000  0.4822710000000  0.4706040000000 1.0
C      1  0.4337100000000  0.5170160000000  0.4725640000000 1.0
C      1  0.5637280000000  0.5142540000000  0.5212010000000 1.0
C      1  0.4357460000000  0.4877320000000  0.5276420000000 1.0
C      1  0.5026680000000  0.5406990000000  0.5247910000000 1.0
C      1  0.4953510000000  0.4418110000000  0.5294950000000 1.0
C      1  0.5117500000000  0.4424970000000  0.4792400000000 1.0
C      1  0.4868160000000  0.5496230000000  0.4789130000000 1.0
C      1  0.4653030000000  0.4500950000000  0.5294910000000 1.0
C      1  0.5331390000000  0.5480100000000  0.5220020000000 1.0
C      1  0.4579970000000  0.5562290000000  0.4712130000000 1.0
C      1  0.5405240000000  0.4437530000000  0.4698080000000 1.0
C      1  0.4293930000000  0.5312070000000  0.4979500000000 1.0
C      1  0.5684390000000  0.4696770000000  0.4966200000000 1.0
C      1  0.4361640000000  0.4747200000000  0.5021010000000 1.0
C      1  0.5629340000000  0.5284200000000  0.4958110000000 1.0
C      1  0.4386250000000  0.5583150000000  0.4924680000000 1.0
C      1  0.5599950000000  0.4422230000000  0.4915540000000 1.0
C      1  0.4579090000000  0.4557880000000  0.5028860000000 1.0
C      1  0.5416450000000  0.5473390000000  0.4954550000000 1.0
C      1  0.4527990000000  0.5428500000000  0.5449630000000 1.0
C      1  0.5405630000000  0.4627230000000  0.5421400000000 1.0
C      1  0.4560820000000  0.4634000000000  0.4574590000000 1.0
C      1  0.5495210000000  0.5401040000000  0.4569980000000 1.0
C      1  0.5544620000000  0.4841220000000  0.5196440000000 1.0
C      1  0.4401060000000  0.5191260000000  0.5241720000000 1.0
C      1  0.5624290000000  0.5114150000000  0.4699220000000 1.0
C      1  0.4443720000000  0.4888740000000  0.4759030000000 1.0
C      1  0.5031680000000  0.5304980000000  0.5634100000000 1.0
C      1  0.4989450000000  0.4739900000000  0.5667800000000 1.0
C      1  0.5012620000000  0.4748580000000  0.4392590000000 1.0
C      1  0.5011790000000  0.5371840000000  0.4440660000000 1.0
C      1  0.5149280000000  0.5161880000000  0.5045840000000 1.0
C      1  0.4816130000000  0.4669490000000  0.4879200000000 1.0
C      1  0.5080420000000  0.4633680000000  0.5064580000000 1.0
C      1  0.4845660000000  0.5201000000000  0.4956940000000 1.0
C      1  0.5050720000000  0.4144180000000  0.4918000000000 1.0
C      1  0.4987430000000  0.5760010000000  0.4919110000000 1.0
C      1  0.5026470000000  0.5729100000000  0.5167460000000 1.0
C      1  0.5005660000000  0.4141080000000  0.5168470000000 1.0
C      1  0.4523370000000  0.4702820000000  0.5455460000000 1.0
C      1  0.5485170000000  0.5312640000000  0.5392920000000 1.0
C      1  0.4496520000000  0.5344130000000  0.4542480000000 1.0
C      1  0.5487120000000  0.4669350000000  0.4545360000000 1.0
C      1  0.5195630000000  0.5501150000000  0.4696380000000 1.0
C      1  0.4887840000000  0.4540870000000  0.4579840000000 1.0
C      1  0.5148280000000  0.4560710000000  0.5490210000000 1.0
C      1  0.4796170000000  0.5459290000000  0.5477730000000 1.0
C      1  0.5216700000000  0.4886470000000  0.5184710000000 1.0
C      1  0.4717110000000  0.5154500000000  0.5231310000000 1.0
C      1  0.5305700000000  0.5128880000000  0.4784140000000 1.0
C      1  0.4761310000000  0.4966390000000  0.4772180000000 1.0
END
