TITL C-1154802-8274-307 -0.0049435661209541 125000 -336.821478729554 0 0 60 (C1) n - 1
REM
REM in /home/nfs/bkarasulu/CARBON/AIRSS/Generating-Clusters/AIREBO/Higher-Symm/Only-C60
REM
REM
REM
REM
REM
REM ./C.cell (28575a23ae977d3b5fae324c64b13b57)
REM
REM compiler GCC version 9.2.1 20190827 (Red Hat 9.2.1-1)
REM options -cpp -mtune=generic -march=x86-64 -g -O0 -fpre-include=/usr/include/finclude/math-vector-fortran.h
REM seed -32642134 1925605631 1270154169 -184928277 847592922 572599944 -1115512615 531899023 1116584371 -1212889393 298228967 1792130107 1060040045 482899222 -1259907002 506656077 2024046472 -1313455784 -896726701 237894008 2070271918 -1322864994 380694904 732807386 625010244 1904086179 -985881682 -20062830 292082570 -1351142322 212328254 -1900270778 -2102775627
REM
CELL 1.54180   50.00000   50.00000   50.00000   90.00000   90.00000   90.00000
LATT -1
SFAC C  
C      1  0.4435940000000  0.5164010000000  0.4895080000000 1.0
C      1  0.5556300000000  0.5165480000000  0.5163510000000 1.0
C      1  0.4660200000000  0.4788510000000  0.5238230000000 1.0
C      1  0.5217380000000  0.4715540000000  0.4872440000000 1.0
C      1  0.5759590000000  0.5291460000000  0.5027050000000 1.0
C      1  0.4288550000000  0.5286430000000  0.5097250000000 1.0
C      1  0.4668570000000  0.4975480000000  0.4996070000000 1.0
C      1  0.5328400000000  0.5090140000000  0.4943690000000 1.0
C      1  0.4827230000000  0.4757130000000  0.5524830000000 1.0
C      1  0.5174630000000  0.4761980000000  0.4551660000000 1.0
C      1  0.5460980000000  0.5567480000000  0.4767730000000 1.0
C      1  0.4649970000000  0.5557930000000  0.5242940000000 1.0
C      1  0.5036740000000  0.5302050000000  0.4686800000000 1.0
C      1  0.5083920000000  0.5312380000000  0.5304190000000 1.0
C      1  0.4708280000000  0.4986280000000  0.4489110000000 1.0
C      1  0.5251970000000  0.4987190000000  0.5465450000000 1.0
C      1  0.5334280000000  0.5630710000000  0.5011700000000 1.0
C      1  0.4724290000000  0.5599300000000  0.4972080000000 1.0
C      1  0.4924640000000  0.5572850000000  0.4514430000000 1.0
C      1  0.5155880000000  0.5700500000000  0.5450180000000 1.0
C      1  0.4617130000000  0.4527170000000  0.4741210000000 1.0
C      1  0.5410730000000  0.4548780000000  0.5234540000000 1.0
C      1  0.5397690000000  0.5281520000000  0.5401320000000 1.0
C      1  0.4558490000000  0.5247050000000  0.4650530000000 1.0
C      1  0.4440090000000  0.5381330000000  0.5315950000000 1.0
C      1  0.5657850000000  0.5361720000000  0.4769660000000 1.0
C      1  0.4465630000000  0.4914330000000  0.5463350000000 1.0
C      1  0.5518570000000  0.4799530000000  0.4747500000000 1.0
C      1  0.5426700000000  0.4698380000000  0.5511300000000 1.0
C      1  0.4621320000000  0.4667790000000  0.4406780000000 1.0
C      1  0.4968430000000  0.4993500000000  0.5577870000000 1.0
C      1  0.5012570000000  0.5029240000000  0.4502780000000 1.0
C      1  0.5300030000000  0.4854210000000  0.5171720000000 1.0
C      1  0.4588030000000  0.4827880000000  0.4745740000000 1.0
C      1  0.5304590000000  0.5186220000000  0.4426500000000 1.0
C      1  0.4809210000000  0.5227280000000  0.5580950000000 1.0
C      1  0.5435880000000  0.4374490000000  0.4768690000000 1.0
C      1  0.4603000000000  0.4381650000000  0.5240750000000 1.0
C      1  0.4530490000000  0.5187850000000  0.5511940000000 1.0
C      1  0.5503670000000  0.5110100000000  0.4655610000000 1.0
C      1  0.4704950000000  0.4397440000000  0.4973880000000 1.0
C      1  0.5327570000000  0.4367930000000  0.5035800000000 1.0
C      1  0.4688680000000  0.5498300000000  0.4694660000000 1.0
C      1  0.5364170000000  0.5594980000000  0.5292860000000 1.0
C      1  0.4705550000000  0.4478200000000  0.5483590000000 1.0
C      1  0.5327150000000  0.4510310000000  0.4548330000000 1.0
C      1  0.5257810000000  0.5504980000000  0.4538000000000 1.0
C      1  0.4886890000000  0.5516370000000  0.5454090000000 1.0
C      1  0.5553520000000  0.4622310000000  0.5739230000000 1.0
C      1  0.4571220000000  0.4543320000000  0.4180640000000 1.0
C      1  0.4944620000000  0.4701610000000  0.5073130000000 1.0
C      1  0.5044420000000  0.6001930000000  0.4920790000000 1.0
C      1  0.4995220000000  0.5028770000000  0.4974510000000 1.0
C      1  0.5158300000000  0.3588940000000  0.4783290000000 1.0
C      1  0.5057190000000  0.6250280000000  0.4863490000000 1.0
C      1  0.5027290000000  0.5697780000000  0.4959770000000 1.0
C      1  0.5069590000000  0.4091350000000  0.4908780000000 1.0
C      1  0.5109080000000  0.3835580000000  0.4857030000000 1.0
C      1  0.5040870000000  0.5360270000000  0.5002560000000 1.0
C      1  0.5017730000000  0.4395310000000  0.5002720000000 1.0
END
