TITL C-1154826-9507-22 0.00822579205997371 125000 -341.748061705973 0 0 60 (C1) n - 1
REM
REM in /home/nfs/bkarasulu/CARBON/AIRSS/Generating-Clusters/AIREBO/Higher-Symm/Only-C60
REM
REM
REM
REM
REM
REM ./C.cell (28575a23ae977d3b5fae324c64b13b57)
REM
REM compiler GCC version 9.2.1 20190827 (Red Hat 9.2.1-1)
REM options -cpp -mtune=generic -march=x86-64 -g -O0 -fpre-include=/usr/include/finclude/math-vector-fortran.h
REM seed -1382669960 -1591014514 -1753811597 -1118152531 1323666595 1271643098 -1727360026 -2061622123 -1692338427 1886355698 227548432 -272358386 771857921 1956652868 -1785298922 -681450596 -693976325 839478666 -953444313 -1274953391 -1524419499 -685473195 -560722778 909016869 2146783805 667331907 -301899137 1218914521 1732632245 225574745 -1227904854 1290432655 -1432686556
REM
CELL 1.54180   50.00000   50.00000   50.00000   90.00000   90.00000   90.00000
LATT -1
SFAC C  
C      1  0.4391360000000  0.5063420000000  0.5174610000000 1.0
C      1  0.3945590000000  0.4592660000000  0.5108790000000 1.0
C      1  0.3894580000000  0.4783380000000  0.4607120000000 1.0
C      1  0.4243480000000  0.5197060000000  0.4676490000000 1.0
C      1  0.4856250000000  0.4027800000000  0.5633740000000 1.0
C      1  0.5711770000000  0.5144410000000  0.4101630000000 1.0
C      1  0.5709540000000  0.5960160000000  0.4677960000000 1.0
C      1  0.5277010000000  0.5275710000000  0.5754700000000 1.0
C      1  0.5840820000000  0.5307660000000  0.3942290000000 1.0
C      1  0.5736570000000  0.6215600000000  0.4625810000000 1.0
C      1  0.5332170000000  0.5485880000000  0.5915130000000 1.0
C      1  0.4801200000000  0.3777660000000  0.5689390000000 1.0
C      1  0.4432430000000  0.5258590000000  0.4923660000000 1.0
C      1  0.4785980000000  0.5203280000000  0.5534780000000 1.0
C      1  0.5131850000000  0.4421880000000  0.5692330000000 1.0
C      1  0.4596800000000  0.4903480000000  0.4478200000000 1.0
C      1  0.4403720000000  0.4765600000000  0.5120590000000 1.0
C      1  0.4193800000000  0.4648740000000  0.4969180000000 1.0
C      1  0.4170240000000  0.4720780000000  0.4687970000000 1.0
C      1  0.4348440000000  0.4920060000000  0.4593400000000 1.0
C      1  0.5687320000000  0.5698130000000  0.4758400000000 1.0
C      1  0.5672710000000  0.5172100000000  0.5496350000000 1.0
C      1  0.6192430000000  0.4508300000000  0.5053200000000 1.0
C      1  0.5557690000000  0.4992260000000  0.4274440000000 1.0
C      1  0.4811600000000  0.4416000000000  0.5348350000000 1.0
C      1  0.5094010000000  0.4852060000000  0.4292250000000 1.0
C      1  0.4869640000000  0.5561030000000  0.4890680000000 1.0
C      1  0.5623080000000  0.4595870000000  0.5949650000000 1.0
C      1  0.3814860000000  0.4958210000000  0.4828400000000 1.0
C      1  0.4002380000000  0.5165620000000  0.4879080000000 1.0
C      1  0.4098830000000  0.5194770000000  0.5134490000000 1.0
C      1  0.3750350000000  0.4794890000000  0.5055170000000 1.0
C      1  0.4937930000000  0.4659810000000  0.5183820000000 1.0
C      1  0.5344310000000  0.4834400000000  0.4172480000000 1.0
C      1  0.5185810000000  0.5610380000000  0.4842800000000 1.0
C      1  0.5486000000000  0.4840590000000  0.5788460000000 1.0
C      1  0.4974450000000  0.5851040000000  0.4797280000000 1.0
C      1  0.5349440000000  0.4548890000000  0.5784850000000 1.0
C      1  0.4622930000000  0.4632430000000  0.5204790000000 1.0
C      1  0.5388040000000  0.4667700000000  0.3964320000000 1.0
C      1  0.5870600000000  0.4914320000000  0.5019070000000 1.0
C      1  0.5607310000000  0.5025580000000  0.4848560000000 1.0
C      1  0.5665820000000  0.5339850000000  0.4933160000000 1.0
C      1  0.5775690000000  0.5173950000000  0.5177890000000 1.0
C      1  0.5441940000000  0.5566370000000  0.4863400000000 1.0
C      1  0.5485850000000  0.5094580000000  0.5680170000000 1.0
C      1  0.5146090000000  0.4778520000000  0.5065570000000 1.0
C      1  0.5353140000000  0.4909950000000  0.4970800000000 1.0
C      1  0.3909790000000  0.4383660000000  0.5273540000000 1.0
C      1  0.3757770000000  0.4705280000000  0.4392120000000 1.0
C      1  0.4208710000000  0.5387350000000  0.4476050000000 1.0
C      1  0.4553420000000  0.5151210000000  0.5417800000000 1.0
C      1  0.5021210000000  0.5229730000000  0.5657300000000 1.0
C      1  0.4933120000000  0.4282210000000  0.5557680000000 1.0
C      1  0.4848620000000  0.4889130000000  0.4390670000000 1.0
C      1  0.4654150000000  0.5400890000000  0.4897730000000 1.0
C      1  0.5916190000000  0.5497660000000  0.4765560000000 1.0
C      1  0.5934250000000  0.5335310000000  0.5430950000000 1.0
C      1  0.6038760000000  0.4719200000000  0.5028860000000 1.0
C      1  0.5610140000000  0.4986970000000  0.4546100000000 1.0
END
