TITL C-1154804-8633-228 0.00150768978464544 125000 -313.863890282104 0 0 60 (C1) n - 1
REM
REM in /home/nfs/bkarasulu/CARBON/AIRSS/Generating-Clusters/AIREBO/Higher-Symm/Only-C60
REM
REM
REM
REM
REM
REM ./C.cell (28575a23ae977d3b5fae324c64b13b57)
REM
REM compiler GCC version 9.2.1 20190827 (Red Hat 9.2.1-1)
REM options -cpp -mtune=generic -march=x86-64 -g -O0 -fpre-include=/usr/include/finclude/math-vector-fortran.h
REM seed 533781621 1806520156 1970152647 -1757874225 -1293841058 -301904603 1875522499 -557843049 -277337574 1968337710 -1174483679 -449002949 763311552 -584981671 830402337 -1909997853 -1519580150 290570239 1645663777 715323588 1029379332 1961092260 1655693606 347811719 -1110264569 -989677699 -1922480959 -1852412219 904700613 -909643183 2120348087 1352776705 -1334979331
REM
CELL 1.54180   50.00000   50.00000   50.00000   90.00000   90.00000   90.00000
LATT -1
SFAC C  
C      1  0.5713040000000  0.5308080000000  0.5013140000000 1.0
C      1  0.4712940000000  0.5332690000000  0.4368120000000 1.0
C      1  0.4618870000000  0.5322480000000  0.5603200000000 1.0
C      1  0.4909350000000  0.4869260000000  0.4646000000000 1.0
C      1  0.4724310000000  0.4774120000000  0.5207570000000 1.0
C      1  0.5316760000000  0.4797870000000  0.5155100000000 1.0
C      1  0.4741400000000  0.5078990000000  0.5618600000000 1.0
C      1  0.5660260000000  0.5067230000000  0.4896150000000 1.0
C      1  0.4670960000000  0.5031820000000  0.4463910000000 1.0
C      1  0.5289150000000  0.4463850000000  0.5370460000000 1.0
C      1  0.5151630000000  0.4481360000000  0.4585410000000 1.0
C      1  0.4557360000000  0.4437440000000  0.5076330000000 1.0
C      1  0.4466170000000  0.5078830000000  0.4698020000000 1.0
C      1  0.5019000000000  0.5089420000000  0.5605230000000 1.0
C      1  0.5507670000000  0.5080710000000  0.4663890000000 1.0
C      1  0.5237430000000  0.5379850000000  0.5295080000000 1.0
C      1  0.5152760000000  0.5393200000000  0.4664890000000 1.0
C      1  0.4632080000000  0.5379710000000  0.5055430000000 1.0
C      1  0.5238570000000  0.5297470000000  0.4964980000000 1.0
C      1  0.4863510000000  0.5327630000000  0.4831240000000 1.0
C      1  0.4926170000000  0.5313470000000  0.5225300000000 1.0
C      1  0.5636500000000  0.4777110000000  0.5040920000000 1.0
C      1  0.4685160000000  0.4710160000000  0.4357850000000 1.0
C      1  0.4648490000000  0.4779510000000  0.5539090000000 1.0
C      1  0.5248780000000  0.4860260000000  0.4663800000000 1.0
C      1  0.4539950000000  0.4838280000000  0.4929070000000 1.0
C      1  0.5136840000000  0.4827910000000  0.5435490000000 1.0
C      1  0.4789360000000  0.5521550000000  0.4573820000000 1.0
C      1  0.4744360000000  0.5533500000000  0.5403020000000 1.0
C      1  0.5481820000000  0.5525090000000  0.5017770000000 1.0
C      1  0.4955280000000  0.5714070000000  0.4801760000000 1.0
C      1  0.4864060000000  0.5696090000000  0.5129370000000 1.0
C      1  0.5176460000000  0.5683820000000  0.5044860000000 1.0
C      1  0.4620200000000  0.4408020000000  0.4800760000000 1.0
C      1  0.5005690000000  0.4428580000000  0.5443110000000 1.0
C      1  0.5343920000000  0.4432680000000  0.4791740000000 1.0
C      1  0.5555010000000  0.4686970000000  0.5370830000000 1.0
C      1  0.5025070000000  0.4716110000000  0.4365280000000 1.0
C      1  0.4417530000000  0.4662210000000  0.5302260000000 1.0
C      1  0.4868750000000  0.4535280000000  0.4695340000000 1.0
C      1  0.4826610000000  0.4450600000000  0.5229700000000 1.0
C      1  0.5264490000000  0.4476190000000  0.5058060000000 1.0
C      1  0.4838750000000  0.5024470000000  0.4917440000000 1.0
C      1  0.4951240000000  0.4995660000000  0.5222340000000 1.0
C      1  0.5236530000000  0.4999630000000  0.4945050000000 1.0
C      1  0.5297520000000  0.5182030000000  0.5518130000000 1.0
C      1  0.5299900000000  0.5201720000000  0.4468610000000 1.0
C      1  0.4399870000000  0.5206300000000  0.4976660000000 1.0
C      1  0.5392570000000  0.5682300000000  0.5305740000000 1.0
C      1  0.5110020000000  0.5694610000000  0.4515420000000 1.0
C      1  0.4533990000000  0.5681100000000  0.5177490000000 1.0
C      1  0.4314850000000  0.4954220000000  0.5156090000000 1.0
C      1  0.5493790000000  0.4987670000000  0.5518020000000 1.0
C      1  0.5179370000000  0.5012840000000  0.4301480000000 1.0
C      1  0.5622700000000  0.4568380000000  0.4789190000000 1.0
C      1  0.4516370000000  0.4534680000000  0.4507760000000 1.0
C      1  0.4898210000000  0.4591720000000  0.5651640000000 1.0
C      1  0.4335910000000  0.4671580000000  0.4714150000000 1.0
C      1  0.5122700000000  0.4740880000000  0.5764000000000 1.0
C      1  0.5511990000000  0.4700760000000  0.4548810000000 1.0
END
