TITL C-1154801-8518-142 0.00827596281414857 125000 -333.353884037369 0 0 60 (C1) n - 1
REM
REM in /home/nfs/bkarasulu/CARBON/AIRSS/Generating-Clusters/AIREBO/Higher-Symm/Only-C60
REM
REM
REM
REM
REM
REM ./C.cell (28575a23ae977d3b5fae324c64b13b57)
REM
REM compiler GCC version 9.2.1 20190827 (Red Hat 9.2.1-1)
REM options -cpp -mtune=generic -march=x86-64 -g -O0 -fpre-include=/usr/include/finclude/math-vector-fortran.h
REM seed -68020559 551320554 1812700544 921971746 714293996 2071051908 -1732565081 -675314121 -2028478352 361598903 1571532189 -1216024424 -1865452864 -751826795 -612859209 1218701557 -574497449 1167759399 -1465561936 -1698706364 -682612066 -1113167457 -306495923 335876194 174204067 -1813769154 -351015664 -685108116 1666862595 -808727271 -311480934 1231323701 -854743402
REM
CELL 1.54180   50.00000   50.00000   50.00000   90.00000   90.00000   90.00000
LATT -1
SFAC C  
C      1  0.4603150000000  0.4750750000000  0.5009280000000 1.0
C      1  0.4695350000000  0.5080230000000  0.4487440000000 1.0
C      1  0.5098670000000  0.4515850000000  0.4810600000000 1.0
C      1  0.5511730000000  0.4807030000000  0.4969570000000 1.0
C      1  0.5431790000000  0.5193680000000  0.5006050000000 1.0
C      1  0.4604470000000  0.5276960000000  0.4984690000000 1.0
C      1  0.5241250000000  0.5032650000000  0.5471520000000 1.0
C      1  0.5189440000000  0.4956660000000  0.4553900000000 1.0
C      1  0.4724520000000  0.4991530000000  0.5466420000000 1.0
C      1  0.4909280000000  0.4519080000000  0.5300420000000 1.0
C      1  0.4928380000000  0.5370290000000  0.4769490000000 1.0
C      1  0.5084230000000  0.5418020000000  0.5266360000000 1.0
C      1  0.5043690000000  0.4679770000000  0.4548050000000 1.0
C      1  0.4583200000000  0.5013750000000  0.4801200000000 1.0
C      1  0.4844120000000  0.4514440000000  0.4981810000000 1.0
C      1  0.4988190000000  0.4820550000000  0.5450180000000 1.0
C      1  0.4963490000000  0.5216930000000  0.5493410000000 1.0
C      1  0.4997470000000  0.5183960000000  0.4509510000000 1.0
C      1  0.5485050000000  0.4956250000000  0.5250160000000 1.0
C      1  0.4543680000000  0.5027850000000  0.5197110000000 1.0
C      1  0.5470030000000  0.5034030000000  0.4719610000000 1.0
C      1  0.5358400000000  0.4533340000000  0.4990220000000 1.0
C      1  0.4833190000000  0.5482160000000  0.5079310000000 1.0
C      1  0.5204070000000  0.5419140000000  0.4948190000000 1.0
C      1  0.5607350000000  0.5501880000000  0.4673660000000 1.0
C      1  0.5415350000000  0.4707100000000  0.5684210000000 1.0
C      1  0.4725100000000  0.5652300000000  0.5526060000000 1.0
C      1  0.4371860000000  0.5504920000000  0.5245260000000 1.0
C      1  0.4384490000000  0.4550470000000  0.4741590000000 1.0
C      1  0.5651080000000  0.4489690000000  0.5347880000000 1.0
C      1  0.4625170000000  0.4781840000000  0.4367990000000 1.0
C      1  0.4483140000000  0.5260490000000  0.5637130000000 1.0
C      1  0.5427920000000  0.5282070000000  0.4293300000000 1.0
C      1  0.5186760000000  0.5637030000000  0.4500560000000 1.0
C      1  0.5188260000000  0.4369400000000  0.5396610000000 1.0
C      1  0.4732490000000  0.4337760000000  0.4516890000000 1.0
C      1  0.4741050000000  0.5388360000000  0.5642520000000 1.0
C      1  0.5598380000000  0.4746120000000  0.5467360000000 1.0
C      1  0.5345600000000  0.5604740000000  0.4738910000000 1.0
C      1  0.5166380000000  0.5390580000000  0.4352090000000 1.0
C      1  0.4827680000000  0.4585140000000  0.4402510000000 1.0
C      1  0.5167370000000  0.4599430000000  0.5593480000000 1.0
C      1  0.4442380000000  0.4797350000000  0.4610930000000 1.0
C      1  0.5587460000000  0.5250840000000  0.4532320000000 1.0
C      1  0.4379540000000  0.5245640000000  0.5368620000000 1.0
C      1  0.4628210000000  0.5636710000000  0.5254580000000 1.0
C      1  0.5412310000000  0.4390620000000  0.5221740000000 1.0
C      1  0.4617840000000  0.4388020000000  0.4777620000000 1.0
C      1  0.4677170000000  0.5525060000000  0.4664560000000 1.0
C      1  0.4629460000000  0.4487010000000  0.5439390000000 1.0
C      1  0.4392520000000  0.5409920000000  0.4770670000000 1.0
C      1  0.5602290000000  0.4657200000000  0.4698440000000 1.0
C      1  0.5423480000000  0.4741010000000  0.4452200000000 1.0
C      1  0.4507790000000  0.4771750000000  0.5521940000000 1.0
C      1  0.5592060000000  0.5340380000000  0.5246120000000 1.0
C      1  0.5367230000000  0.4458730000000  0.4603720000000 1.0
C      1  0.4420600000000  0.4638180000000  0.5246950000000 1.0
C      1  0.4498640000000  0.5330750000000  0.4477610000000 1.0
C      1  0.5358510000000  0.5504840000000  0.5391350000000 1.0
C      1  0.5480260000000  0.5241750000000  0.5528690000000 1.0
END
