TITL C-1154801-8518-466 -0.000412613128634921 125000 -334.310135654388 0 0 60 (C1) n - 1
REM
REM in /home/nfs/bkarasulu/CARBON/AIRSS/Generating-Clusters/AIREBO/Higher-Symm/Only-C60
REM
REM
REM
REM
REM
REM ./C.cell (28575a23ae977d3b5fae324c64b13b57)
REM
REM compiler GCC version 9.2.1 20190827 (Red Hat 9.2.1-1)
REM options -cpp -mtune=generic -march=x86-64 -g -O0 -fpre-include=/usr/include/finclude/math-vector-fortran.h
REM seed -189440148 1210807090 1007653596 700609020 210644985 -110057344 581858258 -1689830968 -602389401 2125222566 -401438570 970341583 353458053 2085559183 794922813 1742442528 1115411540 -1272971632 789676193 340553054 1333629147 963608817 940917826 -552446193 844285665 2061611908 -654363951 1133115933 -1747024935 1069398358 668994357 1568487461 -1229536970
REM
CELL 1.54180   50.00000   50.00000   50.00000   90.00000   90.00000   90.00000
LATT -1
SFAC C  
C      1  0.4628180000000  0.4724200000000  0.4187650000000 1.0
C      1  0.5419420000000  0.4818030000000  0.4176090000000 1.0
C      1  0.4951480000000  0.5450510000000  0.4181850000000 1.0
C      1  0.4501090000000  0.5246230000000  0.4536470000000 1.0
C      1  0.5464780000000  0.5301740000000  0.4545280000000 1.0
C      1  0.5037390000000  0.4438300000000  0.4534630000000 1.0
C      1  0.4391240000000  0.5378310000000  0.5236220000000 1.0
C      1  0.4992310000000  0.4249930000000  0.5239850000000 1.0
C      1  0.5635450000000  0.5345810000000  0.5238590000000 1.0
C      1  0.4410800000000  0.4608430000000  0.5175160000000 1.0
C      1  0.4961190000000  0.5714410000000  0.5172530000000 1.0
C      1  0.5610120000000  0.4666030000000  0.5171770000000 1.0
C      1  0.4307590000000  0.5114100000000  0.5127680000000 1.0
C      1  0.5273670000000  0.4229510000000  0.5203590000000 1.0
C      1  0.5453780000000  0.5552020000000  0.5121800000000 1.0
C      1  0.4234370000000  0.4837360000000  0.5118480000000 1.0
C      1  0.5248940000000  0.5752800000000  0.5114000000000 1.0
C      1  0.5447030000000  0.4423850000000  0.5107740000000 1.0
C      1  0.5022390000000  0.4616490000000  0.4891000000000 1.0
C      1  0.5383810000000  0.5281320000000  0.4935510000000 1.0
C      1  0.4566140000000  0.5196150000000  0.4927070000000 1.0
C      1  0.5136240000000  0.5499990000000  0.4885350000000 1.0
C      1  0.5336640000000  0.4647530000000  0.4881880000000 1.0
C      1  0.4507690000000  0.4866630000000  0.4886600000000 1.0
C      1  0.4632200000000  0.4640950000000  0.4691560000000 1.0
C      1  0.5493270000000  0.4840610000000  0.4682060000000 1.0
C      1  0.4888980000000  0.5512510000000  0.4685010000000 1.0
C      1  0.4564130000000  0.5468140000000  0.4763100000000 1.0
C      1  0.5617740000000  0.5134040000000  0.4776900000000 1.0
C      1  0.4834510000000  0.4383470000000  0.4783660000000 1.0
C      1  0.5465400000000  0.4836100000000  0.5405880000000 1.0
C      1  0.4917440000000  0.5495900000000  0.5405920000000 1.0
C      1  0.4621880000000  0.4672720000000  0.5406450000000 1.0
C      1  0.5484280000000  0.5166040000000  0.5452550000000 1.0
C      1  0.4911160000000  0.4499490000000  0.5401240000000 1.0
C      1  0.4623580000000  0.5348100000000  0.5452280000000 1.0
C      1  0.5046920000000  0.5322320000000  0.5143680000000 1.0
C      1  0.4687250000000  0.4896820000000  0.5158830000000 1.0
C      1  0.5242660000000  0.4821040000000  0.5147540000000 1.0
C      1  0.4943250000000  0.4726170000000  0.5179040000000 1.0
C      1  0.4757840000000  0.5202610000000  0.5190850000000 1.0
C      1  0.5284130000000  0.5122240000000  0.5197860000000 1.0
C      1  0.4810810000000  0.5722920000000  0.4940780000000 1.0
C      1  0.4482770000000  0.4473670000000  0.4947280000000 1.0
C      1  0.5707790000000  0.4781340000000  0.4939610000000 1.0
C      1  0.4834840000000  0.4186190000000  0.5022960000000 1.0
C      1  0.4414100000000  0.5564940000000  0.5034960000000 1.0
C      1  0.5782130000000  0.5220540000000  0.5041830000000 1.0
C      1  0.5335960000000  0.4666050000000  0.5632580000000 1.0
C      1  0.5124990000000  0.5474840000000  0.5636620000000 1.0
C      1  0.4554000000000  0.4872660000000  0.5639660000000 1.0
C      1  0.5321420000000  0.5321490000000  0.5666260000000 1.0
C      1  0.5105880000000  0.4565670000000  0.5635640000000 1.0
C      1  0.4582120000000  0.5120680000000  0.5661940000000 1.0
C      1  0.5291350000000  0.4868800000000  0.4422530000000 1.0
C      1  0.4964740000000  0.5313800000000  0.4429460000000 1.0
C      1  0.4746040000000  0.4809090000000  0.4430580000000 1.0
C      1  0.5231310000000  0.5173600000000  0.4467770000000 1.0
C      1  0.5039150000000  0.4705770000000  0.4461330000000 1.0
C      1  0.4732230000000  0.5108950000000  0.4467020000000 1.0
END
