TITL C-1154823-9327-72 0.00147243812520079 125000 -324.351001738918 0 0 60 (C1) n - 1
REM
REM in /home/nfs/bkarasulu/CARBON/AIRSS/Generating-Clusters/AIREBO/Higher-Symm/Only-C60
REM
REM
REM
REM
REM
REM ./C.cell (28575a23ae977d3b5fae324c64b13b57)
REM
REM compiler GCC version 9.2.1 20190827 (Red Hat 9.2.1-1)
REM options -cpp -mtune=generic -march=x86-64 -g -O0 -fpre-include=/usr/include/finclude/math-vector-fortran.h
REM seed -1974847511 304116432 -933799189 1209133296 -1485684246 1348647224 -65480032 -1199991558 -1795474153 -263860738 41781035 688739019 -69737549 901143015 86779511 1435936175 -1398854159 -410607934 603217355 448162415 971846000 -1138917789 -1098737769 -550030468 -269778213 1597813617 -1004549190 -324327070 393189101 -1983765821 1344089711 -603748854 -508139528
REM
CELL 1.54180   50.00000   50.00000   50.00000   90.00000   90.00000   90.00000
LATT -1
SFAC C  
C      1  0.5510640000000  0.4763070000000  0.5232720000000 1.0
C      1  0.5597920000000  0.5168640000000  0.4781140000000 1.0
C      1  0.4540820000000  0.4727970000000  0.5130720000000 1.0
C      1  0.4434450000000  0.5390540000000  0.4872300000000 1.0
C      1  0.5494230000000  0.4884190000000  0.4924070000000 1.0
C      1  0.5481310000000  0.5254430000000  0.5073200000000 1.0
C      1  0.4483300000000  0.4711970000000  0.4797920000000 1.0
C      1  0.4468240000000  0.5356620000000  0.5144990000000 1.0
C      1  0.5266170000000  0.5085680000000  0.5183080000000 1.0
C      1  0.5204450000000  0.4800290000000  0.4784170000000 1.0
C      1  0.4750240000000  0.5241380000000  0.5296250000000 1.0
C      1  0.4756900000000  0.4803650000000  0.4645070000000 1.0
C      1  0.5127100000000  0.5059180000000  0.4576880000000 1.0
C      1  0.5083850000000  0.4799010000000  0.5169210000000 1.0
C      1  0.4791350000000  0.5122820000000  0.4563530000000 1.0
C      1  0.4785690000000  0.4903020000000  0.5289980000000 1.0
C      1  0.5290970000000  0.4373160000000  0.5471480000000 1.0
C      1  0.5290680000000  0.5534900000000  0.4567750000000 1.0
C      1  0.4781530000000  0.4428300000000  0.5444400000000 1.0
C      1  0.4722000000000  0.5655330000000  0.4577060000000 1.0
C      1  0.5422100000000  0.4420220000000  0.4586380000000 1.0
C      1  0.5276610000000  0.5577880000000  0.5437070000000 1.0
C      1  0.4807800000000  0.4346030000000  0.4624400000000 1.0
C      1  0.4643200000000  0.5506080000000  0.5615250000000 1.0
C      1  0.4554620000000  0.5583630000000  0.5355890000000 1.0
C      1  0.4552040000000  0.4393120000000  0.4741960000000 1.0
C      1  0.5447210000000  0.5513940000000  0.5171790000000 1.0
C      1  0.5545760000000  0.4550820000000  0.4881560000000 1.0
C      1  0.4493650000000  0.5650760000000  0.4784260000000 1.0
C      1  0.4596650000000  0.4422720000000  0.5044330000000 1.0
C      1  0.5542220000000  0.5486230000000  0.4756100000000 1.0
C      1  0.5495380000000  0.4431490000000  0.5196440000000 1.0
C      1  0.5171480000000  0.5356070000000  0.5581340000000 1.0
C      1  0.5212620000000  0.4591140000000  0.4436710000000 1.0
C      1  0.4891840000000  0.5345290000000  0.5587490000000 1.0
C      1  0.4924370000000  0.4580540000000  0.4491900000000 1.0
C      1  0.5097550000000  0.5364540000000  0.4487380000000 1.0
C      1  0.5177930000000  0.4644190000000  0.5552150000000 1.0
C      1  0.4815850000000  0.5436660000000  0.4450760000000 1.0
C      1  0.4900280000000  0.4670890000000  0.5499230000000 1.0
C      1  0.4980490000000  0.4264140000000  0.4828050000000 1.0
C      1  0.4818480000000  0.5547970000000  0.5150960000000 1.0
C      1  0.5216560000000  0.4467510000000  0.4853100000000 1.0
C      1  0.5127590000000  0.5627220000000  0.5142230000000 1.0
C      1  0.4887740000000  0.4285800000000  0.5154500000000 1.0
C      1  0.4795830000000  0.5752380000000  0.4890650000000 1.0
C      1  0.5161540000000  0.4494900000000  0.5181500000000 1.0
C      1  0.5291460000000  0.5696600000000  0.4852470000000 1.0
C      1  0.5286620000000  0.5116710000000  0.5499890000000 1.0
C      1  0.5354730000000  0.4825350000000  0.4346450000000 1.0
C      1  0.4483280000000  0.5104210000000  0.5456220000000 1.0
C      1  0.4332760000000  0.4957690000000  0.4686730000000 1.0
C      1  0.5446860000000  0.5011560000000  0.4548620000000 1.0
C      1  0.5373800000000  0.4838770000000  0.5476680000000 1.0
C      1  0.4487110000000  0.5181550000000  0.4688430000000 1.0
C      1  0.4393430000000  0.4885610000000  0.5366020000000 1.0
C      1  0.4908120000000  0.4002770000000  0.5237170000000 1.0
C      1  0.5059010000000  0.5921720000000  0.4882740000000 1.0
C      1  0.4923730000000  0.4914790000000  0.4887300000000 1.0
C      1  0.4981700000000  0.5166370000000  0.5061970000000 1.0
END
