TITL C-1154816-9297-37 -0.00421730287303951 125000 -332.80747335347 0 0 60 (C1) n - 1
REM
REM in /home/nfs/bkarasulu/CARBON/AIRSS/Generating-Clusters/AIREBO/Higher-Symm/Only-C60
REM
REM
REM
REM
REM
REM ./C.cell (28575a23ae977d3b5fae324c64b13b57)
REM
REM compiler GCC version 9.2.1 20190827 (Red Hat 9.2.1-1)
REM options -cpp -mtune=generic -march=x86-64 -g -O0 -fpre-include=/usr/include/finclude/math-vector-fortran.h
REM seed 1155704051 749687900 2017092927 21051673 -512487318 410738099 -1822124777 -1321507052 -1432160372 2058411546 -1644424641 205262485 -1394676854 1896415235 1371020303 1232937234 -1734460634 1418769350 1780580019 1782789308 1664605409 -212750162 181755112 -841179526 -968995316 -1285186041 1789173455 545916732 336245637 745634889 -482771390 1432140301 732897725
REM
CELL 1.54180   50.00000   50.00000   50.00000   90.00000   90.00000   90.00000
LATT -1
SFAC C  
C      1  0.5130820000000  0.4938380000000  0.4461370000000 1.0
C      1  0.5175540000000  0.4496380000000  0.4687570000000 1.0
C      1  0.5092290000000  0.4561920000000  0.5372240000000 1.0
C      1  0.5209880000000  0.5118990000000  0.5608120000000 1.0
C      1  0.5196210000000  0.5602240000000  0.5234040000000 1.0
C      1  0.5185030000000  0.5549540000000  0.4710030000000 1.0
C      1  0.4804390000000  0.5009220000000  0.4426750000000 1.0
C      1  0.4889040000000  0.4519560000000  0.4806290000000 1.0
C      1  0.4842800000000  0.4509700000000  0.5271750000000 1.0
C      1  0.4920820000000  0.5008180000000  0.5534430000000 1.0
C      1  0.4866490000000  0.5571420000000  0.5213350000000 1.0
C      1  0.4867580000000  0.5521130000000  0.4698460000000 1.0
C      1  0.5479100000000  0.4689170000000  0.4519600000000 1.0
C      1  0.5495620000000  0.4378640000000  0.5007270000000 1.0
C      1  0.5440240000000  0.4713470000000  0.5475390000000 1.0
C      1  0.5447570000000  0.5316200000000  0.5465910000000 1.0
C      1  0.5619320000000  0.5529230000000  0.4973280000000 1.0
C      1  0.5436460000000  0.5236700000000  0.4541880000000 1.0
C      1  0.4505220000000  0.4693660000000  0.4485760000000 1.0
C      1  0.4552930000000  0.4445460000000  0.5011360000000 1.0
C      1  0.4601330000000  0.4755410000000  0.5473810000000 1.0
C      1  0.4472430000000  0.5334330000000  0.5459250000000 1.0
C      1  0.4421870000000  0.5517390000000  0.4961660000000 1.0
C      1  0.4460400000000  0.5228250000000  0.4530880000000 1.0
C      1  0.5645940000000  0.5091940000000  0.4756990000000 1.0
C      1  0.5678850000000  0.4792380000000  0.4735460000000 1.0
C      1  0.5671480000000  0.4645940000000  0.5011100000000 1.0
C      1  0.5641880000000  0.4831930000000  0.5262870000000 1.0
C      1  0.5659330000000  0.5134470000000  0.5270270000000 1.0
C      1  0.5707630000000  0.5254330000000  0.4996680000000 1.0
C      1  0.4291180000000  0.5101580000000  0.4736720000000 1.0
C      1  0.4313540000000  0.4804350000000  0.4732840000000 1.0
C      1  0.4348070000000  0.4671810000000  0.5010030000000 1.0
C      1  0.4353830000000  0.4854190000000  0.5264650000000 1.0
C      1  0.4306210000000  0.5149210000000  0.5257750000000 1.0
C      1  0.4277520000000  0.5264220000000  0.4986340000000 1.0
C      1  0.5283880000000  0.5254230000000  0.4845230000000 1.0
C      1  0.5223630000000  0.4973330000000  0.4752850000000 1.0
C      1  0.5204470000000  0.4746620000000  0.4898770000000 1.0
C      1  0.5254600000000  0.4770430000000  0.5196170000000 1.0
C      1  0.5219320000000  0.5060180000000  0.5274100000000 1.0
C      1  0.5218670000000  0.5285260000000  0.5128030000000 1.0
C      1  0.4789810000000  0.5244390000000  0.4848000000000 1.0
C      1  0.4797750000000  0.5002980000000  0.4735830000000 1.0
C      1  0.4805860000000  0.4771520000000  0.4878070000000 1.0
C      1  0.4723320000000  0.4776650000000  0.5157150000000 1.0
C      1  0.4819860000000  0.5042080000000  0.5281520000000 1.0
C      1  0.4795390000000  0.5266890000000  0.5118230000000 1.0
C      1  0.5098850000000  0.5270350000000  0.4492540000000 1.0
C      1  0.5166350000000  0.4623860000000  0.4400890000000 1.0
C      1  0.5195760000000  0.4335520000000  0.4974310000000 1.0
C      1  0.5172550000000  0.4614600000000  0.5663280000000 1.0
C      1  0.5096290000000  0.5401330000000  0.5489510000000 1.0
C      1  0.5361670000000  0.5625450000000  0.4966660000000 1.0
C      1  0.4769480000000  0.5335830000000  0.4437970000000 1.0
C      1  0.4830190000000  0.4687830000000  0.4385190000000 1.0
C      1  0.4859250000000  0.4298800000000  0.5035140000000 1.0
C      1  0.4870680000000  0.4743150000000  0.5650680000000 1.0
C      1  0.4753660000000  0.5415410000000  0.5484450000000 1.0
C      1  0.4679810000000  0.5612400000000  0.4953300000000 1.0
END
