TITL C-1154816-9297-619 1.72595310523303e-05 125000 -291.196433285121 0 0 60 (C1) n - 1
REM
REM in /home/nfs/bkarasulu/CARBON/AIRSS/Generating-Clusters/AIREBO/Higher-Symm/Only-C60
REM
REM
REM
REM
REM
REM ./C.cell (28575a23ae977d3b5fae324c64b13b57)
REM
REM compiler GCC version 9.2.1 20190827 (Red Hat 9.2.1-1)
REM options -cpp -mtune=generic -march=x86-64 -g -O0 -fpre-include=/usr/include/finclude/math-vector-fortran.h
REM seed 512843096 746305392 -29357650 -1079214359 -769685146 -1943756195 -1300215818 1807550086 1123995785 1188675370 1243754807 -50742291 -710825137 -1047883755 -413264459 760593449 1331978076 289328138 -893248023 -124903809 -206171282 -1669822818 -634010388 1925583585 -51713830 -1640261402 -1564626543 1312094574 137077969 364144264 1559979996 -1451704017 796544570
REM
CELL 1.54180   50.00000   50.00000   50.00000   90.00000   90.00000   90.00000
LATT -1
SFAC C  
C      1  0.5776170000000  0.5423000000000  0.5271860000000 1.0
C      1  0.4594380000000  0.5754440000000  0.5244680000000 1.0
C      1  0.4219430000000  0.4651120000000  0.5281150000000 1.0
C      1  0.5172750000000  0.4173070000000  0.5391570000000 1.0
C      1  0.4286730000000  0.5379500000000  0.4638140000000 1.0
C      1  0.5408400000000  0.5762180000000  0.4699470000000 1.0
C      1  0.5774730000000  0.4832210000000  0.4525290000000 1.0
C      1  0.4507200000000  0.4271470000000  0.4688910000000 1.0
C      1  0.5715290000000  0.4660370000000  0.5001050000000 1.0
C      1  0.5364110000000  0.5738770000000  0.5153320000000 1.0
C      1  0.4271240000000  0.5387720000000  0.5098790000000 1.0
C      1  0.4577210000000  0.4250270000000  0.5141860000000 1.0
C      1  0.4262590000000  0.4630810000000  0.4824390000000 1.0
C      1  0.4623830000000  0.5710110000000  0.4787060000000 1.0
C      1  0.5723820000000  0.5448340000000  0.4815300000000 1.0
C      1  0.5333430000000  0.4284760000000  0.4916200000000 1.0
C      1  0.5346660000000  0.4640010000000  0.5311650000000 1.0
C      1  0.5325450000000  0.5299480000000  0.5342790000000 1.0
C      1  0.4683270000000  0.5297150000000  0.5322200000000 1.0
C      1  0.4689350000000  0.4663850000000  0.5349610000000 1.0
C      1  0.4699690000000  0.4695500000000  0.4642450000000 1.0
C      1  0.4746530000000  0.5276930000000  0.4627330000000 1.0
C      1  0.5300090000000  0.5308880000000  0.4630160000000 1.0
C      1  0.5308770000000  0.4709810000000  0.4662400000000 1.0
C      1  0.5646500000000  0.4631710000000  0.5239740000000 1.0
C      1  0.5367890000000  0.5613420000000  0.5375610000000 1.0
C      1  0.4373930000000  0.5366180000000  0.5331290000000 1.0
C      1  0.4607310000000  0.4359190000000  0.5371180000000 1.0
C      1  0.4387170000000  0.4655830000000  0.4604570000000 1.0
C      1  0.4678650000000  0.5582790000000  0.4573380000000 1.0
C      1  0.5596820000000  0.5424970000000  0.4596420000000 1.0
C      1  0.5318060000000  0.4394660000000  0.4691710000000 1.0
C      1  0.5169240000000  0.4853860000000  0.4430020000000 1.0
C      1  0.5178300000000  0.5165920000000  0.4400150000000 1.0
C      1  0.4873340000000  0.5117010000000  0.4404760000000 1.0
C      1  0.4860110000000  0.4806290000000  0.4413560000000 1.0
C      1  0.4869700000000  0.4850370000000  0.5569440000000 1.0
C      1  0.4856390000000  0.5167110000000  0.5571170000000 1.0
C      1  0.5170460000000  0.5111120000000  0.5570920000000 1.0
C      1  0.5185250000000  0.4801730000000  0.5542490000000 1.0
C      1  0.5275340000000  0.5123940000000  0.4888940000000 1.0
C      1  0.4944130000000  0.5200930000000  0.4882990000000 1.0
C      1  0.4797320000000  0.4894190000000  0.4888690000000 1.0
C      1  0.5086090000000  0.4714660000000  0.4885160000000 1.0
C      1  0.4798260000000  0.5017760000000  0.5206810000000 1.0
C      1  0.5053810000000  0.5209500000000  0.5204880000000 1.0
C      1  0.5251740000000  0.4935050000000  0.5171570000000 1.0
C      1  0.4977040000000  0.4737450000000  0.5206410000000 1.0
C      1  0.5541940000000  0.5348720000000  0.5084820000000 1.0
C      1  0.4672540000000  0.5517640000000  0.5063130000000 1.0
C      1  0.4463760000000  0.4679040000000  0.5094300000000 1.0
C      1  0.5207520000000  0.4376830000000  0.5202970000000 1.0
C      1  0.4496350000000  0.5313940000000  0.4854830000000 1.0
C      1  0.5329650000000  0.5528390000000  0.4888400000000 1.0
C      1  0.5595710000000  0.4805750000000  0.4737810000000 1.0
C      1  0.4636440000000  0.4469640000000  0.4888880000000 1.0
C      1  0.4482110000000  0.4994260000000  0.4967880000000 1.0
C      1  0.4963040000000  0.4422290000000  0.4970960000000 1.0
C      1  0.5577320000000  0.5033270000000  0.4962800000000 1.0
C      1  0.4999630000000  0.5524840000000  0.4970280000000 1.0
END
