TITL C-1154821-8623-124 -0.00265737951093225 125000 -335.607961809409 0 0 60 (C1) n - 1
REM
REM in /home/nfs/bkarasulu/CARBON/AIRSS/Generating-Clusters/AIREBO/Higher-Symm/Only-C60
REM
REM
REM
REM
REM
REM ./C.cell (28575a23ae977d3b5fae324c64b13b57)
REM
REM compiler GCC version 9.2.1 20190827 (Red Hat 9.2.1-1)
REM options -cpp -mtune=generic -march=x86-64 -g -O0 -fpre-include=/usr/include/finclude/math-vector-fortran.h
REM seed 889398023 1633080292 1747510462 847192009 -1149485907 -197067758 -1830673747 -2125901563 -1554781402 -2005628740 1008993527 -1140311006 -926488996 -494940243 -740400985 -1620193937 -983828266 821925298 321721176 69453241 40756965 180725095 1119774843 2095995578 917749486 1228664782 631083159 -213003405 -469731742 -1128768272 1193237472 1068098061 162594371
REM
CELL 1.54180   50.00000   50.00000   50.00000   90.00000   90.00000   90.00000
LATT -1
SFAC C  
C      1  0.5895320000000  0.4952990000000  0.5263510000000 1.0
C      1  0.5274150000000  0.5672850000000  0.5297010000000 1.0
C      1  0.5158870000000  0.5237990000000  0.5628680000000 1.0
C      1  0.5829880000000  0.4890830000000  0.4953560000000 1.0
C      1  0.4301410000000  0.4726460000000  0.5368290000000 1.0
C      1  0.4033840000000  0.4899770000000  0.4977010000000 1.0
C      1  0.5143570000000  0.4180680000000  0.5039730000000 1.0
C      1  0.4721170000000  0.4406760000000  0.5256500000000 1.0
C      1  0.4934360000000  0.5782040000000  0.4927220000000 1.0
C      1  0.5248140000000  0.5156150000000  0.4154220000000 1.0
C      1  0.4919890000000  0.4758330000000  0.5675950000000 1.0
C      1  0.4781470000000  0.5160130000000  0.4246110000000 1.0
C      1  0.4184180000000  0.4970780000000  0.5206340000000 1.0
C      1  0.4743530000000  0.5673640000000  0.5126290000000 1.0
C      1  0.4881530000000  0.5075110000000  0.5742940000000 1.0
C      1  0.4137070000000  0.4699620000000  0.4814090000000 1.0
C      1  0.5667080000000  0.4712540000000  0.5185640000000 1.0
C      1  0.5708330000000  0.4953970000000  0.4717240000000 1.0
C      1  0.4846390000000  0.4282970000000  0.5038320000000 1.0
C      1  0.5301380000000  0.4334740000000  0.5224700000000 1.0
C      1  0.5202190000000  0.5792040000000  0.5017930000000 1.0
C      1  0.4979300000000  0.5052370000000  0.4029820000000 1.0
C      1  0.5173580000000  0.4935870000000  0.5784080000000 1.0
C      1  0.5029910000000  0.5353640000000  0.4283480000000 1.0
C      1  0.4628030000000  0.5447480000000  0.4986010000000 1.0
C      1  0.5180070000000  0.4391860000000  0.5460770000000 1.0
C      1  0.5469330000000  0.4938920000000  0.4574770000000 1.0
C      1  0.4369540000000  0.4583310000000  0.4881400000000 1.0
C      1  0.5429410000000  0.4579740000000  0.5076210000000 1.0
C      1  0.5429820000000  0.5693060000000  0.4817820000000 1.0
C      1  0.5044370000000  0.5465340000000  0.4540010000000 1.0
C      1  0.4831990000000  0.5633060000000  0.5392740000000 1.0
C      1  0.4960950000000  0.4414600000000  0.4776290000000 1.0
C      1  0.5625950000000  0.4932360000000  0.5443540000000 1.0
C      1  0.4397710000000  0.4986210000000  0.4485370000000 1.0
C      1  0.4424130000000  0.5178840000000  0.5217050000000 1.0
C      1  0.5521650000000  0.5576910000000  0.5118410000000 1.0
C      1  0.4928640000000  0.4578150000000  0.5441600000000 1.0
C      1  0.4652440000000  0.5087180000000  0.4481760000000 1.0
C      1  0.5470790000000  0.4420580000000  0.4798190000000 1.0
C      1  0.4447300000000  0.4532860000000  0.5194840000000 1.0
C      1  0.4606150000000  0.5531830000000  0.4708880000000 1.0
C      1  0.4869280000000  0.5659000000000  0.4658230000000 1.0
C      1  0.5086680000000  0.5443300000000  0.5410790000000 1.0
C      1  0.5232400000000  0.4263370000000  0.4744810000000 1.0
C      1  0.4494090000000  0.4950910000000  0.5455830000000 1.0
C      1  0.5435330000000  0.5021150000000  0.4309960000000 1.0
C      1  0.5382780000000  0.5047150000000  0.5468660000000 1.0
C      1  0.4684900000000  0.4958740000000  0.5184210000000 1.0
C      1  0.5213950000000  0.4929370000000  0.4738860000000 1.0
C      1  0.4805600000000  0.5199580000000  0.5015940000000 1.0
C      1  0.4917170000000  0.4740910000000  0.5157590000000 1.0
C      1  0.5208970000000  0.4791940000000  0.5034340000000 1.0
C      1  0.5111900000000  0.5241940000000  0.4742070000000 1.0
C      1  0.4937880000000  0.4730820000000  0.4748220000000 1.0
C      1  0.4833770000000  0.5044890000000  0.4723350000000 1.0
C      1  0.5083530000000  0.5269110000000  0.5139940000000 1.0
C      1  0.5222700000000  0.5020570000000  0.5232750000000 1.0
C      1  0.4679350000000  0.4643860000000  0.4938650000000 1.0
C      1  0.5284920000000  0.5408810000000  0.4941490000000 1.0
END
