TITL C-1154821-8623-35 0.000816566401915105 125000 -321.859035069442 0 0 60 (C1) n - 1
REM
REM in /home/nfs/bkarasulu/CARBON/AIRSS/Generating-Clusters/AIREBO/Higher-Symm/Only-C60
REM
REM
REM
REM
REM
REM ./C.cell (28575a23ae977d3b5fae324c64b13b57)
REM
REM compiler GCC version 9.2.1 20190827 (Red Hat 9.2.1-1)
REM options -cpp -mtune=generic -march=x86-64 -g -O0 -fpre-include=/usr/include/finclude/math-vector-fortran.h
REM seed 512929898 -742172536 240609785 136877374 1459856712 1458548363 107076379 -1921742187 -1244102090 -984858577 1863915030 -517669155 1899759668 1664308111 -2126863179 1159434744 732593505 2065736698 -49348172 -251870881 -87453229 -1640903745 -819685366 1885733742 -2123324009 1212125420 -221727540 129006716 491635312 1425773809 20681628 379609184 1039395553
REM
CELL 1.54180   50.00000   50.00000   50.00000   90.00000   90.00000   90.00000
LATT -1
SFAC C  
C      1  0.4811490000000  0.4754500000000  0.5694390000000 1.0
C      1  0.4709260000000  0.5284200000000  0.5403170000000 1.0
C      1  0.4645880000000  0.5781770000000  0.4932700000000 1.0
C      1  0.4580420000000  0.5537530000000  0.4471230000000 1.0
C      1  0.4653010000000  0.4712930000000  0.4454200000000 1.0
C      1  0.4905730000000  0.4041250000000  0.4817190000000 1.0
C      1  0.4807510000000  0.4382490000000  0.5308760000000 1.0
C      1  0.4541910000000  0.5080930000000  0.5475580000000 1.0
C      1  0.4397510000000  0.5583270000000  0.5173680000000 1.0
C      1  0.4530420000000  0.5587610000000  0.4773570000000 1.0
C      1  0.4513290000000  0.5272310000000  0.4377080000000 1.0
C      1  0.4390880000000  0.4508420000000  0.4492990000000 1.0
C      1  0.4224170000000  0.4622660000000  0.5047370000000 1.0
C      1  0.3988860000000  0.4545710000000  0.5109380000000 1.0
C      1  0.5843860000000  0.4872590000000  0.5263110000000 1.0
C      1  0.5819890000000  0.5161390000000  0.5249740000000 1.0
C      1  0.5976550000000  0.5281940000000  0.5046390000000 1.0
C      1  0.5879170000000  0.5233530000000  0.4785340000000 1.0
C      1  0.5807910000000  0.4948220000000  0.4688620000000 1.0
C      1  0.5653030000000  0.4729960000000  0.4818500000000 1.0
C      1  0.5636250000000  0.4725430000000  0.5097840000000 1.0
C      1  0.5104710000000  0.4984850000000  0.5420320000000 1.0
C      1  0.5203100000000  0.5581480000000  0.5203520000000 1.0
C      1  0.5131210000000  0.5455080000000  0.4794040000000 1.0
C      1  0.5155700000000  0.5102600000000  0.4518280000000 1.0
C      1  0.5149260000000  0.4538010000000  0.4734160000000 1.0
C      1  0.5046510000000  0.4578060000000  0.5055870000000 1.0
C      1  0.4956840000000  0.4859760000000  0.5187620000000 1.0
C      1  0.5398740000000  0.4991850000000  0.5408050000000 1.0
C      1  0.5506520000000  0.5257050000000  0.5249190000000 1.0
C      1  0.5405220000000  0.5431060000000  0.4975140000000 1.0
C      1  0.5587050000000  0.5273640000000  0.4754800000000 1.0
C      1  0.5453530000000  0.5012230000000  0.4618800000000 1.0
C      1  0.5405110000000  0.4678680000000  0.4665990000000 1.0
C      1  0.5486490000000  0.4725620000000  0.5366100000000 1.0
C      1  0.4612540000000  0.4524940000000  0.4737690000000 1.0
C      1  0.4515390000000  0.4687520000000  0.4979370000000 1.0
C      1  0.4696530000000  0.4663390000000  0.5232250000000 1.0
C      1  0.4626090000000  0.4811630000000  0.5494350000000 1.0
C      1  0.4674080000000  0.5442940000000  0.5142220000000 1.0
C      1  0.4687080000000  0.5292560000000  0.4837430000000 1.0
C      1  0.4655550000000  0.5108190000000  0.4553330000000 1.0
C      1  0.5296760000000  0.4553790000000  0.5497610000000 1.0
C      1  0.5024120000000  0.5004540000000  0.5747050000000 1.0
C      1  0.5173320000000  0.5496940000000  0.5465960000000 1.0
C      1  0.5158610000000  0.5772650000000  0.4857710000000 1.0
C      1  0.5085320000000  0.5365350000000  0.4408110000000 1.0
C      1  0.4971240000000  0.4605260000000  0.4481320000000 1.0
C      1  0.5047190000000  0.4233720000000  0.5029410000000 1.0
C      1  0.5127690000000  0.4682440000000  0.5680320000000 1.0
C      1  0.4982410000000  0.5262250000000  0.5527970000000 1.0
C      1  0.4920490000000  0.5668380000000  0.5076880000000 1.0
C      1  0.4874960000000  0.5502470000000  0.4600160000000 1.0
C      1  0.4911320000000  0.4924790000000  0.4500870000000 1.0
C      1  0.4859430000000  0.4364930000000  0.4775800000000 1.0
C      1  0.5146280000000  0.4379890000000  0.5311970000000 1.0
C      1  0.4567250000000  0.4984580000000  0.4917870000000 1.0
C      1  0.5394920000000  0.5038950000000  0.5013440000000 1.0
C      1  0.5162040000000  0.5136720000000  0.4856570000000 1.0
C      1  0.4897060000000  0.5061080000000  0.4971560000000 1.0
END
