TITL C-1154823-9327-116 0.000609656967954487 125000 -346.461795419388 0 0 60 (C1) n - 1
REM
REM in /home/nfs/bkarasulu/CARBON/AIRSS/Generating-Clusters/AIREBO/Higher-Symm/Only-C60
REM
REM
REM
REM
REM
REM ./C.cell (28575a23ae977d3b5fae324c64b13b57)
REM
REM compiler GCC version 9.2.1 20190827 (Red Hat 9.2.1-1)
REM options -cpp -mtune=generic -march=x86-64 -g -O0 -fpre-include=/usr/include/finclude/math-vector-fortran.h
REM seed 769860805 -29624150 1627228015 -767311062 828771710 1250572777 -279227696 1036356906 1016602337 1759650914 -973816388 2046049039 -568234295 557943902 159197457 1381624411 1975252500 455700509 -971853070 -65557939 -1604947707 1057706763 464755103 -2117231313 -552013633 260065153 1573056900 -884402981 -853603338 566333479 49827008 -470240688 2022801343
REM
CELL 1.54180   50.00000   50.00000   50.00000   90.00000   90.00000   90.00000
LATT -1
SFAC C  
C      1  0.4782540000000  0.4822560000000  0.4805600000000 1.0
C      1  0.4765590000000  0.5156360000000  0.4843860000000 1.0
C      1  0.5075460000000  0.5263120000000  0.4866420000000 1.0
C      1  0.5277210000000  0.5005380000000  0.4844950000000 1.0
C      1  0.5092400000000  0.4735510000000  0.4826130000000 1.0
C      1  0.4601220000000  0.4801420000000  0.5072970000000 1.0
C      1  0.4597910000000  0.5315510000000  0.5068340000000 1.0
C      1  0.5202510000000  0.5486100000000  0.5078710000000 1.0
C      1  0.5484820000000  0.4891670000000  0.5065940000000 1.0
C      1  0.5061450000000  0.4555180000000  0.5089350000000 1.0
C      1  0.5608270000000  0.5565620000000  0.4803700000000 1.0
C      1  0.5722300000000  0.4598520000000  0.4731530000000 1.0
C      1  0.4870310000000  0.4209980000000  0.4774180000000 1.0
C      1  0.4208720000000  0.4837050000000  0.4719130000000 1.0
C      1  0.4605050000000  0.5723130000000  0.4783100000000 1.0
C      1  0.4363310000000  0.5066040000000  0.4545420000000 1.0
C      1  0.4867940000000  0.5652300000000  0.4599590000000 1.0
C      1  0.5569150000000  0.5329280000000  0.4587460000000 1.0
C      1  0.5473330000000  0.4568680000000  0.4532360000000 1.0
C      1  0.4734780000000  0.4395240000000  0.4545970000000 1.0
C      1  0.4269370000000  0.4841280000000  0.5009720000000 1.0
C      1  0.4662230000000  0.5633470000000  0.5062730000000 1.0
C      1  0.5529240000000  0.5484550000000  0.5080750000000 1.0
C      1  0.5642840000000  0.4602690000000  0.5016140000000 1.0
C      1  0.4868900000000  0.4305110000000  0.5036540000000 1.0
C      1  0.5363930000000  0.5573460000000  0.4593530000000 1.0
C      1  0.5633470000000  0.4842240000000  0.4539960000000 1.0
C      1  0.5045870000000  0.4337130000000  0.4536850000000 1.0
C      1  0.4412230000000  0.4756200000000  0.4492700000000 1.0
C      1  0.4587890000000  0.5509970000000  0.4544840000000 1.0
C      1  0.5342150000000  0.4855140000000  0.5353400000000 1.0
C      1  0.5060010000000  0.4738560000000  0.5339500000000 1.0
C      1  0.4762630000000  0.4909120000000  0.5311270000000 1.0
C      1  0.4657540000000  0.5208050000000  0.5375230000000 1.0
C      1  0.5164950000000  0.5524410000000  0.5414550000000 1.0
C      1  0.4415710000000  0.5018120000000  0.5476410000000 1.0
C      1  0.4923310000000  0.5610410000000  0.5513010000000 1.0
C      1  0.5433540000000  0.5131420000000  0.5471400000000 1.0
C      1  0.5713850000000  0.4523490000000  0.5547620000000 1.0
C      1  0.4745290000000  0.4729190000000  0.5583790000000 1.0
C      1  0.5101740000000  0.5516590000000  0.4660160000000 1.0
C      1  0.5496800000000  0.5066420000000  0.4623300000000 1.0
C      1  0.5208120000000  0.4551140000000  0.4599870000000 1.0
C      1  0.4652040000000  0.4655450000000  0.4580090000000 1.0
C      1  0.4565910000000  0.5242140000000  0.4607740000000 1.0
C      1  0.5509780000000  0.4328890000000  0.5113920000000 1.0
C      1  0.4628400000000  0.4304690000000  0.5178800000000 1.0
C      1  0.4144550000000  0.5118810000000  0.5108670000000 1.0
C      1  0.4870850000000  0.5834090000000  0.5185750000000 1.0
C      1  0.5758380000000  0.5293310000000  0.5189070000000 1.0
C      1  0.5260540000000  0.4307080000000  0.5115450000000 1.0
C      1  0.4462000000000  0.4519020000000  0.5144770000000 1.0
C      1  0.4282910000000  0.5324110000000  0.5069310000000 1.0
C      1  0.5111080000000  0.5792710000000  0.5123760000000 1.0
C      1  0.5750120000000  0.5053870000000  0.5117230000000 1.0
C      1  0.4697110000000  0.5530290000000  0.5384930000000 1.0
C      1  0.5427360000000  0.5388050000000  0.5390880000000 1.0
C      1  0.5592530000000  0.4639300000000  0.5350600000000 1.0
C      1  0.4974410000000  0.4584200000000  0.5630110000000 1.0
C      1  0.4306190000000  0.4837180000000  0.5340930000000 1.0
END
