TITL C-1154808-8168-211 0.000173659770371883 125000 -337.977411043175 0 0 60 (Ci) n - 1
REM
REM in /home/nfs/bkarasulu/CARBON/AIRSS/Generating-Clusters/AIREBO/Higher-Symm/Only-C60
REM
REM
REM
REM
REM
REM ./C.cell (28575a23ae977d3b5fae324c64b13b57)
REM
REM compiler GCC version 9.2.1 20190827 (Red Hat 9.2.1-1)
REM options -cpp -mtune=generic -march=x86-64 -g -O0 -fpre-include=/usr/include/finclude/math-vector-fortran.h
REM seed 1665855699 1867609956 1746158511 254188333 -1698281449 -1959209776 1597909280 1514497707 83559388 551184717 1476004201 1767748454 2100096913 1278916753 -1302546621 -1040879950 1861268539 1214766858 -533799981 -2025083502 1434616190 386768443 637464528 1309465891 2055166268 1020688691 47741726 21798430 -856502094 419747260 1975122078 -1744480515 -1811124601
REM
CELL 1.54180   50.00000   50.00000   50.00000   90.00000   90.00000   90.00000
LATT -1
SFAC C  
C      1  0.4692690000000  0.4213840000000  0.4707090000000 1.0
C      1  0.4576580000000  0.5782650000000  0.4954970000000 1.0
C      1  0.4627380000000  0.4202600000000  0.5223980000000 1.0
C      1  0.4813830000000  0.5759340000000  0.5407290000000 1.0
C      1  0.5083710000000  0.4208660000000  0.5435870000000 1.0
C      1  0.5307310000000  0.5786160000000  0.5292910000000 1.0
C      1  0.5423420000000  0.4217350000000  0.5045030000000 1.0
C      1  0.5372620000000  0.5797400000000  0.4776020000000 1.0
C      1  0.5186170000000  0.4240660000000  0.4592710000000 1.0
C      1  0.4916290000000  0.5791340000000  0.4564130000000 1.0
C      1  0.5474070000000  0.5183900000000  0.5064590000000 1.0
C      1  0.5443260000000  0.4853520000000  0.4843260000000 1.0
C      1  0.5226210000000  0.5156390000000  0.4563290000000 1.0
C      1  0.4830050000000  0.4863420000000  0.4553600000000 1.0
C      1  0.4621790000000  0.5179190000000  0.4677300000000 1.0
C      1  0.4525930000000  0.4816100000000  0.4935410000000 1.0
C      1  0.4556740000000  0.5146480000000  0.5156740000000 1.0
C      1  0.4773790000000  0.4843610000000  0.5436710000000 1.0
C      1  0.5169950000000  0.5136580000000  0.5446400000000 1.0
C      1  0.5378210000000  0.4820810000000  0.5322700000000 1.0
C      1  0.5378040000000  0.5686290000000  0.5036930000000 1.0
C      1  0.5344350000000  0.4344510000000  0.4803690000000 1.0
C      1  0.5169980000000  0.5674650000000  0.4617990000000 1.0
C      1  0.4922720000000  0.4345430000000  0.4602970000000 1.0
C      1  0.4716700000000  0.5679290000000  0.4731260000000 1.0
C      1  0.4621960000000  0.4313710000000  0.4963070000000 1.0
C      1  0.4655650000000  0.5655490000000  0.5196310000000 1.0
C      1  0.4830020000000  0.4325350000000  0.5382010000000 1.0
C      1  0.5077280000000  0.5654570000000  0.5397030000000 1.0
C      1  0.5283300000000  0.4320710000000  0.5268740000000 1.0
C      1  0.4933460000000  0.4997650000000  0.5597970000000 1.0
C      1  0.5316520000000  0.4900540000000  0.5642580000000 1.0
C      1  0.5504790000000  0.5136200000000  0.5387080000000 1.0
C      1  0.5623300000000  0.4882630000000  0.5103380000000 1.0
C      1  0.5469120000000  0.5038070000000  0.4640120000000 1.0
C      1  0.5066540000000  0.5002350000000  0.4402030000000 1.0
C      1  0.4683480000000  0.5099460000000  0.4357420000000 1.0
C      1  0.4495210000000  0.4863800000000  0.4612920000000 1.0
C      1  0.4376700000000  0.5117370000000  0.4896620000000 1.0
C      1  0.4530880000000  0.4961930000000  0.5359880000000 1.0
C      1  0.5235300000000  0.4633630000000  0.4876170000000 1.0
C      1  0.5121270000000  0.5380600000000  0.4731960000000 1.0
C      1  0.4936940000000  0.4634110000000  0.4733600000000 1.0
C      1  0.4805120000000  0.5383820000000  0.4799130000000 1.0
C      1  0.4731500000000  0.4607580000000  0.4985510000000 1.0
C      1  0.4764700000000  0.5366370000000  0.5123830000000 1.0
C      1  0.4878730000000  0.4619400000000  0.5268040000000 1.0
C      1  0.5063060000000  0.5365890000000  0.5266400000000 1.0
C      1  0.5194880000000  0.4616180000000  0.5200870000000 1.0
C      1  0.5268500000000  0.5392420000000  0.5014490000000 1.0
C      1  0.4121250000000  0.5209100000000  0.4869950000000 1.0
C      1  0.4298570000000  0.4904420000000  0.5483800000000 1.0
C      1  0.4885050000000  0.5064700000000  0.5858850000000 1.0
C      1  0.5365680000000  0.4833660000000  0.5883130000000 1.0
C      1  0.5728680000000  0.5253460000000  0.5541730000000 1.0
C      1  0.5878750000000  0.4790900000000  0.5130050000000 1.0
C      1  0.5701430000000  0.5095580000000  0.4516200000000 1.0
C      1  0.5114950000000  0.4935300000000  0.4141150000000 1.0
C      1  0.4634320000000  0.5166340000000  0.4116870000000 1.0
C      1  0.4271320000000  0.4746540000000  0.4458270000000 1.0
END
