TITL C-1154824-75-461 -0.00120321138857419 125000 -321.991813210568 0 0 60 (C1) n - 1
REM
REM in /home/nfs/bkarasulu/CARBON/AIRSS/Generating-Clusters/AIREBO/Higher-Symm/Only-C60
REM
REM
REM
REM
REM
REM ./C.cell (28575a23ae977d3b5fae324c64b13b57)
REM
REM compiler GCC version 9.2.1 20190827 (Red Hat 9.2.1-1)
REM options -cpp -mtune=generic -march=x86-64 -g -O0 -fpre-include=/usr/include/finclude/math-vector-fortran.h
REM seed 1036671004 -1153036096 258891107 1489207879 -1148797996 -856555775 -1840692684 -1272634718 -139404939 1066942759 -107040543 -112306535 202544235 273191450 -1929712400 1582730537 -355394568 1307415695 1156416869 -204216186 761676100 -88198039 1928304117 652214825 1481256696 800115662 2099255129 -32163140 -1475479139 -1993830624 298879272 1772414880 1756801159
REM
CELL 1.54180   50.00000   50.00000   50.00000   90.00000   90.00000   90.00000
LATT -1
SFAC C  
C      1  0.4330320000000  0.4999230000000  0.5514160000000 1.0
C      1  0.5639850000000  0.5058990000000  0.5581220000000 1.0
C      1  0.4528510000000  0.5091150000000  0.5112460000000 1.0
C      1  0.5529580000000  0.5067380000000  0.5083530000000 1.0
C      1  0.5177990000000  0.4246600000000  0.4897690000000 1.0
C      1  0.4882110000000  0.4326800000000  0.4884430000000 1.0
C      1  0.5219190000000  0.4510400000000  0.5614010000000 1.0
C      1  0.4979320000000  0.4522930000000  0.5854020000000 1.0
C      1  0.5301420000000  0.4898430000000  0.5270780000000 1.0
C      1  0.4666770000000  0.4901380000000  0.5321510000000 1.0
C      1  0.5172440000000  0.4800520000000  0.5788330000000 1.0
C      1  0.4891630000000  0.4739110000000  0.5606660000000 1.0
C      1  0.5661890000000  0.5223060000000  0.4530720000000 1.0
C      1  0.4363120000000  0.5346490000000  0.4481720000000 1.0
C      1  0.5609910000000  0.4669140000000  0.5160270000000 1.0
C      1  0.4390490000000  0.4587820000000  0.5095100000000 1.0
C      1  0.5338200000000  0.5486920000000  0.5145510000000 1.0
C      1  0.4736720000000  0.5460100000000  0.5095690000000 1.0
C      1  0.4522000000000  0.5412200000000  0.5349480000000 1.0
C      1  0.5371380000000  0.5455300000000  0.5449320000000 1.0
C      1  0.4719840000000  0.5483010000000  0.4598610000000 1.0
C      1  0.5285530000000  0.5479050000000  0.4663260000000 1.0
C      1  0.5166260000000  0.4591380000000  0.5326070000000 1.0
C      1  0.4847180000000  0.4626570000000  0.5296510000000 1.0
C      1  0.5392010000000  0.5065630000000  0.4435690000000 1.0
C      1  0.4580410000000  0.5125230000000  0.4490250000000 1.0
C      1  0.5294300000000  0.4816270000000  0.4291240000000 1.0
C      1  0.4541930000000  0.4791040000000  0.4476820000000 1.0
C      1  0.5599120000000  0.5355590000000  0.5004810000000 1.0
C      1  0.4411250000000  0.5398620000000  0.5026920000000 1.0
C      1  0.5400690000000  0.5222000000000  0.5581370000000 1.0
C      1  0.4531300000000  0.5206880000000  0.5537480000000 1.0
C      1  0.5340910000000  0.4465390000000  0.5100210000000 1.0
C      1  0.4687050000000  0.4438590000000  0.5126080000000 1.0
C      1  0.5608420000000  0.4836410000000  0.5403200000000 1.0
C      1  0.4359750000000  0.4784170000000  0.5300450000000 1.0
C      1  0.4862960000000  0.5736150000000  0.4701990000000 1.0
C      1  0.5165010000000  0.5738730000000  0.4740490000000 1.0
C      1  0.4808160000000  0.4481310000000  0.4601130000000 1.0
C      1  0.5143520000000  0.4389190000000  0.4589790000000 1.0
C      1  0.5158260000000  0.5030880000000  0.5550020000000 1.0
C      1  0.4823050000000  0.5068990000000  0.5569170000000 1.0
C      1  0.4409290000000  0.5489550000000  0.4737300000000 1.0
C      1  0.5583990000000  0.5401400000000  0.4727840000000 1.0
C      1  0.5414440000000  0.5017450000000  0.4767510000000 1.0
C      1  0.4529000000000  0.4995380000000  0.4806600000000 1.0
C      1  0.5162670000000  0.5303040000000  0.4435350000000 1.0
C      1  0.4898910000000  0.5228340000000  0.4460780000000 1.0
C      1  0.5106490000000  0.4955130000000  0.5014700000000 1.0
C      1  0.4927320000000  0.4999600000000  0.4787390000000 1.0
C      1  0.4417670000000  0.4682500000000  0.4771350000000 1.0
C      1  0.5523580000000  0.4732540000000  0.4869600000000 1.0
C      1  0.4557130000000  0.4376370000000  0.4806620000000 1.0
C      1  0.5414370000000  0.4455980000000  0.4768340000000 1.0
C      1  0.4861380000000  0.4805740000000  0.4565650000000 1.0
C      1  0.5110330000000  0.4661540000000  0.4420000000000 1.0
C      1  0.5223890000000  0.5258070000000  0.4914310000000 1.0
C      1  0.4747240000000  0.5255300000000  0.4828670000000 1.0
C      1  0.4883370000000  0.5709190000000  0.5017110000000 1.0
C      1  0.5189160000000  0.5737830000000  0.5052690000000 1.0
END
