TITL C-1154804-8633-585 -0.00260799864339093 125000 -309.237238710296 0 0 60 (C1) n - 1
REM
REM in /home/nfs/bkarasulu/CARBON/AIRSS/Generating-Clusters/AIREBO/Higher-Symm/Only-C60
REM
REM
REM
REM
REM
REM ./C.cell (28575a23ae977d3b5fae324c64b13b57)
REM
REM compiler GCC version 9.2.1 20190827 (Red Hat 9.2.1-1)
REM options -cpp -mtune=generic -march=x86-64 -g -O0 -fpre-include=/usr/include/finclude/math-vector-fortran.h
REM seed 804118805 -1267529822 -1714056766 413513505 -1294920371 -797070599 -268018605 -1456502370 497835479 -133639472 1656908708 -674555456 455898437 1546125454 238066075 -1797746210 -1127812130 1555786266 1070510389 -30768794 -350655447 -1039073581 -1000129163 -1653692341 530362362 -1281016076 -1514063650 375058505 90328480 1614566310 -472562781 1477892293 1411998041
REM
CELL 1.54180   50.00000   50.00000   50.00000   90.00000   90.00000   90.00000
LATT -1
SFAC C  
C      1  0.5242250000000  0.4871160000000  0.4326640000000 1.0
C      1  0.4980950000000  0.4760820000000  0.4339950000000 1.0
C      1  0.4748650000000  0.4908640000000  0.4344310000000 1.0
C      1  0.4739340000000  0.5160080000000  0.4218350000000 1.0
C      1  0.4876420000000  0.5378120000000  0.4331020000000 1.0
C      1  0.5149700000000  0.5360070000000  0.4328670000000 1.0
C      1  0.5315530000000  0.5124120000000  0.4234440000000 1.0
C      1  0.5308010000000  0.4450860000000  0.5272240000000 1.0
C      1  0.4654910000000  0.4502670000000  0.5380390000000 1.0
C      1  0.4347350000000  0.4669300000000  0.5158320000000 1.0
C      1  0.4422710000000  0.5387910000000  0.5432620000000 1.0
C      1  0.4826530000000  0.5651610000000  0.5317100000000 1.0
C      1  0.5350870000000  0.5461290000000  0.5305790000000 1.0
C      1  0.5632570000000  0.4907540000000  0.5304320000000 1.0
C      1  0.5324510000000  0.5455780000000  0.4585490000000 1.0
C      1  0.5531230000000  0.5277230000000  0.4394060000000 1.0
C      1  0.5394100000000  0.4751970000000  0.4534520000000 1.0
C      1  0.5037160000000  0.4534390000000  0.4546300000000 1.0
C      1  0.4778750000000  0.4416680000000  0.4673630000000 1.0
C      1  0.4562760000000  0.4860090000000  0.4546690000000 1.0
C      1  0.4760180000000  0.5529540000000  0.4536680000000 1.0
C      1  0.5143200000000  0.5291870000000  0.4821890000000 1.0
C      1  0.5270340000000  0.4999620000000  0.4947920000000 1.0
C      1  0.5187820000000  0.4702920000000  0.4800390000000 1.0
C      1  0.4866150000000  0.4635580000000  0.4918740000000 1.0
C      1  0.4656480000000  0.4890550000000  0.4837090000000 1.0
C      1  0.4646150000000  0.5210640000000  0.4954010000000 1.0
C      1  0.4838040000000  0.5445750000000  0.4821400000000 1.0
C      1  0.4580470000000  0.4269190000000  0.4607310000000 1.0
C      1  0.4303160000000  0.4785900000000  0.4497550000000 1.0
C      1  0.4576340000000  0.5728940000000  0.4499540000000 1.0
C      1  0.5393520000000  0.5725900000000  0.4604170000000 1.0
C      1  0.5801180000000  0.5258520000000  0.4398030000000 1.0
C      1  0.5643850000000  0.4645810000000  0.4506760000000 1.0
C      1  0.5204970000000  0.4331720000000  0.4441070000000 1.0
C      1  0.4363300000000  0.4927000000000  0.5005440000000 1.0
C      1  0.4370690000000  0.5435180000000  0.5133990000000 1.0
C      1  0.4991020000000  0.5660280000000  0.5031720000000 1.0
C      1  0.5426450000000  0.5364260000000  0.4995640000000 1.0
C      1  0.5743270000000  0.4838110000000  0.5035690000000 1.0
C      1  0.5368720000000  0.4461860000000  0.4957810000000 1.0
C      1  0.4749310000000  0.4362910000000  0.5085090000000 1.0
C      1  0.5589210000000  0.5077440000000  0.4945630000000 1.0
C      1  0.5668640000000  0.4579570000000  0.4931810000000 1.0
C      1  0.5070170000000  0.4300630000000  0.4991260000000 1.0
C      1  0.4419260000000  0.4418610000000  0.5072260000000 1.0
C      1  0.4253450000000  0.5194510000000  0.5016040000000 1.0
C      1  0.4629570000000  0.5598960000000  0.5045000000000 1.0
C      1  0.5266090000000  0.5663400000000  0.4973880000000 1.0
C      1  0.5170180000000  0.4676510000000  0.5346830000000 1.0
C      1  0.4894030000000  0.4693910000000  0.5253260000000 1.0
C      1  0.4587910000000  0.4830910000000  0.5321890000000 1.0
C      1  0.4585480000000  0.5131680000000  0.5279400000000 1.0
C      1  0.4755890000000  0.5357700000000  0.5468870000000 1.0
C      1  0.5074200000000  0.5423470000000  0.5369040000000 1.0
C      1  0.5320680000000  0.4949610000000  0.5280650000000 1.0
C      1  0.4888490000000  0.5029730000000  0.5043250000000 1.0
C      1  0.5226130000000  0.5127310000000  0.5822700000000 1.0
C      1  0.5207160000000  0.5105860000000  0.5571150000000 1.0
C      1  0.5026910000000  0.5117490000000  0.5283010000000 1.0
END
