TITL C-1154821-8623-19 0.00139726150138886 125000 -373.183634100639 0 0 60 (C2) n - 1
REM
REM in /home/nfs/bkarasulu/CARBON/AIRSS/Generating-Clusters/AIREBO/Higher-Symm/Only-C60
REM
REM
REM
REM
REM
REM ./C.cell (28575a23ae977d3b5fae324c64b13b57)
REM
REM compiler GCC version 9.2.1 20190827 (Red Hat 9.2.1-1)
REM options -cpp -mtune=generic -march=x86-64 -g -O0 -fpre-include=/usr/include/finclude/math-vector-fortran.h
REM seed -892879169 715086617 -1602133607 -1606342603 -1015970310 1610668796 1936912900 122046569 -1947316359 -1484671884 -309027965 -2078496250 -857006513 -1790613696 -1320969613 77676258 -1666604207 348879597 -693637578 -179076895 395963954 -2073187591 -979733404 -380393886 1442390345 380680321 -1739997031 1558540747 1325746126 754203288 700523962 937285144 1485584883
REM
CELL 1.54180   50.00000   50.00000   50.00000   90.00000   90.00000   90.00000
LATT -1
SFAC C  
C      1  0.5478570000000  0.4232490000000  0.5085720000000 1.0
C      1  0.5476040000000  0.4329840000000  0.4824430000000 1.0
C      1  0.5323280000000  0.4203960000000  0.4627170000000 1.0
C      1  0.5090000000000  0.4229760000000  0.4493180000000 1.0
C      1  0.4835290000000  0.4342510000000  0.4506330000000 1.0
C      1  0.4642520000000  0.4223510000000  0.4670570000000 1.0
C      1  0.4519190000000  0.4234340000000  0.4910360000000 1.0
C      1  0.4522000000000  0.4330340000000  0.5172150000000 1.0
C      1  0.4674390000000  0.4203010000000  0.5368760000000 1.0
C      1  0.4907750000000  0.4227440000000  0.5502880000000 1.0
C      1  0.5162780000000  0.4339510000000  0.5490300000000 1.0
C      1  0.5355210000000  0.4220790000000  0.5325450000000 1.0
C      1  0.4574950000000  0.5046680000000  0.4444610000000 1.0
C      1  0.4481080000000  0.4855120000000  0.4777770000000 1.0
C      1  0.4328460000000  0.5044260000000  0.5164840000000 1.0
C      1  0.4417030000000  0.5024410000000  0.5435730000000 1.0
C      1  0.4756490000000  0.4862380000000  0.5558060000000 1.0
C      1  0.5153530000000  0.5062240000000  0.5657660000000 1.0
C      1  0.5425180000000  0.5042600000000  0.5555620000000 1.0
C      1  0.5518490000000  0.4852470000000  0.5221490000000 1.0
C      1  0.5671670000000  0.5043140000000  0.4835390000000 1.0
C      1  0.5583050000000  0.5024940000000  0.4564400000000 1.0
C      1  0.5243110000000  0.4864520000000  0.4441240000000 1.0
C      1  0.4846660000000  0.5066050000000  0.4342660000000 1.0
C      1  0.4497360000000  0.4727090000000  0.5475870000000 1.0
C      1  0.5015440000000  0.4809480000000  0.5642320000000 1.0
C      1  0.5203690000000  0.4605150000000  0.5565840000000 1.0
C      1  0.5452150000000  0.4736190000000  0.5492260000000 1.0
C      1  0.5623660000000  0.4793990000000  0.4971780000000 1.0
C      1  0.5554180000000  0.4592980000000  0.4776770000000 1.0
C      1  0.5501850000000  0.4728060000000  0.4522740000000 1.0
C      1  0.4984010000000  0.4812810000000  0.4356720000000 1.0
C      1  0.4795160000000  0.4608640000000  0.4432150000000 1.0
C      1  0.4547080000000  0.4740030000000  0.4506400000000 1.0
C      1  0.4375740000000  0.4795670000000  0.5027170000000 1.0
C      1  0.4444640000000  0.4593460000000  0.5221150000000 1.0
C      1  0.4704820000000  0.5200220000000  0.5486740000000 1.0
C      1  0.5015730000000  0.5259140000000  0.5508330000000 1.0
C      1  0.5207130000000  0.5389510000000  0.5347950000000 1.0
C      1  0.5436930000000  0.5186760000000  0.5245400000000 1.0
C      1  0.5543160000000  0.5263370000000  0.4959300000000 1.0
C      1  0.5413680000000  0.5402950000000  0.4748260000000 1.0
C      1  0.5295770000000  0.5201850000000  0.4514290000000 1.0
C      1  0.4985030000000  0.5261780000000  0.4493000000000 1.0
C      1  0.4794010000000  0.5391890000000  0.4654050000000 1.0
C      1  0.4563620000000  0.5189290000000  0.4755560000000 1.0
C      1  0.4457610000000  0.5264740000000  0.5042050000000 1.0
C      1  0.4587500000000  0.5402870000000  0.5253800000000 1.0
C      1  0.4757470000000  0.5803460000000  0.5454670000000 1.0
C      1  0.5027460000000  0.5806990000000  0.5484700000000 1.0
C      1  0.5236620000000  0.5664330000000  0.5365830000000 1.0
C      1  0.5436850000000  0.5791960000000  0.5219960000000 1.0
C      1  0.5505240000000  0.5817680000000  0.4958390000000 1.0
C      1  0.5412260000000  0.5678380000000  0.4733820000000 1.0
C      1  0.5244880000000  0.5805060000000  0.4549440000000 1.0
C      1  0.4974900000000  0.5809530000000  0.4519430000000 1.0
C      1  0.4765320000000  0.5666880000000  0.4637570000000 1.0
C      1  0.4565460000000  0.5794350000000  0.4784090000000 1.0
C      1  0.4497150000000  0.5818930000000  0.5045800000000 1.0
C      1  0.4589720000000  0.5678210000000  0.5269650000000 1.0
END
