TITL C-1154830-9999-109 0.00115907980129939 125000 -339.048822394676 0 0 60 (C1) n - 1
REM
REM in /home/nfs/bkarasulu/CARBON/AIRSS/Generating-Clusters/AIREBO/Higher-Symm/Only-C60
REM
REM
REM
REM
REM
REM ./C.cell (28575a23ae977d3b5fae324c64b13b57)
REM
REM compiler GCC version 9.2.1 20190827 (Red Hat 9.2.1-1)
REM options -cpp -mtune=generic -march=x86-64 -g -O0 -fpre-include=/usr/include/finclude/math-vector-fortran.h
REM seed 435044919 -1771093311 -1754511683 214604050 899120659 -2075340394 -1435812763 -1443349764 -1948755832 1558850256 1710349081 -1843995223 -779530325 1689488520 -1974451861 -418943563 -567178437 -306966252 809760754 -31472372 817856615 1010733531 -373304690 961173786 -1223302885 309017220 918302122 -1155968029 -794967523 221057112 1531899932 650324187 1310046486
REM
CELL 1.54180   50.00000   50.00000   50.00000   90.00000   90.00000   90.00000
LATT -1
SFAC C  
C      1  0.5225700000000  0.4581890000000  0.4744500000000 1.0
C      1  0.5191530000000  0.5453890000000  0.5256590000000 1.0
C      1  0.5189990000000  0.4544710000000  0.5291960000000 1.0
C      1  0.5152160000000  0.5384210000000  0.4680270000000 1.0
C      1  0.4919820000000  0.5694510000000  0.4943550000000 1.0
C      1  0.4994510000000  0.4344930000000  0.5119250000000 1.0
C      1  0.4955540000000  0.5631730000000  0.5204270000000 1.0
C      1  0.5001470000000  0.4383280000000  0.4843450000000 1.0
C      1  0.4713670000000  0.5170810000000  0.4856310000000 1.0
C      1  0.4718430000000  0.4789600000000  0.5202060000000 1.0
C      1  0.4793290000000  0.5111110000000  0.5153690000000 1.0
C      1  0.4788080000000  0.4814120000000  0.4887140000000 1.0
C      1  0.5403820000000  0.5436400000000  0.4830450000000 1.0
C      1  0.5469910000000  0.4459680000000  0.5173810000000 1.0
C      1  0.5408920000000  0.5557920000000  0.5071890000000 1.0
C      1  0.5500800000000  0.4540830000000  0.4897740000000 1.0
C      1  0.5457800000000  0.5155450000000  0.5109870000000 1.0
C      1  0.5532210000000  0.4872010000000  0.4839460000000 1.0
C      1  0.5588990000000  0.5177140000000  0.4796150000000 1.0
C      1  0.5478490000000  0.4830180000000  0.5172640000000 1.0
C      1  0.5420080000000  0.5108040000000  0.4249910000000 1.0
C      1  0.5296240000000  0.4913210000000  0.5714030000000 1.0
C      1  0.5194830000000  0.5162010000000  0.5758460000000 1.0
C      1  0.5421640000000  0.4842170000000  0.4277530000000 1.0
C      1  0.4821540000000  0.4424700000000  0.4613140000000 1.0
C      1  0.4809930000000  0.5577060000000  0.5442400000000 1.0
C      1  0.4821600000000  0.4404200000000  0.5359130000000 1.0
C      1  0.4858970000000  0.5555270000000  0.4642260000000 1.0
C      1  0.4352220000000  0.4652920000000  0.4852860000000 1.0
C      1  0.4374030000000  0.5593290000000  0.5172780000000 1.0
C      1  0.4373850000000  0.4607500000000  0.5113360000000 1.0
C      1  0.4408710000000  0.5606420000000  0.4901570000000 1.0
C      1  0.4553910000000  0.4514140000000  0.4646800000000 1.0
C      1  0.4533160000000  0.5494920000000  0.5380160000000 1.0
C      1  0.4542800000000  0.4423760000000  0.5309430000000 1.0
C      1  0.4546530000000  0.5495490000000  0.4700180000000 1.0
C      1  0.5458110000000  0.4785080000000  0.5465700000000 1.0
C      1  0.5538480000000  0.5283830000000  0.4489840000000 1.0
C      1  0.5541510000000  0.4726080000000  0.4549540000000 1.0
C      1  0.5550710000000  0.5312760000000  0.5354210000000 1.0
C      1  0.5046550000000  0.4817050000000  0.5231330000000 1.0
C      1  0.5009600000000  0.5122270000000  0.4761400000000 1.0
C      1  0.5074990000000  0.4847290000000  0.4769990000000 1.0
C      1  0.5129710000000  0.5137430000000  0.5197770000000 1.0
C      1  0.5208350000000  0.4609880000000  0.5616920000000 1.0
C      1  0.5227060000000  0.5351000000000  0.4359010000000 1.0
C      1  0.5252700000000  0.4595790000000  0.4418470000000 1.0
C      1  0.5300400000000  0.5401610000000  0.5561860000000 1.0
C      1  0.4461380000000  0.4733050000000  0.5417360000000 1.0
C      1  0.4498130000000  0.5187900000000  0.4611370000000 1.0
C      1  0.4556420000000  0.4854250000000  0.4641500000000 1.0
C      1  0.4639160000000  0.5219690000000  0.5394790000000 1.0
C      1  0.4963350000000  0.5346510000000  0.5591150000000 1.0
C      1  0.4940710000000  0.4597240000000  0.4413490000000 1.0
C      1  0.4901450000000  0.5346620000000  0.4376930000000 1.0
C      1  0.4901660000000  0.4590660000000  0.5563990000000 1.0
C      1  0.4735080000000  0.5117720000000  0.4399660000000 1.0
C      1  0.4721400000000  0.4805290000000  0.5600930000000 1.0
C      1  0.4754210000000  0.5080350000000  0.5633780000000 1.0
C      1  0.4773730000000  0.4821140000000  0.4369940000000 1.0
END
