TITL C-1154810-7815-479 0.00083129544234877 125000 -346.309086495102 0 0 60 (C1) n - 1
REM
REM in /home/nfs/bkarasulu/CARBON/AIRSS/Generating-Clusters/AIREBO/Higher-Symm/Only-C60
REM
REM
REM
REM
REM
REM ./C.cell (28575a23ae977d3b5fae324c64b13b57)
REM
REM compiler GCC version 9.2.1 20190827 (Red Hat 9.2.1-1)
REM options -cpp -mtune=generic -march=x86-64 -g -O0 -fpre-include=/usr/include/finclude/math-vector-fortran.h
REM seed -126762777 -1562169197 390234717 -2103114353 823681575 -928837313 382918875 -261148925 -577098019 1976938243 -1115066023 1856823706 1735223847 1652664771 1442280879 640729630 1059811339 1503155252 166966639 1416872803 -359348346 -1863874700 170952214 -618293433 1695603879 -1535564812 -459167486 2428197 -2011458144 789352405 904781681 -2042967582 -1505887752
REM
CELL 1.54180   50.00000   50.00000   50.00000   90.00000   90.00000   90.00000
LATT -1
SFAC C  
C      1  0.4336340000000  0.5175390000000  0.5364470000000 1.0
C      1  0.4645640000000  0.4382040000000  0.5370940000000 1.0
C      1  0.5487980000000  0.4452290000000  0.5454390000000 1.0
C      1  0.5661920000000  0.5258990000000  0.5450960000000 1.0
C      1  0.4962390000000  0.5730850000000  0.5448270000000 1.0
C      1  0.4387590000000  0.4877580000000  0.5357970000000 1.0
C      1  0.4711220000000  0.5540420000000  0.5393370000000 1.0
C      1  0.5415470000000  0.5456000000000  0.5421100000000 1.0
C      1  0.5561020000000  0.4758470000000  0.5420750000000 1.0
C      1  0.4948510000000  0.4394690000000  0.5363630000000 1.0
C      1  0.5237930000000  0.5376350000000  0.5655910000000 1.0
C      1  0.4728940000000  0.5336300000000  0.5618120000000 1.0
C      1  0.4583700000000  0.4831600000000  0.5588460000000 1.0
C      1  0.5024710000000  0.4553440000000  0.5614860000000 1.0
C      1  0.5412060000000  0.4890070000000  0.5653450000000 1.0
C      1  0.5295720000000  0.4595250000000  0.5667270000000 1.0
C      1  0.4707210000000  0.4584290000000  0.5616460000000 1.0
C      1  0.4530730000000  0.5142070000000  0.5618440000000 1.0
C      1  0.4990940000000  0.5504440000000  0.5673170000000 1.0
C      1  0.5466380000000  0.5162030000000  0.5683910000000 1.0
C      1  0.4410110000000  0.5561090000000  0.4395340000000 1.0
C      1  0.4241210000000  0.4616230000000  0.4457360000000 1.0
C      1  0.5127150000000  0.4168530000000  0.4427800000000 1.0
C      1  0.5833080000000  0.4888640000000  0.4395060000000 1.0
C      1  0.5386100000000  0.5766150000000  0.4430380000000 1.0
C      1  0.4413830000000  0.4403310000000  0.4470490000000 1.0
C      1  0.4230830000000  0.5366180000000  0.4472100000000 1.0
C      1  0.5123160000000  0.5844580000000  0.4453020000000 1.0
C      1  0.5846370000000  0.5159830000000  0.4441600000000 1.0
C      1  0.5382030000000  0.4270140000000  0.4422590000000 1.0
C      1  0.5655040000000  0.5299570000000  0.4588320000000 1.0
C      1  0.4927420000000  0.5692770000000  0.4580400000000 1.0
C      1  0.4299320000000  0.5142190000000  0.4622970000000 1.0
C      1  0.4657490000000  0.4402860000000  0.4603640000000 1.0
C      1  0.5463090000000  0.4498350000000  0.4558450000000 1.0
C      1  0.5639380000000  0.4726840000000  0.4504820000000 1.0
C      1  0.4916030000000  0.4275970000000  0.4566780000000 1.0
C      1  0.4270930000000  0.4854170000000  0.4591430000000 1.0
C      1  0.4661630000000  0.5589170000000  0.4504810000000 1.0
C      1  0.5483130000000  0.5530300000000  0.4533560000000 1.0
C      1  0.4515780000000  0.4461090000000  0.5139300000000 1.0
C      1  0.5392220000000  0.4524070000000  0.5148980000000 1.0
C      1  0.5532840000000  0.5182600000000  0.5158590000000 1.0
C      1  0.5019730000000  0.5603730000000  0.5151820000000 1.0
C      1  0.4421120000000  0.5322970000000  0.5149100000000 1.0
C      1  0.4717480000000  0.5464860000000  0.5073880000000 1.0
C      1  0.5292970000000  0.5428260000000  0.5124560000000 1.0
C      1  0.5499230000000  0.4853160000000  0.5117230000000 1.0
C      1  0.5090370000000  0.4414050000000  0.5131840000000 1.0
C      1  0.4401790000000  0.4734300000000  0.5123920000000 1.0
C      1  0.5501900000000  0.4827490000000  0.4778130000000 1.0
C      1  0.5327770000000  0.5406140000000  0.4787890000000 1.0
C      1  0.4729270000000  0.5395010000000  0.4753710000000 1.0
C      1  0.4484380000000  0.4864730000000  0.4840410000000 1.0
C      1  0.4981610000000  0.4461200000000  0.4827650000000 1.0
C      1  0.5526100000000  0.5134090000000  0.4835670000000 1.0
C      1  0.5295310000000  0.4564830000000  0.4830140000000 1.0
C      1  0.4667220000000  0.4579720000000  0.4871690000000 1.0
C      1  0.4505430000000  0.5199810000000  0.4863350000000 1.0
C      1  0.5033740000000  0.5518500000000  0.4835350000000 1.0
END
