TITL C-1154816-9297-276 0.000193319844721565 125000 -328.69024451518 0 0 60 (C1) n - 1
REM
REM in /home/nfs/bkarasulu/CARBON/AIRSS/Generating-Clusters/AIREBO/Higher-Symm/Only-C60
REM
REM
REM
REM
REM
REM ./C.cell (28575a23ae977d3b5fae324c64b13b57)
REM
REM compiler GCC version 9.2.1 20190827 (Red Hat 9.2.1-1)
REM options -cpp -mtune=generic -march=x86-64 -g -O0 -fpre-include=/usr/include/finclude/math-vector-fortran.h
REM seed 2106481129 1820780643 -578394953 1973942645 833221564 486605517 -1377627947 -1629411 -956953773 -921438293 -323212815 575745824 1516973632 264173796 -1802741973 -644929560 608046662 2113154478 2107201344 -1459280702 396217468 1421106689 -1183450500 -532072603 -812097855 1101997919 1447021484 -2025526516 1829308432 1808906978 -1869364134 55016256 -539178484
REM
CELL 1.54180   50.00000   50.00000   50.00000   90.00000   90.00000   90.00000
LATT -1
SFAC C  
C      1  0.4448210000000  0.4579800000000  0.5180210000000 1.0
C      1  0.4889150000000  0.4482400000000  0.4500350000000 1.0
C      1  0.5567480000000  0.4563610000000  0.4820250000000 1.0
C      1  0.5153670000000  0.4579340000000  0.5500280000000 1.0
C      1  0.5510520000000  0.5496490000000  0.5140660000000 1.0
C      1  0.5088960000000  0.5487520000000  0.4405860000000 1.0
C      1  0.4438990000000  0.5448190000000  0.4925180000000 1.0
C      1  0.4999080000000  0.5469950000000  0.5551850000000 1.0
C      1  0.4373380000000  0.4812140000000  0.4719350000000 1.0
C      1  0.5232900000000  0.4844690000000  0.4446240000000 1.0
C      1  0.5629750000000  0.4808800000000  0.5281030000000 1.0
C      1  0.4762470000000  0.4831120000000  0.5544290000000 1.0
C      1  0.5494040000000  0.5061190000000  0.4875820000000 1.0
C      1  0.4688210000000  0.5171210000000  0.4353760000000 1.0
C      1  0.4535870000000  0.5090210000000  0.5089170000000 1.0
C      1  0.5230350000000  0.5027110000000  0.5600560000000 1.0
C      1  0.5244270000000  0.5467970000000  0.4929680000000 1.0
C      1  0.5127520000000  0.5452560000000  0.5245990000000 1.0
C      1  0.4692660000000  0.5448830000000  0.5152290000000 1.0
C      1  0.5006300000000  0.5427550000000  0.4733900000000 1.0
C      1  0.4757660000000  0.4584900000000  0.5061920000000 1.0
C      1  0.5057000000000  0.4655830000000  0.5201400000000 1.0
C      1  0.5263230000000  0.4551560000000  0.4951710000000 1.0
C      1  0.4973890000000  0.4573970000000  0.4819470000000 1.0
C      1  0.5396550000000  0.4820580000000  0.5070590000000 1.0
C      1  0.5017170000000  0.4947010000000  0.5373170000000 1.0
C      1  0.4611120000000  0.4837090000000  0.4924860000000 1.0
C      1  0.4966680000000  0.4846440000000  0.4638680000000 1.0
C      1  0.4772920000000  0.5240240000000  0.4896040000000 1.0
C      1  0.4905980000000  0.5209860000000  0.5266910000000 1.0
C      1  0.5273960000000  0.5181880000000  0.5095660000000 1.0
C      1  0.4949900000000  0.5145230000000  0.4552910000000 1.0
C      1  0.5757770000000  0.4622430000000  0.5024880000000 1.0
C      1  0.4937310000000  0.4589350000000  0.5692010000000 1.0
C      1  0.4258330000000  0.4615040000000  0.4971420000000 1.0
C      1  0.5081880000000  0.4579360000000  0.4305400000000 1.0
C      1  0.4161590000000  0.5425970000000  0.5046220000000 1.0
C      1  0.5130020000000  0.5310150000000  0.5740550000000 1.0
C      1  0.5764690000000  0.5427990000000  0.5018280000000 1.0
C      1  0.4900430000000  0.5397290000000  0.4217460000000 1.0
C      1  0.5400990000000  0.4667430000000  0.5574560000000 1.0
C      1  0.4419740000000  0.4751100000000  0.5395370000000 1.0
C      1  0.4687420000000  0.4731570000000  0.4496650000000 1.0
C      1  0.5584590000000  0.4708590000000  0.4585630000000 1.0
C      1  0.4683610000000  0.5367710000000  0.5481160000000 1.0
C      1  0.5455400000000  0.5261650000000  0.5370710000000 1.0
C      1  0.5264290000000  0.5240000000000  0.4494410000000 1.0
C      1  0.4489190000000  0.5209910000000  0.4711120000000 1.0
C      1  0.5065240000000  0.5036790000000  0.5888850000000 1.0
C      1  0.4227900000000  0.5133430000000  0.5049780000000 1.0
C      1  0.4914330000000  0.5086630000000  0.4117030000000 1.0
C      1  0.5776460000000  0.5150540000000  0.4954910000000 1.0
C      1  0.4863660000000  0.4846060000000  0.5864300000000 1.0
C      1  0.5876800000000  0.4920750000000  0.5087420000000 1.0
C      1  0.5074820000000  0.4871950000000  0.4156420000000 1.0
C      1  0.4128530000000  0.4907390000000  0.4919230000000 1.0
C      1  0.5459660000000  0.5015020000000  0.4579790000000 1.0
C      1  0.4567990000000  0.5056640000000  0.5413870000000 1.0
C      1  0.5538740000000  0.4974920000000  0.5527980000000 1.0
C      1  0.4468770000000  0.4976530000000  0.4464560000000 1.0
END
