TITL C-1154804-8633-510 0.000126596010473452 125000 -322.341204694763 0 0 60 (C1) n - 1
REM
REM in /home/nfs/bkarasulu/CARBON/AIRSS/Generating-Clusters/AIREBO/Higher-Symm/Only-C60
REM
REM
REM
REM
REM
REM ./C.cell (28575a23ae977d3b5fae324c64b13b57)
REM
REM compiler GCC version 9.2.1 20190827 (Red Hat 9.2.1-1)
REM options -cpp -mtune=generic -march=x86-64 -g -O0 -fpre-include=/usr/include/finclude/math-vector-fortran.h
REM seed -985898090 -361064897 1397043813 -939363027 379893473 -1908037012 483215572 -1028131070 921271118 2085719796 1186142379 228705050 1679335203 -926015186 -500996088 667011087 1739115899 1877210409 517467345 1744594731 -1097366928 -1839035528 -288106556 1386884494 -1934363610 2043130064 1905496876 1868018924 394183890 698743086 1018145755 1290636520 88482114
REM
CELL 1.54180   50.00000   50.00000   50.00000   90.00000   90.00000   90.00000
LATT -1
SFAC C  
C      1  0.4777110000000  0.4801190000000  0.4814680000000 1.0
C      1  0.4715730000000  0.5130340000000  0.4754480000000 1.0
C      1  0.5012820000000  0.5260180000000  0.4857290000000 1.0
C      1  0.5265190000000  0.5031660000000  0.4852270000000 1.0
C      1  0.5111450000000  0.4732400000000  0.4801610000000 1.0
C      1  0.4836300000000  0.5203690000000  0.5142810000000 1.0
C      1  0.4765240000000  0.4870700000000  0.5147490000000 1.0
C      1  0.5063960000000  0.4716040000000  0.5198320000000 1.0
C      1  0.5297750000000  0.4971880000000  0.5185620000000 1.0
C      1  0.5152870000000  0.5273770000000  0.5245610000000 1.0
C      1  0.4505450000000  0.4460260000000  0.5085280000000 1.0
C      1  0.4359790000000  0.5315080000000  0.5054960000000 1.0
C      1  0.5067440000000  0.5728690000000  0.5103110000000 1.0
C      1  0.5722540000000  0.5164810000000  0.5084070000000 1.0
C      1  0.5372460000000  0.4358170000000  0.5069050000000 1.0
C      1  0.4519280000000  0.5550130000000  0.4900490000000 1.0
C      1  0.4318960000000  0.4707070000000  0.4915030000000 1.0
C      1  0.5077060000000  0.4260490000000  0.4931950000000 1.0
C      1  0.5717350000000  0.4856210000000  0.4913740000000 1.0
C      1  0.5335660000000  0.5634650000000  0.4949360000000 1.0
C      1  0.4875320000000  0.4765800000000  0.4365830000000 1.0
C      1  0.4736470000000  0.5033760000000  0.4359530000000 1.0
C      1  0.4955600000000  0.5240970000000  0.4369940000000 1.0
C      1  0.5215590000000  0.5105600000000  0.4371860000000 1.0
C      1  0.5169400000000  0.4814310000000  0.4365870000000 1.0
C      1  0.4893390000000  0.5220950000000  0.5629120000000 1.0
C      1  0.4762380000000  0.4958710000000  0.5626460000000 1.0
C      1  0.4971240000000  0.4749850000000  0.5633320000000 1.0
C      1  0.5238040000000  0.4883860000000  0.5633410000000 1.0
C      1  0.5192580000000  0.5182280000000  0.5639350000000 1.0
C      1  0.5420820000000  0.5350180000000  0.5526670000000 1.0
C      1  0.5449800000000  0.4751990000000  0.5482810000000 1.0
C      1  0.4893990000000  0.4507770000000  0.5492250000000 1.0
C      1  0.4527620000000  0.4949400000000  0.5459370000000 1.0
C      1  0.4783350000000  0.5437070000000  0.5462990000000 1.0
C      1  0.5372820000000  0.4664670000000  0.4508430000000 1.0
C      1  0.5410710000000  0.5233170000000  0.4538950000000 1.0
C      1  0.4917760000000  0.5478430000000  0.4536000000000 1.0
C      1  0.4453830000000  0.5035630000000  0.4473410000000 1.0
C      1  0.4782240000000  0.4535100000000  0.4516380000000 1.0
C      1  0.5270080000000  0.5435200000000  0.4719420000000 1.0
C      1  0.5509970000000  0.4852200000000  0.4698550000000 1.0
C      1  0.5000360000000  0.4428460000000  0.4696620000000 1.0
C      1  0.4465890000000  0.4813930000000  0.4677860000000 1.0
C      1  0.4645630000000  0.5448150000000  0.4655530000000 1.0
C      1  0.5334950000000  0.4538990000000  0.5303000000000 1.0
C      1  0.5542640000000  0.5164070000000  0.5322860000000 1.0
C      1  0.5024840000000  0.5571680000000  0.5348470000000 1.0
C      1  0.4525120000000  0.5192900000000  0.5280130000000 1.0
C      1  0.4674940000000  0.4580620000000  0.5300660000000 1.0
C      1  0.4695070000000  0.5513320000000  0.5143290000000 1.0
C      1  0.5392140000000  0.5515160000000  0.5229710000000 1.0
C      1  0.5592300000000  0.4801810000000  0.5178070000000 1.0
C      1  0.4994710000000  0.4382190000000  0.5192630000000 1.0
C      1  0.4426000000000  0.4844360000000  0.5152280000000 1.0
C      1  0.4638210000000  0.4490700000000  0.4821230000000 1.0
C      1  0.5365770000000  0.4505500000000  0.4808900000000 1.0
C      1  0.5553220000000  0.5212800000000  0.4847080000000 1.0
C      1  0.4950250000000  0.5594680000000  0.4854240000000 1.0
C      1  0.4380500000000  0.5186340000000  0.4770310000000 1.0
END
