TITL C-1154825-9328-145 0.0424001061377649 125000 -359.721160179556 0 0 60 (C1) n - 1
REM
REM in /home/nfs/bkarasulu/CARBON/AIRSS/Generating-Clusters/AIREBO/Higher-Symm/Only-C60
REM
REM
REM
REM
REM
REM ./C.cell (28575a23ae977d3b5fae324c64b13b57)
REM
REM compiler GCC version 9.2.1 20190827 (Red Hat 9.2.1-1)
REM options -cpp -mtune=generic -march=x86-64 -g -O0 -fpre-include=/usr/include/finclude/math-vector-fortran.h
REM seed 1979155870 1312703348 -421607339 1538962891 1196742214 1203678228 979899292 1721733306 -2133576600 -1765719210 -272478808 257686269 -945875147 1285636100 304851718 391922158 13441464 -1398208357 271558952 -672211193 560958815 -1949174736 254934990 -1708703875 -121008157 -959490963 1724375796 1524903753 281858252 855734553 -33485858 730946918 1361955634
REM
CELL 1.54180   50.00000   50.00000   50.00000   90.00000   90.00000   90.00000
LATT -1
SFAC C  
C      1  0.4574810000000  0.5005930000000  0.5400300000000 1.0
C      1  0.5185510000000  0.5031380000000  0.5785360000000 1.0
C      1  0.5786440000000  0.5021780000000  0.5253170000000 1.0
C      1  0.5458700000000  0.5029770000000  0.4612460000000 1.0
C      1  0.4792550000000  0.5054190000000  0.4204850000000 1.0
C      1  0.4174100000000  0.5006530000000  0.4630790000000 1.0
C      1  0.5586910000000  0.4972500000000  0.5504320000000 1.0
C      1  0.4887820000000  0.4992110000000  0.5897220000000 1.0
C      1  0.4434830000000  0.4999250000000  0.5159330000000 1.0
C      1  0.4442350000000  0.4981580000000  0.4455330000000 1.0
C      1  0.5102780000000  0.4944710000000  0.4194080000000 1.0
C      1  0.5631950000000  0.5045370000000  0.4846650000000 1.0
C      1  0.5626610000000  0.5272630000000  0.4986060000000 1.0
C      1  0.5134270000000  0.5215220000000  0.4324570000000 1.0
C      1  0.4615960000000  0.5213620000000  0.4522770000000 1.0
C      1  0.4389720000000  0.5240680000000  0.5034890000000 1.0
C      1  0.4853080000000  0.5233970000000  0.5713270000000 1.0
C      1  0.5450570000000  0.5232090000000  0.5568330000000 1.0
C      1  0.4351380000000  0.5267230000000  0.4719100000000 1.0
C      1  0.4842860000000  0.5349140000000  0.4367130000000 1.0
C      1  0.5332200000000  0.5257790000000  0.4513840000000 1.0
C      1  0.5631510000000  0.5318650000000  0.5312210000000 1.0
C      1  0.5153900000000  0.5332820000000  0.5630200000000 1.0
C      1  0.4661390000000  0.5249810000000  0.5510740000000 1.0
C      1  0.5450320000000  0.4674970000000  0.5411770000000 1.0
C      1  0.5528620000000  0.4721250000000  0.4856820000000 1.0
C      1  0.5103160000000  0.4695280000000  0.4409410000000 1.0
C      1  0.4542820000000  0.4668050000000  0.4540880000000 1.0
C      1  0.4391100000000  0.4752950000000  0.5027530000000 1.0
C      1  0.4930470000000  0.4738950000000  0.5689800000000 1.0
C      1  0.4674600000000  0.4769960000000  0.5496630000000 1.0
C      1  0.4313480000000  0.4763940000000  0.4758910000000 1.0
C      1  0.4790110000000  0.4800160000000  0.4385050000000 1.0
C      1  0.5345830000000  0.4763640000000  0.4578190000000 1.0
C      1  0.5610100000000  0.4791990000000  0.5153760000000 1.0
C      1  0.5247370000000  0.4795270000000  0.5613020000000 1.0
C      1  0.4629330000000  0.4391270000000  0.4625990000000 1.0
C      1  0.4527010000000  0.4514130000000  0.5101550000000 1.0
C      1  0.4903360000000  0.4447490000000  0.5521450000000 1.0
C      1  0.5370520000000  0.4392450000000  0.5351970000000 1.0
C      1  0.5461500000000  0.4416010000000  0.4854080000000 1.0
C      1  0.5104220000000  0.4398330000000  0.4479660000000 1.0
C      1  0.5331170000000  0.4323050000000  0.4625050000000 1.0
C      1  0.5467050000000  0.4297680000000  0.5107360000000 1.0
C      1  0.5138920000000  0.4305670000000  0.5482650000000 1.0
C      1  0.4655580000000  0.4509450000000  0.5346790000000 1.0
C      1  0.4552920000000  0.4328430000000  0.4889770000000 1.0
C      1  0.4849550000000  0.4284680000000  0.4491820000000 1.0
C      1  0.4650180000000  0.5702520000000  0.4634860000000 1.0
C      1  0.4521250000000  0.5496960000000  0.5124090000000 1.0
C      1  0.4854830000000  0.5678120000000  0.5454440000000 1.0
C      1  0.5337680000000  0.5722250000000  0.5374420000000 1.0
C      1  0.5480260000000  0.5523740000000  0.4887210000000 1.0
C      1  0.5141350000000  0.5689230000000  0.4551130000000 1.0
C      1  0.5331790000000  0.5505690000000  0.4651410000000 1.0
C      1  0.5493120000000  0.5585880000000  0.5188640000000 1.0
C      1  0.5122680000000  0.5614570000000  0.5518070000000 1.0
C      1  0.4663490000000  0.5491540000000  0.5361970000000 1.0
C      1  0.4506470000000  0.5553000000000  0.4820080000000 1.0
C      1  0.4875590000000  0.5622690000000  0.4486790000000 1.0
END
