TITL C-1154808-8168-431 -0.00335734327182206 125000 -311.191893079912 0 0 60 (C1) n - 1
REM
REM in /home/nfs/bkarasulu/CARBON/AIRSS/Generating-Clusters/AIREBO/Higher-Symm/Only-C60
REM
REM
REM
REM
REM
REM ./C.cell (28575a23ae977d3b5fae324c64b13b57)
REM
REM compiler GCC version 9.2.1 20190827 (Red Hat 9.2.1-1)
REM options -cpp -mtune=generic -march=x86-64 -g -O0 -fpre-include=/usr/include/finclude/math-vector-fortran.h
REM seed 1669713457 -1175410915 8211813 -429673811 2105699546 -1018875224 -109202334 1197350699 1795802223 990045012 -1875554445 -1010785189 1358725725 -1414814952 1734094694 1615851276 -153737810 -881828177 492890302 -934094677 1855342937 1144763385 822842923 888797802 -656076456 1812063692 530551050 78485132 -1382499391 -50135321 -1701510454 631273119 2143858059
REM
CELL 1.54180   50.00000   50.00000   50.00000   90.00000   90.00000   90.00000
LATT -1
SFAC C  
C      1  0.4329180000000  0.4996090000000  0.5354010000000 1.0
C      1  0.4422800000000  0.4754180000000  0.5196800000000 1.0
C      1  0.4376920000000  0.4664730000000  0.4905870000000 1.0
C      1  0.4356830000000  0.4803040000000  0.4658120000000 1.0
C      1  0.4327930000000  0.5141060000000  0.4634980000000 1.0
C      1  0.4336630000000  0.5379880000000  0.4880560000000 1.0
C      1  0.4414530000000  0.5260930000000  0.5189420000000 1.0
C      1  0.5538380000000  0.4498790000000  0.5219260000000 1.0
C      1  0.5502010000000  0.4543340000000  0.4739100000000 1.0
C      1  0.5498240000000  0.4957980000000  0.4418940000000 1.0
C      1  0.5480300000000  0.5370860000000  0.4636080000000 1.0
C      1  0.5593390000000  0.5654020000000  0.5022410000000 1.0
C      1  0.5530530000000  0.5253370000000  0.5483000000000 1.0
C      1  0.5587660000000  0.4826400000000  0.5716090000000 1.0
C      1  0.4984450000000  0.5423810000000  0.5355870000000 1.0
C      1  0.4940610000000  0.4983450000000  0.5540010000000 1.0
C      1  0.4984200000000  0.4584040000000  0.5370480000000 1.0
C      1  0.4963690000000  0.4481970000000  0.4892340000000 1.0
C      1  0.4938250000000  0.4825890000000  0.4502770000000 1.0
C      1  0.4934740000000  0.5271010000000  0.4484600000000 1.0
C      1  0.4953690000000  0.5516390000000  0.4952290000000 1.0
C      1  0.5204220000000  0.4990890000000  0.5354470000000 1.0
C      1  0.5298760000000  0.4699900000000  0.5313420000000 1.0
C      1  0.5241980000000  0.4676910000000  0.4907080000000 1.0
C      1  0.5256470000000  0.4837520000000  0.4625680000000 1.0
C      1  0.5207320000000  0.5167870000000  0.4659850000000 1.0
C      1  0.5189060000000  0.5297050000000  0.4944550000000 1.0
C      1  0.5284970000000  0.5301340000000  0.5252640000000 1.0
C      1  0.4706010000000  0.4593730000000  0.4969370000000 1.0
C      1  0.4652240000000  0.4927710000000  0.4544980000000 1.0
C      1  0.4654780000000  0.5257880000000  0.4626320000000 1.0
C      1  0.4671510000000  0.5416260000000  0.4926880000000 1.0
C      1  0.4736440000000  0.5326310000000  0.5249640000000 1.0
C      1  0.4668150000000  0.5015100000000  0.5373850000000 1.0
C      1  0.4738960000000  0.4694840000000  0.5280610000000 1.0
C      1  0.5142940000000  0.4419300000000  0.4621660000000 1.0
C      1  0.5129970000000  0.4954940000000  0.4268540000000 1.0
C      1  0.5141080000000  0.5527400000000  0.4504160000000 1.0
C      1  0.5194490000000  0.5678640000000  0.5107390000000 1.0
C      1  0.5177160000000  0.5363760000000  0.5629490000000 1.0
C      1  0.5159220000000  0.4763620000000  0.5679650000000 1.0
C      1  0.5181550000000  0.4328570000000  0.5263710000000 1.0
C      1  0.5514080000000  0.5547570000000  0.5302810000000 1.0
C      1  0.5466600000000  0.5071790000000  0.5688080000000 1.0
C      1  0.5499240000000  0.4578480000000  0.5549230000000 1.0
C      1  0.5484500000000  0.4367960000000  0.4980900000000 1.0
C      1  0.5440110000000  0.4621980000000  0.4437150000000 1.0
C      1  0.5458780000000  0.5229370000000  0.4357840000000 1.0
C      1  0.5456670000000  0.5601390000000  0.4791150000000 1.0
C      1  0.5181030000000  0.4237610000000  0.4940710000000 1.0
C      1  0.5117680000000  0.4600890000000  0.4334660000000 1.0
C      1  0.5152230000000  0.5290850000000  0.4223980000000 1.0
C      1  0.5144630000000  0.5732170000000  0.4771750000000 1.0
C      1  0.5222550000000  0.5649550000000  0.5445040000000 1.0
C      1  0.5143360000000  0.5086530000000  0.5792790000000 1.0
C      1  0.5193020000000  0.4436290000000  0.5593270000000 1.0
C      1  0.4705590000000  0.4887520000000  0.4863340000000 1.0
C      1  0.4479620000000  0.5066810000000  0.4930090000000 1.0
C      1  0.5237520000000  0.4972900000000  0.5031710000000 1.0
C      1  0.4968050000000  0.4966700000000  0.4907560000000 1.0
END
