TITL C-1154803-8277-467 -7.03509573949339e-05 125000 -319.987965424624 0 0 60 (C1) n - 1
REM
REM in /home/nfs/bkarasulu/CARBON/AIRSS/Generating-Clusters/AIREBO/Higher-Symm/Only-C60
REM
REM
REM
REM
REM
REM ./C.cell (28575a23ae977d3b5fae324c64b13b57)
REM
REM compiler GCC version 9.2.1 20190827 (Red Hat 9.2.1-1)
REM options -cpp -mtune=generic -march=x86-64 -g -O0 -fpre-include=/usr/include/finclude/math-vector-fortran.h
REM seed 1520849752 654118350 2065509325 250820747 88218291 -1960014373 1524600987 -614968479 -1517619315 1900139750 -1846048404 -1470072156 -860840963 -1516325371 572403299 2086418246 -567886939 -809757815 -1481747462 2067329018 -680755586 1181877061 1358136379 495510079 -1444439519 1438248681 -1719777491 1802431519 1679534288 1165365725 734747693 -1750082025 -1658273137
REM
CELL 1.54180   50.00000   50.00000   50.00000   90.00000   90.00000   90.00000
LATT -1
SFAC C  
C      1  0.5521530000000  0.4953820000000  0.5447310000000 1.0
C      1  0.5572670000000  0.4544530000000  0.5080830000000 1.0
C      1  0.5588720000000  0.4796200000000  0.4523660000000 1.0
C      1  0.5579730000000  0.5356400000000  0.4637890000000 1.0
C      1  0.5471680000000  0.5419550000000  0.5196260000000 1.0
C      1  0.5188670000000  0.5185800000000  0.4389470000000 1.0
C      1  0.5134130000000  0.5471080000000  0.4793460000000 1.0
C      1  0.5040660000000  0.5059950000000  0.5715430000000 1.0
C      1  0.5111550000000  0.4563490000000  0.5425900000000 1.0
C      1  0.5093500000000  0.4293870000000  0.4937770000000 1.0
C      1  0.5271590000000  0.4916690000000  0.4500840000000 1.0
C      1  0.5301750000000  0.5427450000000  0.4540860000000 1.0
C      1  0.5184830000000  0.5540220000000  0.5257900000000 1.0
C      1  0.5225420000000  0.4864450000000  0.5520710000000 1.0
C      1  0.5269640000000  0.4457180000000  0.5152580000000 1.0
C      1  0.4652200000000  0.4574140000000  0.5311330000000 1.0
C      1  0.4848050000000  0.4426750000000  0.4798680000000 1.0
C      1  0.4759750000000  0.5017370000000  0.4429490000000 1.0
C      1  0.4678250000000  0.5554750000000  0.4810730000000 1.0
C      1  0.4945170000000  0.5369440000000  0.5390130000000 1.0
C      1  0.5097390000000  0.4978150000000  0.5226330000000 1.0
C      1  0.5150770000000  0.4749330000000  0.5025510000000 1.0
C      1  0.5099950000000  0.4839400000000  0.4724600000000 1.0
C      1  0.4949900000000  0.5084150000000  0.4869400000000 1.0
C      1  0.5135230000000  0.5271230000000  0.5055620000000 1.0
C      1  0.4289190000000  0.5205980000000  0.5374230000000 1.0
C      1  0.4295350000000  0.5019320000000  0.5640030000000 1.0
C      1  0.4244590000000  0.4681670000000  0.4905040000000 1.0
C      1  0.4331380000000  0.4727700000000  0.4645120000000 1.0
C      1  0.4214470000000  0.5366070000000  0.4850560000000 1.0
C      1  0.5682070000000  0.4743190000000  0.4842150000000 1.0
C      1  0.5589950000000  0.5039080000000  0.4742020000000 1.0
C      1  0.5621390000000  0.5272660000000  0.4949600000000 1.0
C      1  0.5694050000000  0.5175530000000  0.5261100000000 1.0
C      1  0.5622970000000  0.4858980000000  0.5156600000000 1.0
C      1  0.4713280000000  0.4817560000000  0.5085770000000 1.0
C      1  0.4802820000000  0.4718710000000  0.4800400000000 1.0
C      1  0.4686600000000  0.5167120000000  0.4719340000000 1.0
C      1  0.4613900000000  0.5301250000000  0.5023210000000 1.0
C      1  0.4786430000000  0.5115680000000  0.5232570000000 1.0
C      1  0.5318840000000  0.4722170000000  0.5793910000000 1.0
C      1  0.5352410000000  0.4183700000000  0.5284060000000 1.0
C      1  0.5408930000000  0.4692550000000  0.4282310000000 1.0
C      1  0.5308870000000  0.5659720000000  0.4377510000000 1.0
C      1  0.5219910000000  0.5771710000000  0.5412840000000 1.0
C      1  0.4974570000000  0.5916700000000  0.4716050000000 1.0
C      1  0.4938860000000  0.5513230000000  0.5853100000000 1.0
C      1  0.4792080000000  0.4325100000000  0.5689370000000 1.0
C      1  0.4867670000000  0.3901260000000  0.4608570000000 1.0
C      1  0.4845290000000  0.5349020000000  0.4082490000000 1.0
C      1  0.4565920000000  0.5084840000000  0.5473990000000 1.0
C      1  0.4420170000000  0.4670020000000  0.5118180000000 1.0
C      1  0.4592210000000  0.4808440000000  0.4584230000000 1.0
C      1  0.4438180000000  0.5397400000000  0.4678870000000 1.0
C      1  0.4307570000000  0.5292600000000  0.5116510000000 1.0
C      1  0.4920030000000  0.4125650000000  0.4731110000000 1.0
C      1  0.4924890000000  0.5192120000000  0.4285120000000 1.0
C      1  0.4927900000000  0.5658820000000  0.4777820000000 1.0
C      1  0.4968560000000  0.5324070000000  0.5664850000000 1.0
C      1  0.4845950000000  0.4485010000000  0.5478680000000 1.0
END
