TITL C-1154816-9297-113 0.00332612676534035 125000 -342.300588286537 0 0 60 (C1) n - 1
REM
REM in /home/nfs/bkarasulu/CARBON/AIRSS/Generating-Clusters/AIREBO/Higher-Symm/Only-C60
REM
REM
REM
REM
REM
REM ./C.cell (28575a23ae977d3b5fae324c64b13b57)
REM
REM compiler GCC version 9.2.1 20190827 (Red Hat 9.2.1-1)
REM options -cpp -mtune=generic -march=x86-64 -g -O0 -fpre-include=/usr/include/finclude/math-vector-fortran.h
REM seed -1426379650 1609827506 -1711143476 -1342235108 -1698293751 -989283175 -2121341098 338835281 1130432785 -680544586 1278969159 -216970742 -1354158369 1230565203 305323766 -1493545552 1619463356 961728388 1348572631 975741692 -2078385859 780940375 526106181 -1690497355 805329360 -530514714 235685992 1405908699 -1357515612 2057120700 -477209248 -597688378 1736998894
REM
CELL 1.54180   50.00000   50.00000   50.00000   90.00000   90.00000   90.00000
LATT -1
SFAC C  
C      1  0.4515470000000  0.4824650000000  0.5876330000000 1.0
C      1  0.4726380000000  0.5846430000000  0.4536450000000 1.0
C      1  0.5910340000000  0.4499110000000  0.4754180000000 1.0
C      1  0.5310400000000  0.4885700000000  0.4384270000000 1.0
C      1  0.5298160000000  0.5175340000000  0.5714600000000 1.0
C      1  0.4606080000000  0.5123500000000  0.4218270000000 1.0
C      1  0.5157190000000  0.5613390000000  0.5236350000000 1.0
C      1  0.5190980000000  0.4207330000000  0.4581870000000 1.0
C      1  0.4918180000000  0.4498330000000  0.5272260000000 1.0
C      1  0.4308030000000  0.4750510000000  0.5127290000000 1.0
C      1  0.4327530000000  0.5282000000000  0.4875200000000 1.0
C      1  0.5669220000000  0.5206920000000  0.5178380000000 1.0
C      1  0.4537520000000  0.5157610000000  0.5875030000000 1.0
C      1  0.4874990000000  0.4253810000000  0.4505530000000 1.0
C      1  0.5750460000000  0.5245740000000  0.4871140000000 1.0
C      1  0.5337120000000  0.5195260000000  0.4446740000000 1.0
C      1  0.5293910000000  0.4859110000000  0.5774290000000 1.0
C      1  0.4526020000000  0.4812830000000  0.4288470000000 1.0
C      1  0.5222690000000  0.4472020000000  0.5331120000000 1.0
C      1  0.5060140000000  0.5813460000000  0.4497900000000 1.0
C      1  0.4841640000000  0.5648790000000  0.5273250000000 1.0
C      1  0.4250050000000  0.5337680000000  0.5181610000000 1.0
C      1  0.4406380000000  0.4757050000000  0.4813860000000 1.0
C      1  0.5857080000000  0.4454520000000  0.5084290000000 1.0
C      1  0.4817610000000  0.4876470000000  0.5844190000000 1.0
C      1  0.4827090000000  0.5729620000000  0.4808020000000 1.0
C      1  0.5807320000000  0.4775300000000  0.4855930000000 1.0
C      1  0.5153720000000  0.4671960000000  0.4384280000000 1.0
C      1  0.5051300000000  0.5309420000000  0.5696100000000 1.0
C      1  0.4818260000000  0.5216960000000  0.4428850000000 1.0
C      1  0.5280240000000  0.5555680000000  0.4997920000000 1.0
C      1  0.5269160000000  0.4411520000000  0.4809170000000 1.0
C      1  0.4772210000000  0.4521200000000  0.5055750000000 1.0
C      1  0.4310950000000  0.4866290000000  0.5365600000000 1.0
C      1  0.4364290000000  0.5124570000000  0.4664430000000 1.0
C      1  0.5616880000000  0.4968090000000  0.5305680000000 1.0
C      1  0.4839100000000  0.5186330000000  0.5825160000000 1.0
C      1  0.4994520000000  0.4544560000000  0.4659040000000 1.0
C      1  0.5749370000000  0.5009630000000  0.4717960000000 1.0
C      1  0.5107230000000  0.5335750000000  0.4541390000000 1.0
C      1  0.5042440000000  0.4729200000000  0.5762400000000 1.0
C      1  0.4654190000000  0.4959010000000  0.4577740000000 1.0
C      1  0.5383930000000  0.4533230000000  0.5103920000000 1.0
C      1  0.5117800000000  0.5592320000000  0.4753060000000 1.0
C      1  0.4689180000000  0.5662600000000  0.5039670000000 1.0
C      1  0.4290520000000  0.5179120000000  0.5393090000000 1.0
C      1  0.4740160000000  0.4704550000000  0.4771160000000 1.0
C      1  0.5651050000000  0.4723030000000  0.5138180000000 1.0
C      1  0.5594500000000  0.4437680000000  0.4864130000000 1.0
C      1  0.5018080000000  0.4527280000000  0.5572870000000 1.0
C      1  0.4482210000000  0.4509070000000  0.5005770000000 1.0
C      1  0.4442570000000  0.5540910000000  0.5023050000000 1.0
C      1  0.5507860000000  0.5416140000000  0.4996800000000 1.0
C      1  0.4854830000000  0.5541800000000  0.4456980000000 1.0
C      1  0.4321820000000  0.5004970000000  0.5668380000000 1.0
C      1  0.5013690000000  0.5486780000000  0.5493920000000 1.0
C      1  0.5120740000000  0.4379580000000  0.4319370000000 1.0
C      1  0.5587790000000  0.5003880000000  0.4492440000000 1.0
C      1  0.5480550000000  0.4976200000000  0.5536570000000 1.0
C      1  0.4330860000000  0.5068200000000  0.4372330000000 1.0
END
