TITL C-1154829-9094-117 -0.00153215402089025 125000 -365.76253891886 0 0 60 (C1) n - 1
REM
REM in /home/nfs/bkarasulu/CARBON/AIRSS/Generating-Clusters/AIREBO/Higher-Symm/Only-C60
REM
REM
REM
REM
REM
REM ./C.cell (28575a23ae977d3b5fae324c64b13b57)
REM
REM compiler GCC version 9.2.1 20190827 (Red Hat 9.2.1-1)
REM options -cpp -mtune=generic -march=x86-64 -g -O0 -fpre-include=/usr/include/finclude/math-vector-fortran.h
REM seed 781254454 -1999006671 1669213518 541040202 -1308668450 -1064080968 1387483715 1907757596 -2136607753 -1482242015 2027680629 -520467107 194706290 -435148755 819377558 -1078839223 823744007 -653530457 -1849420971 -1763041003 526065176 -993420259 -736674336 -1983277066 -735943658 -1319699210 1386741033 1875226770 -604818422 566607679 -1440577541 -175979612 -602612944
REM
CELL 1.54180   50.00000   50.00000   50.00000   90.00000   90.00000   90.00000
LATT -1
SFAC C  
C      1  0.4928260000000  0.5102780000000  0.5773660000000 1.0
C      1  0.4274980000000  0.5126330000000  0.5118920000000 1.0
C      1  0.4615690000000  0.5147520000000  0.4340110000000 1.0
C      1  0.5459590000000  0.5135760000000  0.4407800000000 1.0
C      1  0.5719240000000  0.5081440000000  0.5347180000000 1.0
C      1  0.4865170000000  0.5105560000000  0.4142840000000 1.0
C      1  0.4227460000000  0.5131280000000  0.4784790000000 1.0
C      1  0.4637900000000  0.5089720000000  0.5686640000000 1.0
C      1  0.5538390000000  0.5106110000000  0.5571010000000 1.0
C      1  0.5648000000000  0.5113550000000  0.4691450000000 1.0
C      1  0.4577170000000  0.4627330000000  0.4908770000000 1.0
C      1  0.5003980000000  0.4838760000000  0.4760930000000 1.0
C      1  0.5437710000000  0.4696820000000  0.4962190000000 1.0
C      1  0.5263180000000  0.4811610000000  0.5384990000000 1.0
C      1  0.4817400000000  0.4709410000000  0.5343070000000 1.0
C      1  0.4604770000000  0.4699600000000  0.5172160000000 1.0
C      1  0.5016880000000  0.4904800000000  0.5308950000000 1.0
C      1  0.5421610000000  0.4646780000000  0.5230850000000 1.0
C      1  0.5254780000000  0.4703130000000  0.4753000000000 1.0
C      1  0.4775550000000  0.4670020000000  0.4716670000000 1.0
C      1  0.4481580000000  0.4876910000000  0.4422700000000 1.0
C      1  0.5321000000000  0.4899770000000  0.4321870000000 1.0
C      1  0.5773340000000  0.4835530000000  0.5213750000000 1.0
C      1  0.5087950000000  0.4868140000000  0.5833680000000 1.0
C      1  0.4349790000000  0.4849250000000  0.5301810000000 1.0
C      1  0.4531730000000  0.4840270000000  0.5590140000000 1.0
C      1  0.5369820000000  0.4851950000000  0.5682850000000 1.0
C      1  0.5714890000000  0.4837270000000  0.4878600000000 1.0
C      1  0.5054060000000  0.4889220000000  0.4197940000000 1.0
C      1  0.4292980000000  0.4890720000000  0.4644200000000 1.0
C      1  0.4735320000000  0.5227420000000  0.4621350000000 1.0
C      1  0.5195640000000  0.5302000000000  0.4657160000000 1.0
C      1  0.5456790000000  0.5374720000000  0.5083530000000 1.0
C      1  0.4978990000000  0.5223220000000  0.5306400000000 1.0
C      1  0.4540040000000  0.5301190000000  0.5052750000000 1.0
C      1  0.4701920000000  0.5323710000000  0.5274330000000 1.0
C      1  0.5265680000000  0.5387920000000  0.5280080000000 1.0
C      1  0.5411040000000  0.5289300000000  0.4827180000000 1.0
C      1  0.4980420000000  0.5122130000000  0.4700080000000 1.0
C      1  0.4555560000000  0.5359930000000  0.4784420000000 1.0
C      1  0.4368760000000  0.5359860000000  0.4353920000000 1.0
C      1  0.5291310000000  0.5387230000000  0.4382650000000 1.0
C      1  0.5722250000000  0.5298290000000  0.5161030000000 1.0
C      1  0.5072990000000  0.5279690000000  0.5609330000000 1.0
C      1  0.4269370000000  0.5279140000000  0.5417830000000 1.0
C      1  0.4544690000000  0.5300000000000  0.5512890000000 1.0
C      1  0.5369390000000  0.5335030000000  0.5567180000000 1.0
C      1  0.5863860000000  0.5249160000000  0.4910690000000 1.0
C      1  0.5240120000000  0.5575120000000  0.4204680000000 1.0
C      1  0.4294780000000  0.5385320000000  0.4636430000000 1.0
C      1  0.4891430000000  0.4654060000000  0.4248580000000 1.0
C      1  0.5676200000000  0.4675930000000  0.4583400000000 1.0
C      1  0.5617050000000  0.4633820000000  0.5658790000000 1.0
C      1  0.4739420000000  0.4624540000000  0.5619400000000 1.0
C      1  0.4306080000000  0.4671590000000  0.4827150000000 1.0
C      1  0.4931100000000  0.4631740000000  0.5826570000000 1.0
C      1  0.5680650000000  0.4595990000000  0.5374980000000 1.0
C      1  0.5394720000000  0.4689120000000  0.4501980000000 1.0
C      1  0.4685580000000  0.4676940000000  0.4447270000000 1.0
C      1  0.4154030000000  0.4698530000000  0.5074430000000 1.0
END
