TITL C-1154808-8168-471 -0.00151778473213712 125000 -319.792836417817 0 0 60 (C1) n - 1
REM
REM in /home/nfs/bkarasulu/CARBON/AIRSS/Generating-Clusters/AIREBO/Higher-Symm/Only-C60
REM
REM
REM
REM
REM
REM ./C.cell (28575a23ae977d3b5fae324c64b13b57)
REM
REM compiler GCC version 9.2.1 20190827 (Red Hat 9.2.1-1)
REM options -cpp -mtune=generic -march=x86-64 -g -O0 -fpre-include=/usr/include/finclude/math-vector-fortran.h
REM seed 449014316 -677974622 -484198087 1214055129 -1504440946 -992326444 262717499 -572339879 2074592847 546329753 -1830628410 -2130763835 1304171767 1341646530 -1957765425 -876017754 1014637148 -1044479027 -1093422552 1813046810 -1584423412 1973593151 -1639088292 -1976926076 701529772 -767925340 1278488257 700576493 -715309767 167745157 133374301 605813020 -502600077
REM
CELL 1.54180   50.00000   50.00000   50.00000   90.00000   90.00000   90.00000
LATT -1
SFAC C  
C      1  0.4796640000000  0.5731780000000  0.5317250000000 1.0
C      1  0.5053390000000  0.5854690000000  0.5334980000000 1.0
C      1  0.5242110000000  0.5787520000000  0.5132290000000 1.0
C      1  0.5181210000000  0.5871080000000  0.4867410000000 1.0
C      1  0.4997380000000  0.5709030000000  0.4724600000000 1.0
C      1  0.4739160000000  0.5682760000000  0.4834130000000 1.0
C      1  0.4658520000000  0.5802720000000  0.5077570000000 1.0
C      1  0.5338780000000  0.4801740000000  0.4968940000000 1.0
C      1  0.5283760000000  0.4887170000000  0.4693630000000 1.0
C      1  0.4991440000000  0.4913590000000  0.4635090000000 1.0
C      1  0.4709060000000  0.4925150000000  0.4812260000000 1.0
C      1  0.4605000000000  0.4820810000000  0.5106580000000 1.0
C      1  0.5014760000000  0.4920340000000  0.5345630000000 1.0
C      1  0.5313240000000  0.4952720000000  0.5220280000000 1.0
C      1  0.4669390000000  0.5380710000000  0.4821380000000 1.0
C      1  0.4560000000000  0.5326010000000  0.5138630000000 1.0
C      1  0.4790220000000  0.5411840000000  0.5381490000000 1.0
C      1  0.5136540000000  0.5373280000000  0.5379490000000 1.0
C      1  0.5321340000000  0.5499460000000  0.5148090000000 1.0
C      1  0.5339130000000  0.5371590000000  0.4858920000000 1.0
C      1  0.5100900000000  0.5425010000000  0.4659260000000 1.0
C      1  0.4988300000000  0.5235320000000  0.4399630000000 1.0
C      1  0.4484160000000  0.5125110000000  0.4694660000000 1.0
C      1  0.4437250000000  0.5037580000000  0.5265520000000 1.0
C      1  0.4869840000000  0.5118350000000  0.5533830000000 1.0
C      1  0.5316130000000  0.5122910000000  0.5523520000000 1.0
C      1  0.5660920000000  0.5086280000000  0.5036280000000 1.0
C      1  0.5498590000000  0.5068290000000  0.4507550000000 1.0
C      1  0.5492330000000  0.5238990000000  0.5260070000000 1.0
C      1  0.5534310000000  0.5179520000000  0.4801910000000 1.0
C      1  0.5312220000000  0.5245760000000  0.4324510000000 1.0
C      1  0.4693810000000  0.5317900000000  0.4487980000000 1.0
C      1  0.4303190000000  0.5278320000000  0.4943140000000 1.0
C      1  0.4515390000000  0.5259160000000  0.5511320000000 1.0
C      1  0.5038390000000  0.5367770000000  0.5691890000000 1.0
C      1  0.4529460000000  0.4527800000000  0.4873740000000 1.0
C      1  0.4705660000000  0.4519640000000  0.5164670000000 1.0
C      1  0.4926850000000  0.4603560000000  0.5409080000000 1.0
C      1  0.5437720000000  0.4530350000000  0.5243700000000 1.0
C      1  0.5302020000000  0.4477440000000  0.4962400000000 1.0
C      1  0.5448230000000  0.4334280000000  0.4728020000000 1.0
C      1  0.4781900000000  0.4556460000000  0.4677690000000 1.0
C      1  0.4271580000000  0.4601350000000  0.5081080000000 1.0
C      1  0.4782470000000  0.4663580000000  0.5685070000000 1.0
C      1  0.5257990000000  0.4616920000000  0.5437590000000 1.0
C      1  0.5711140000000  0.4621140000000  0.5224620000000 1.0
C      1  0.5518800000000  0.4472970000000  0.4499100000000 1.0
C      1  0.4801370000000  0.4638670000000  0.4418110000000 1.0
C      1  0.4289220000000  0.4669450000000  0.4689960000000 1.0
C      1  0.4285940000000  0.4900630000000  0.4587180000000 1.0
C      1  0.4222190000000  0.4806110000000  0.5217810000000 1.0
C      1  0.4748690000000  0.4910290000000  0.5741150000000 1.0
C      1  0.5343460000000  0.4815760000000  0.5604930000000 1.0
C      1  0.5815170000000  0.4866140000000  0.5133090000000 1.0
C      1  0.5495880000000  0.4736330000000  0.4498250000000 1.0
C      1  0.4921550000000  0.4908360000000  0.4333650000000 1.0
C      1  0.4964380000000  0.4926800000000  0.5030800000000 1.0
C      1  0.4995030000000  0.4612220000000  0.4905000000000 1.0
C      1  0.4977580000000  0.4344660000000  0.5114180000000 1.0
C      1  0.4959500000000  0.5224490000000  0.4884820000000 1.0
END
