TITL C-1154828-9214-196 52.0092498058482 125000 -330.071342612466 0 0 60 (C1) n - 1
REM
REM in /home/nfs/bkarasulu/CARBON/AIRSS/Generating-Clusters/AIREBO/Higher-Symm/Only-C60
REM
REM
REM
REM
REM
REM ./C.cell (28575a23ae977d3b5fae324c64b13b57)
REM
REM compiler GCC version 9.2.1 20190827 (Red Hat 9.2.1-1)
REM options -cpp -mtune=generic -march=x86-64 -g -O0 -fpre-include=/usr/include/finclude/math-vector-fortran.h
REM seed -2009039359 -1233843299 -1982147938 -1427388118 -1601256019 -984584929 1299909352 337424462 26714434 774937940 -349250675 -1135947626 -499320456 -407439265 721474121 1044941686 -1490724238 2079127539 -1987249679 155605073 -1520399368 245737169 245032235 1599171167 -942031323 1685524490 -20584159 640006066 -58225873 -618206514 2083609243 -1995461645 -2134541347
REM
CELL 1.54180   50.00000   50.00000   50.00000   90.00000   90.00000   90.00000
LATT -1
SFAC C  
C      1  0.4253540000000  0.5409720000000  0.5497620000000 1.0
C      1  0.5790390000000  0.4793710000000  0.4590350000000 1.0
C      1  0.5478000000000  0.5077620000000  0.4821920000000 1.0
C      1  0.4864790000000  0.4886640000000  0.4763300000000 1.0
C      1  0.4494720000000  0.5293410000000  0.5530580000000 1.0
C      1  0.5639500000000  0.4848580000000  0.4305300000000 1.0
C      1  0.5252170000000  0.5285010000000  0.4175460000000 1.0
C      1  0.4596550000000  0.4885250000000  0.5775380000000 1.0
C      1  0.4689910000000  0.5927420000000  0.5580300000000 1.0
C      1  0.5244360000000  0.4244510000000  0.4324680000000 1.0
C      1  0.4713590000000  0.4643970000000  0.6247690000000 1.0
C      1  0.4758960000000  0.5422710000000  0.4337020000000 1.0
C      1  0.4417730000000  0.5363720000000  0.4954540000000 1.0
C      1  0.5704200000000  0.4060040000000  0.4852940000000 1.0
C      1  0.5667000000000  0.5089430000000  0.5264250000000 1.0
C      1  0.4024010000000  0.4685080000000  0.5003050000000 1.0
C      1  0.4603750000000  0.5639850000000  0.4263290000000 1.0
C      1  0.4781220000000  0.4795470000000  0.6461140000000 1.0
C      1  0.4951540000000  0.5295620000000  0.5662520000000 1.0
C      1  0.4442600000000  0.5828840000000  0.4179610000000 1.0
C      1  0.5366070000000  0.4592510000000  0.5046900000000 1.0
C      1  0.4952220000000  0.5364230000000  0.5033670000000 1.0
C      1  0.3975410000000  0.4989580000000  0.5092390000000 1.0
C      1  0.5864480000000  0.4991490000000  0.5076610000000 1.0
C      1  0.4985860000000  0.5350970000000  0.4188140000000 1.0
C      1  0.4640840000000  0.4767590000000  0.6010150000000 1.0
C      1  0.4699550000000  0.5275930000000  0.4568150000000 1.0
C      1  0.4711810000000  0.4374070000000  0.6263140000000 1.0
C      1  0.4953410000000  0.4965590000000  0.5004530000000 1.0
C      1  0.5269680000000  0.4839740000000  0.4799210000000 1.0
C      1  0.5130400000000  0.5149970000000  0.5195810000000 1.0
C      1  0.5201490000000  0.4696400000000  0.4563460000000 1.0
C      1  0.4988160000000  0.4760870000000  0.4404300000000 1.0
C      1  0.5083410000000  0.5129190000000  0.5495410000000 1.0
C      1  0.4493850000000  0.4838710000000  0.5303920000000 1.0
C      1  0.5463830000000  0.5329960000000  0.4408020000000 1.0
C      1  0.4685130000000  0.4994200000000  0.4575790000000 1.0
C      1  0.5424310000000  0.5125400000000  0.5127860000000 1.0
C      1  0.4822160000000  0.5668850000000  0.4923440000000 1.0
C      1  0.5309280000000  0.3830240000000  0.4966260000000 1.0
C      1  0.4671610000000  0.5392860000000  0.4841560000000 1.0
C      1  0.5435220000000  0.4053010000000  0.4878970000000 1.0
C      1  0.5397950000000  0.5557330000000  0.4835630000000 1.0
C      1  0.4883610000000  0.4505510000000  0.5104730000000 1.0
C      1  0.4728830000000  0.5445480000000  0.5577880000000 1.0
C      1  0.5575720000000  0.4583750000000  0.4480750000000 1.0
C      1  0.5055620000000  0.4356770000000  0.4957620000000 1.0
C      1  0.5176690000000  0.5615790000000  0.5011540000000 1.0
C      1  0.4251540000000  0.4839360000000  0.5177850000000 1.0
C      1  0.5757940000000  0.4951240000000  0.4813780000000 1.0
C      1  0.5455940000000  0.5342180000000  0.4681110000000 1.0
C      1  0.4698120000000  0.4679140000000  0.5195910000000 1.0
C      1  0.4484210000000  0.4862890000000  0.4454440000000 1.0
C      1  0.5715420000000  0.5146870000000  0.5521570000000 1.0
C      1  0.5325570000000  0.4405800000000  0.4538800000000 1.0
C      1  0.4789050000000  0.5704270000000  0.5465260000000 1.0
C      1  0.5284250000000  0.4278530000000  0.4814760000000 1.0
C      1  0.4933860000000  0.5710600000000  0.5229860000000 1.0
C      1  0.4523370000000  0.5005310000000  0.5535490000000 1.0
C      1  0.5465630000000  0.5051240000000  0.4244380000000 1.0
END
