TITL C-1154821-8623-297 0.00408855494481076 125000 -305.453746304913 0 0 60 (C1) n - 1
REM
REM in /home/nfs/bkarasulu/CARBON/AIRSS/Generating-Clusters/AIREBO/Higher-Symm/Only-C60
REM
REM
REM
REM
REM
REM ./C.cell (28575a23ae977d3b5fae324c64b13b57)
REM
REM compiler GCC version 9.2.1 20190827 (Red Hat 9.2.1-1)
REM options -cpp -mtune=generic -march=x86-64 -g -O0 -fpre-include=/usr/include/finclude/math-vector-fortran.h
REM seed -1660032515 -1144521084 246310947 925040115 585585244 -1701549939 141605827 -1521880992 -813665256 -1915151441 71126915 1733420375 -1730567885 1934118659 1496405692 2053726077 -1451959214 679259264 73847287 -1382478491 -327923479 1721789797 -1234185190 -596202160 225397060 -1808106530 -1280349395 -90772272 1491681237 -871726111 -797224974 -1065800627 1739062137
REM
CELL 1.54180   50.00000   50.00000   50.00000   90.00000   90.00000   90.00000
LATT -1
SFAC C  
C      1  0.5358550000000  0.4513300000000  0.4674220000000 1.0
C      1  0.5366030000000  0.5484300000000  0.5279120000000 1.0
C      1  0.5135110000000  0.5605050000000  0.4503180000000 1.0
C      1  0.5255900000000  0.4431510000000  0.5500380000000 1.0
C      1  0.5046920000000  0.5711530000000  0.5348320000000 1.0
C      1  0.4987890000000  0.4377070000000  0.4703080000000 1.0
C      1  0.5021380000000  0.4312450000000  0.5308290000000 1.0
C      1  0.4947270000000  0.5848760000000  0.4842840000000 1.0
C      1  0.4329160000000  0.4677460000000  0.4712160000000 1.0
C      1  0.4625530000000  0.5138700000000  0.5240880000000 1.0
C      1  0.4618160000000  0.5160400000000  0.4765300000000 1.0
C      1  0.4500350000000  0.4767350000000  0.5163180000000 1.0
C      1  0.5309540000000  0.4751170000000  0.5487860000000 1.0
C      1  0.5358040000000  0.5173000000000  0.4589240000000 1.0
C      1  0.5393200000000  0.5166430000000  0.5366110000000 1.0
C      1  0.5482310000000  0.4880200000000  0.4773540000000 1.0
C      1  0.4655640000000  0.5487200000000  0.4678660000000 1.0
C      1  0.4682640000000  0.4523040000000  0.5308640000000 1.0
C      1  0.4621360000000  0.4537200000000  0.4808380000000 1.0
C      1  0.4814920000000  0.5418460000000  0.5207850000000 1.0
C      1  0.5660840000000  0.4806950000000  0.4519570000000 1.0
C      1  0.5511670000000  0.5124840000000  0.5645610000000 1.0
C      1  0.5550090000000  0.5030240000000  0.4405690000000 1.0
C      1  0.5456860000000  0.4885740000000  0.5719360000000 1.0
C      1  0.5076500000000  0.5400300000000  0.5424290000000 1.0
C      1  0.5077000000000  0.4663210000000  0.4556340000000 1.0
C      1  0.4949630000000  0.4578730000000  0.5512250000000 1.0
C      1  0.4893820000000  0.5695660000000  0.4620310000000 1.0
C      1  0.5596050000000  0.4769450000000  0.5049780000000 1.0
C      1  0.5547010000000  0.5263640000000  0.5093320000000 1.0
C      1  0.5318910000000  0.5464820000000  0.4649770000000 1.0
C      1  0.5484630000000  0.4559100000000  0.5282140000000 1.0
C      1  0.5174140000000  0.4876690000000  0.4779350000000 1.0
C      1  0.5133950000000  0.4962220000000  0.5307070000000 1.0
C      1  0.5046090000000  0.5180880000000  0.4718220000000 1.0
C      1  0.5017730000000  0.4833230000000  0.5043040000000 1.0
C      1  0.4842960000000  0.4856030000000  0.5667850000000 1.0
C      1  0.4828130000000  0.5102330000000  0.4504220000000 1.0
C      1  0.4882460000000  0.5124490000000  0.5468520000000 1.0
C      1  0.4839300000000  0.4779320000000  0.4422460000000 1.0
C      1  0.4581070000000  0.4721810000000  0.5550850000000 1.0
C      1  0.4417670000000  0.5537630000000  0.4494890000000 1.0
C      1  0.4696280000000  0.5402160000000  0.5531430000000 1.0
C      1  0.4598030000000  0.4636830000000  0.4507910000000 1.0
C      1  0.5096160000000  0.4366630000000  0.5009820000000 1.0
C      1  0.5092480000000  0.5652070000000  0.5041480000000 1.0
C      1  0.4396850000000  0.5244710000000  0.5012620000000 1.0
C      1  0.4250830000000  0.4805950000000  0.4985410000000 1.0
C      1  0.4825360000000  0.4552610000000  0.5023510000000 1.0
C      1  0.4905150000000  0.5406440000000  0.4895380000000 1.0
C      1  0.4410890000000  0.4955690000000  0.5431070000000 1.0
C      1  0.4384430000000  0.4981940000000  0.4594640000000 1.0
C      1  0.4834810000000  0.5029000000000  0.4190730000000 1.0
C      1  0.4872500000000  0.4894070000000  0.5964570000000 1.0
C      1  0.5382020000000  0.5522410000000  0.4941630000000 1.0
C      1  0.5379330000000  0.4515810000000  0.4970970000000 1.0
C      1  0.5738930000000  0.5049870000000  0.5028140000000 1.0
C      1  0.4730980000000  0.4938950000000  0.4997370000000 1.0
C      1  0.5991630000000  0.5079030000000  0.4972900000000 1.0
C      1  0.4176870000000  0.5072810000000  0.4996970000000 1.0
END
