TITL C-1154830-9999-366 0.00170829593207095 125000 -315.158137221316 0 0 60 (C3) n - 1
REM
REM in /home/nfs/bkarasulu/CARBON/AIRSS/Generating-Clusters/AIREBO/Higher-Symm/Only-C60
REM
REM
REM
REM
REM
REM ./C.cell (28575a23ae977d3b5fae324c64b13b57)
REM
REM compiler GCC version 9.2.1 20190827 (Red Hat 9.2.1-1)
REM options -cpp -mtune=generic -march=x86-64 -g -O0 -fpre-include=/usr/include/finclude/math-vector-fortran.h
REM seed 538641393 1626123026 1034235166 -353610613 -1586441962 2060577127 -1399021268 -389831387 -412369472 -461890893 861559951 -771684078 706963553 1047459955 785757318 1852732095 1487503593 590067111 972654256 1647874924 1767762942 1922339829 -1417223859 80991000 -2109466032 1385527211 319742554 1157213402 1248228494 -359066188 -962690658 -113574064 -905245358
REM
CELL 1.54180   50.00000   50.00000   50.00000   90.00000   90.00000   90.00000
LATT -1
SFAC C  
C      1  0.4568450000000  0.4641370000000  0.4932810000000 1.0
C      1  0.5526330000000  0.4805350000000  0.4932420000000 1.0
C      1  0.4905320000000  0.5553010000000  0.4932320000000 1.0
C      1  0.4540110000000  0.4981960000000  0.4610620000000 1.0
C      1  0.5245420000000  0.4610730000000  0.4610250000000 1.0
C      1  0.5214130000000  0.5407240000000  0.4610110000000 1.0
C      1  0.4307750000000  0.5215540000000  0.5131680000000 1.0
C      1  0.5159420000000  0.4292590000000  0.5131920000000 1.0
C      1  0.5532850000000  0.5491630000000  0.5131610000000 1.0
C      1  0.5366830000000  0.4940620000000  0.4419690000000 1.0
C      1  0.4867610000000  0.5347640000000  0.4419690000000 1.0
C      1  0.4765000000000  0.4711760000000  0.4420100000000 1.0
C      1  0.4703980000000  0.5229760000000  0.5100450000000 1.0
C      1  0.4949000000000  0.4628640000000  0.5100700000000 1.0
C      1  0.5347060000000  0.5141360000000  0.5100340000000 1.0
C      1  0.4409920000000  0.5443150000000  0.5266160000000 1.0
C      1  0.4911340000000  0.4267410000000  0.5266730000000 1.0
C      1  0.5678810000000  0.5289340000000  0.5266210000000 1.0
C      1  0.4956980000000  0.4690750000000  0.5417540000000 1.0
C      1  0.5289550000000  0.5117370000000  0.5417250000000 1.0
C      1  0.4753790000000  0.5192110000000  0.5417340000000 1.0
C      1  0.5494930000000  0.5221660000000  0.4561870000000 1.0
C      1  0.4560300000000  0.5318550000000  0.4562240000000 1.0
C      1  0.4944340000000  0.4460240000000  0.4562170000000 1.0
C      1  0.5547680000000  0.4742970000000  0.4630130000000 1.0
C      1  0.4948690000000  0.5602940000000  0.4630170000000 1.0
C      1  0.4503520000000  0.4654050000000  0.4630700000000 1.0
C      1  0.4889500000000  0.4838120000000  0.5782460000000 1.0
C      1  0.5195920000000  0.4985450000000  0.5782310000000 1.0
C      1  0.4915140000000  0.5177180000000  0.5782280000000 1.0
C      1  0.4948320000000  0.5177750000000  0.4207510000000 1.0
C      1  0.4871420000000  0.4866590000000  0.4207700000000 1.0
C      1  0.5179340000000  0.4955550000000  0.4207450000000 1.0
C      1  0.4732650000000  0.5542140000000  0.5225080000000 1.0
C      1  0.4664230000000  0.4497380000000  0.5225620000000 1.0
C      1  0.5603210000000  0.4960340000000  0.5225190000000 1.0
C      1  0.4814410000000  0.4524910000000  0.5678770000000 1.0
C      1  0.5504650000000  0.5076910000000  0.5678330000000 1.0
C      1  0.4681450000000  0.5398740000000  0.5678380000000 1.0
C      1  0.5323390000000  0.5656910000000  0.5237260000000 1.0
C      1  0.4269410000000  0.4951590000000  0.5237590000000 1.0
C      1  0.5407350000000  0.4391330000000  0.5237440000000 1.0
C      1  0.5225970000000  0.4804130000000  0.5496920000000 1.0
C      1  0.5056930000000  0.5293680000000  0.5496730000000 1.0
C      1  0.4717500000000  0.4902530000000  0.5496990000000 1.0
C      1  0.5225540000000  0.4772480000000  0.5007160000000 1.0
C      1  0.5084140000000  0.5308930000000  0.5006890000000 1.0
C      1  0.4690370000000  0.4918280000000  0.5007210000000 1.0
C      1  0.4626300000000  0.4377820000000  0.4475010000000 1.0
C      1  0.5725370000000  0.4987580000000  0.4474530000000 1.0
C      1  0.4648020000000  0.5634940000000  0.4474640000000 1.0
C      1  0.4410930000000  0.4725750000000  0.5217550000000 1.0
C      1  0.5532200000000  0.4626770000000  0.5217200000000 1.0
C      1  0.5057070000000  0.5647310000000  0.5217050000000 1.0
C      1  0.5040310000000  0.4817690000000  0.4748010000000 1.0
C      1  0.5137770000000  0.5125850000000  0.4747670000000 1.0
C      1  0.4822200000000  0.5056130000000  0.4748000000000 1.0
C      1  0.4468970000000  0.5208680000000  0.4853890000000 1.0
C      1  0.5084430000000  0.4435490000000  0.4854120000000 1.0
C      1  0.5446520000000  0.5355350000000  0.4853840000000 1.0
END
