TITL C-1154801-8518-457 -0.000309416755484986 125000 -333.872680955455 0 0 60 (C1) n - 1
REM
REM in /home/nfs/bkarasulu/CARBON/AIRSS/Generating-Clusters/AIREBO/Higher-Symm/Only-C60
REM
REM
REM
REM
REM
REM ./C.cell (28575a23ae977d3b5fae324c64b13b57)
REM
REM compiler GCC version 9.2.1 20190827 (Red Hat 9.2.1-1)
REM options -cpp -mtune=generic -march=x86-64 -g -O0 -fpre-include=/usr/include/finclude/math-vector-fortran.h
REM seed -1550171872 336446543 183640563 -913172493 -2038165953 694409614 -350816191 -1315385362 1298486369 -1245871708 -660790253 908658763 1095195139 -515463190 -166538876 -641864986 -1523095429 -703499925 -1900431115 -381692558 -588909574 1799221050 1472389027 -420403595 -98333598 627702194 111515410 -4447736 -891730568 1529809779 -1203712355 901374545 2142270092
REM
CELL 1.54180   50.00000   50.00000   50.00000   90.00000   90.00000   90.00000
LATT -1
SFAC C  
C      1  0.4754960000000  0.5218320000000  0.5034790000000 1.0
C      1  0.5179120000000  0.4690040000000  0.5052010000000 1.0
C      1  0.4786510000000  0.4730750000000  0.5028830000000 1.0
C      1  0.5186270000000  0.5296270000000  0.5031010000000 1.0
C      1  0.4695450000000  0.5623630000000  0.4751610000000 1.0
C      1  0.5362290000000  0.4281940000000  0.4768910000000 1.0
C      1  0.4602670000000  0.4371710000000  0.4737250000000 1.0
C      1  0.5268330000000  0.5696290000000  0.4789350000000 1.0
C      1  0.5403730000000  0.5573860000000  0.5510940000000 1.0
C      1  0.4743680000000  0.4620700000000  0.5410820000000 1.0
C      1  0.5287580000000  0.4617200000000  0.5428910000000 1.0
C      1  0.4601490000000  0.5546400000000  0.5482290000000 1.0
C      1  0.4662310000000  0.5389120000000  0.4612390000000 1.0
C      1  0.5366250000000  0.4508380000000  0.4597470000000 1.0
C      1  0.4612430000000  0.4613780000000  0.4607400000000 1.0
C      1  0.5323340000000  0.5479590000000  0.4635950000000 1.0
C      1  0.4727400000000  0.5327730000000  0.5605700000000 1.0
C      1  0.5279070000000  0.4855860000000  0.5577950000000 1.0
C      1  0.4736960000000  0.4849680000000  0.5579490000000 1.0
C      1  0.5286080000000  0.5337600000000  0.5599770000000 1.0
C      1  0.5118180000000  0.4553490000000  0.4461110000000 1.0
C      1  0.4895690000000  0.5290170000000  0.4507920000000 1.0
C      1  0.5133330000000  0.5422270000000  0.4437930000000 1.0
C      1  0.4865010000000  0.4680820000000  0.4520390000000 1.0
C      1  0.5440350000000  0.5239320000000  0.4812120000000 1.0
C      1  0.4398030000000  0.4837630000000  0.4747260000000 1.0
C      1  0.5537460000000  0.4719800000000  0.4704990000000 1.0
C      1  0.4512500000000  0.5152660000000  0.4805490000000 1.0
C      1  0.5473950000000  0.4491000000000  0.5234450000000 1.0
C      1  0.4551350000000  0.5516920000000  0.5206070000000 1.0
C      1  0.5425190000000  0.5595260000000  0.5230260000000 1.0
C      1  0.4524640000000  0.4495980000000  0.5239860000000 1.0
C      1  0.4809610000000  0.5549130000000  0.5032370000000 1.0
C      1  0.5244450000000  0.4356230000000  0.5042430000000 1.0
C      1  0.4735870000000  0.4394840000000  0.5014460000000 1.0
C      1  0.5126570000000  0.5626860000000  0.5084680000000 1.0
C      1  0.4509590000000  0.5120970000000  0.5249070000000 1.0
C      1  0.5437850000000  0.4849090000000  0.5068330000000 1.0
C      1  0.4559370000000  0.4867530000000  0.5107320000000 1.0
C      1  0.5421200000000  0.5107930000000  0.5189000000000 1.0
C      1  0.5569700000000  0.5383900000000  0.5092430000000 1.0
C      1  0.4322320000000  0.4685320000000  0.5042220000000 1.0
C      1  0.5659010000000  0.4648390000000  0.4996570000000 1.0
C      1  0.4348810000000  0.5337920000000  0.5046120000000 1.0
C      1  0.5391440000000  0.5087830000000  0.5484110000000 1.0
C      1  0.4594050000000  0.5081750000000  0.5529140000000 1.0
C      1  0.4558180000000  0.5004020000000  0.4497700000000 1.0
C      1  0.5470280000000  0.4987870000000  0.4635530000000 1.0
C      1  0.5072160000000  0.5921480000000  0.5153860000000 1.0
C      1  0.4973830000000  0.4225200000000  0.5104850000000 1.0
C      1  0.5007470000000  0.4568230000000  0.5319140000000 1.0
C      1  0.5006590000000  0.5185810000000  0.5528570000000 1.0
C      1  0.4706320000000  0.5010000000000  0.4280800000000 1.0
C      1  0.5269390000000  0.4996160000000  0.4444100000000 1.0
C      1  0.5008700000000  0.4911630000000  0.5731840000000 1.0
C      1  0.4961310000000  0.4986560000000  0.4587710000000 1.0
C      1  0.5005640000000  0.5072170000000  0.5212200000000 1.0
C      1  0.5009980000000  0.4886580000000  0.6006820000000 1.0
C      1  0.4999540000000  0.4944340000000  0.4251270000000 1.0
C      1  0.5003600000000  0.4937800000000  0.4899730000000 1.0
END
