TITL C-1154808-8168-156 -0.00312765790215444 125000 -352.901646891289 0 0 60 (C1) n - 1
REM
REM in /home/nfs/bkarasulu/CARBON/AIRSS/Generating-Clusters/AIREBO/Higher-Symm/Only-C60
REM
REM
REM
REM
REM
REM ./C.cell (28575a23ae977d3b5fae324c64b13b57)
REM
REM compiler GCC version 9.2.1 20190827 (Red Hat 9.2.1-1)
REM options -cpp -mtune=generic -march=x86-64 -g -O0 -fpre-include=/usr/include/finclude/math-vector-fortran.h
REM seed -1882456338 1493866250 841244441 429132580 -86802391 2123295340 -51376214 -1677493851 1380032522 1431433565 -505826629 522831971 -530072079 -672682057 788320516 -1362555256 208404153 -1359846848 -1334163196 805337307 1595273849 -1138118412 1731503088 -644474255 -859887496 123546399 770672228 -52031436 1530324117 390767433 -1661202170 -1731203978 644382302
REM
CELL 1.54180   50.00000   50.00000   50.00000   90.00000   90.00000   90.00000
LATT -1
SFAC C  
C      1  0.4586890000000  0.4960100000000  0.5004720000000 1.0
C      1  0.4889400000000  0.5354810000000  0.4924480000000 1.0
C      1  0.5363620000000  0.5235900000000  0.4993770000000 1.0
C      1  0.5385820000000  0.4721300000000  0.4855340000000 1.0
C      1  0.4801480000000  0.4709300000000  0.5028330000000 1.0
C      1  0.5509660000000  0.4972060000000  0.4986660000000 1.0
C      1  0.5179180000000  0.5351030000000  0.4808780000000 1.0
C      1  0.4630090000000  0.5214990000000  0.4871500000000 1.0
C      1  0.4570330000000  0.4724580000000  0.4795770000000 1.0
C      1  0.5076210000000  0.4666410000000  0.4939020000000 1.0
C      1  0.5770160000000  0.4628450000000  0.5033360000000 1.0
C      1  0.4839360000000  0.4308140000000  0.4988870000000 1.0
C      1  0.4205930000000  0.4911970000000  0.4887310000000 1.0
C      1  0.4666300000000  0.5657800000000  0.5054500000000 1.0
C      1  0.5572430000000  0.5573750000000  0.4964100000000 1.0
C      1  0.4256910000000  0.4636410000000  0.5022680000000 1.0
C      1  0.5108020000000  0.4265110000000  0.5009430000000 1.0
C      1  0.5873050000000  0.4837070000000  0.4891610000000 1.0
C      1  0.5312150000000  0.5725860000000  0.4990890000000 1.0
C      1  0.4433660000000  0.5485850000000  0.5087440000000 1.0
C      1  0.5337810000000  0.4794380000000  0.4545620000000 1.0
C      1  0.4816990000000  0.4545370000000  0.4539890000000 1.0
C      1  0.4496080000000  0.5046220000000  0.4479110000000 1.0
C      1  0.4855040000000  0.5440890000000  0.4595480000000 1.0
C      1  0.5456770000000  0.5308040000000  0.4525210000000 1.0
C      1  0.4643440000000  0.4806300000000  0.4507450000000 1.0
C      1  0.5082740000000  0.4633760000000  0.4613710000000 1.0
C      1  0.5496740000000  0.5012150000000  0.4485760000000 1.0
C      1  0.5176600000000  0.5429280000000  0.4485570000000 1.0
C      1  0.4651710000000  0.5279640000000  0.4424350000000 1.0
C      1  0.4297330000000  0.5092900000000  0.4688440000000 1.0
C      1  0.4794730000000  0.5716690000000  0.4789820000000 1.0
C      1  0.5639010000000  0.5419080000000  0.4745360000000 1.0
C      1  0.5549090000000  0.4459800000000  0.4902150000000 1.0
C      1  0.4692380000000  0.4349930000000  0.4744250000000 1.0
C      1  0.5706960000000  0.5091380000000  0.4748680000000 1.0
C      1  0.5104500000000  0.5682030000000  0.4786880000000 1.0
C      1  0.4352480000000  0.5368770000000  0.4814250000000 1.0
C      1  0.4394560000000  0.4439940000000  0.4819460000000 1.0
C      1  0.5389700000000  0.4229570000000  0.4911590000000 1.0
C      1  0.4645740000000  0.4735600000000  0.5533830000000 1.0
C      1  0.4626960000000  0.5241970000000  0.5497280000000 1.0
C      1  0.5112630000000  0.5340350000000  0.5609100000000 1.0
C      1  0.5465270000000  0.5024660000000  0.5506160000000 1.0
C      1  0.5173990000000  0.4587800000000  0.5459710000000 1.0
C      1  0.5406720000000  0.4730360000000  0.5575350000000 1.0
C      1  0.5365770000000  0.5279870000000  0.5496600000000 1.0
C      1  0.4868350000000  0.5373000000000  0.5470900000000 1.0
C      1  0.4617770000000  0.4995310000000  0.5639790000000 1.0
C      1  0.4902710000000  0.4572590000000  0.5505620000000 1.0
C      1  0.4909150000000  0.5526500000000  0.5217350000000 1.0
C      1  0.5424240000000  0.5430320000000  0.5235410000000 1.0
C      1  0.5543720000000  0.4581250000000  0.5282660000000 1.0
C      1  0.4724760000000  0.4478840000000  0.5241350000000 1.0
C      1  0.4325700000000  0.4989040000000  0.5196200000000 1.0
C      1  0.5181630000000  0.5660220000000  0.5247680000000 1.0
C      1  0.4434610000000  0.5274230000000  0.5290970000000 1.0
C      1  0.4463510000000  0.4687980000000  0.5269390000000 1.0
C      1  0.5254000000000  0.4504720000000  0.5167990000000 1.0
C      1  0.5587440000000  0.4898370000000  0.5265100000000 1.0
END
