TITL C-1154828-9214-170 -0.000755505471788616 125000 -296.575233018261 0 0 60 (C1) n - 1
REM
REM in /home/nfs/bkarasulu/CARBON/AIRSS/Generating-Clusters/AIREBO/Higher-Symm/Only-C60
REM
REM
REM
REM
REM
REM ./C.cell (28575a23ae977d3b5fae324c64b13b57)
REM
REM compiler GCC version 9.2.1 20190827 (Red Hat 9.2.1-1)
REM options -cpp -mtune=generic -march=x86-64 -g -O0 -fpre-include=/usr/include/finclude/math-vector-fortran.h
REM seed -762979696 1114696852 1714532553 519530036 -764891668 674935753 -1433934480 221935358 -1790406098 811614291 -162976829 1384488494 624219832 -1173959832 -1143090154 310396729 1568668354 -1476890818 -1718348603 -1662229296 -1672587415 -500414191 1661460389 35679399 -867132218 -43179376 1457248973 -1690509287 77951086 1772976496 -1849213820 320343782 -1074923932
REM
CELL 1.54180   50.00000   50.00000   50.00000   90.00000   90.00000   90.00000
LATT -1
SFAC C  
C      1  0.5273010000000  0.4148480000000  0.5339340000000 1.0
C      1  0.5191650000000  0.4405210000000  0.4675570000000 1.0
C      1  0.5112130000000  0.4861080000000  0.4236890000000 1.0
C      1  0.5098160000000  0.5510310000000  0.4393300000000 1.0
C      1  0.5300360000000  0.5698040000000  0.5023690000000 1.0
C      1  0.5159750000000  0.5379350000000  0.5685230000000 1.0
C      1  0.5356680000000  0.4659290000000  0.5747280000000 1.0
C      1  0.5500020000000  0.5259930000000  0.5282910000000 1.0
C      1  0.5447590000000  0.4914290000000  0.5278200000000 1.0
C      1  0.5550490000000  0.4607120000000  0.5246300000000 1.0
C      1  0.5532540000000  0.4734430000000  0.4931500000000 1.0
C      1  0.5465050000000  0.4917930000000  0.4651940000000 1.0
C      1  0.5469010000000  0.5226090000000  0.4642230000000 1.0
C      1  0.5423230000000  0.5295230000000  0.4952990000000 1.0
C      1  0.4905140000000  0.4403390000000  0.4679530000000 1.0
C      1  0.4827370000000  0.4890030000000  0.4266070000000 1.0
C      1  0.4813140000000  0.5510040000000  0.4437470000000 1.0
C      1  0.4858860000000  0.5743420000000  0.5050570000000 1.0
C      1  0.4831820000000  0.5431740000000  0.5612270000000 1.0
C      1  0.4732930000000  0.4807540000000  0.5619130000000 1.0
C      1  0.4698190000000  0.4339800000000  0.5250290000000 1.0
C      1  0.5378110000000  0.5180940000000  0.5581370000000 1.0
C      1  0.5349410000000  0.4507290000000  0.5493970000000 1.0
C      1  0.5446620000000  0.4292790000000  0.5168650000000 1.0
C      1  0.5479650000000  0.4576490000000  0.4635070000000 1.0
C      1  0.5265890000000  0.5076440000000  0.4121870000000 1.0
C      1  0.5399110000000  0.5535100000000  0.4509920000000 1.0
C      1  0.5365820000000  0.5561150000000  0.5245470000000 1.0
C      1  0.4920020000000  0.5384980000000  0.4800030000000 1.0
C      1  0.4770630000000  0.5424630000000  0.5103040000000 1.0
C      1  0.4901740000000  0.5185070000000  0.5305680000000 1.0
C      1  0.5045050000000  0.4876650000000  0.5308530000000 1.0
C      1  0.4998310000000  0.4580460000000  0.5147980000000 1.0
C      1  0.4964120000000  0.4816270000000  0.4666140000000 1.0
C      1  0.4910030000000  0.5137230000000  0.4567340000000 1.0
C      1  0.4841780000000  0.4351390000000  0.4951240000000 1.0
C      1  0.4757380000000  0.4628760000000  0.4471720000000 1.0
C      1  0.4728350000000  0.5214510000000  0.4290450000000 1.0
C      1  0.4758600000000  0.5675880000000  0.4729340000000 1.0
C      1  0.4785330000000  0.5627170000000  0.5372210000000 1.0
C      1  0.4793430000000  0.5092990000000  0.5614640000000 1.0
C      1  0.4786420000000  0.4549220000000  0.5503240000000 1.0
C      1  0.5142390000000  0.5417630000000  0.5367840000000 1.0
C      1  0.5268420000000  0.4894350000000  0.5547270000000 1.0
C      1  0.5057720000000  0.4380980000000  0.5416840000000 1.0
C      1  0.5282940000000  0.4500010000000  0.4973600000000 1.0
C      1  0.5228570000000  0.4759840000000  0.4497430000000 1.0
C      1  0.5211070000000  0.5201140000000  0.4422100000000 1.0
C      1  0.5219310000000  0.5498790000000  0.4792310000000 1.0
C      1  0.4595770000000  0.5289960000000  0.4761630000000 1.0
C      1  0.4443040000000  0.5360890000000  0.5064040000000 1.0
C      1  0.4563960000000  0.5138580000000  0.5291140000000 1.0
C      1  0.4491900000000  0.4844490000000  0.5268320000000 1.0
C      1  0.4673570000000  0.4673700000000  0.5108580000000 1.0
C      1  0.4670440000000  0.4705640000000  0.4797260000000 1.0
C      1  0.4606970000000  0.4984540000000  0.4612620000000 1.0
C      1  0.5286700000000  0.5032100000000  0.5035750000000 1.0
C      1  0.4344250000000  0.5064560000000  0.4968800000000 1.0
C      1  0.4684420000000  0.5053440000000  0.4989090000000 1.0
C      1  0.4980650000000  0.4943000000000  0.4981270000000 1.0
END
