TITL C-1154823-9327-130 0.00162263928116809 125000 -284.257178775716 0 0 60 (C1) n - 1
REM
REM in /home/nfs/bkarasulu/CARBON/AIRSS/Generating-Clusters/AIREBO/Higher-Symm/Only-C60
REM
REM
REM
REM
REM
REM ./C.cell (28575a23ae977d3b5fae324c64b13b57)
REM
REM compiler GCC version 9.2.1 20190827 (Red Hat 9.2.1-1)
REM options -cpp -mtune=generic -march=x86-64 -g -O0 -fpre-include=/usr/include/finclude/math-vector-fortran.h
REM seed -742676097 -28329119 -1966921185 1309529748 800168817 -1971402490 1240907920 -1851005436 -297867831 -1552653912 -2127602643 528530255 13123323 380716790 -308944630 934067636 -840131771 -1127189593 -1718919221 665387276 216592578 2060888021 714260949 -2065957597 1133260806 -2041167856 -1438436618 773095646 -1652381459 1486315741 261585472 1052499465 -544616102
REM
CELL 1.54180   50.00000   50.00000   50.00000   90.00000   90.00000   90.00000
LATT -1
SFAC C  
C      1  0.5549790000000  0.5207580000000  0.4765720000000 1.0
C      1  0.5549850000000  0.5298320000000  0.5063270000000 1.0
C      1  0.5554080000000  0.5094920000000  0.5298940000000 1.0
C      1  0.5549220000000  0.4793080000000  0.5235930000000 1.0
C      1  0.5552010000000  0.4702050000000  0.4939210000000 1.0
C      1  0.5554140000000  0.4904740000000  0.4703920000000 1.0
C      1  0.4946350000000  0.5670680000000  0.4940240000000 1.0
C      1  0.4954250000000  0.5387940000000  0.5559860000000 1.0
C      1  0.4939180000000  0.4710880000000  0.5623730000000 1.0
C      1  0.4949370000000  0.4329110000000  0.5057530000000 1.0
C      1  0.4951940000000  0.4612140000000  0.4439360000000 1.0
C      1  0.4939300000000  0.5289620000000  0.4377020000000 1.0
C      1  0.5014420000000  0.4883230000000  0.5287470000000 1.0
C      1  0.5005840000000  0.4713630000000  0.5040440000000 1.0
C      1  0.5018010000000  0.4819920000000  0.4764700000000 1.0
C      1  0.5016330000000  0.5116440000000  0.4713140000000 1.0
C      1  0.5010700000000  0.5286980000000  0.4958520000000 1.0
C      1  0.5014460000000  0.5178970000000  0.5234350000000 1.0
C      1  0.5198480000000  0.4522440000000  0.5529020000000 1.0
C      1  0.5205570000000  0.4308330000000  0.4847270000000 1.0
C      1  0.5204280000000  0.4787410000000  0.4318660000000 1.0
C      1  0.5199200000000  0.5477290000000  0.4471580000000 1.0
C      1  0.5204720000000  0.5691120000000  0.5147010000000 1.0
C      1  0.5205050000000  0.5212510000000  0.5685300000000 1.0
C      1  0.4925600000000  0.5565810000000  0.5266190000000 1.0
C      1  0.4918570000000  0.5055120000000  0.5634120000000 1.0
C      1  0.4919140000000  0.4493040000000  0.5359760000000 1.0
C      1  0.4924390000000  0.4434170000000  0.4732940000000 1.0
C      1  0.4917440000000  0.4945460000000  0.4366930000000 1.0
C      1  0.4919370000000  0.5508020000000  0.4640580000000 1.0
C      1  0.5468470000000  0.5305860000000  0.4460390000000 1.0
C      1  0.5468780000000  0.5610480000000  0.4989830000000 1.0
C      1  0.5463030000000  0.5311500000000  0.5529570000000 1.0
C      1  0.5467830000000  0.4693370000000  0.5540240000000 1.0
C      1  0.5465840000000  0.4391680000000  0.5006830000000 1.0
C      1  0.5468510000000  0.4691220000000  0.4467900000000 1.0
C      1  0.4713890000000  0.4871500000000  0.4621440000000 1.0
C      1  0.4709760000000  0.5262950000000  0.4696650000000 1.0
C      1  0.4707670000000  0.5384950000000  0.5078010000000 1.0
C      1  0.4712830000000  0.5127950000000  0.5382950000000 1.0
C      1  0.4707700000000  0.4737160000000  0.5305270000000 1.0
C      1  0.4703940000000  0.4610210000000  0.4922740000000 1.0
C      1  0.4558740000000  0.5434960000000  0.5381920000000 1.0
C      1  0.4497820000000  0.4887910000000  0.5503180000000 1.0
C      1  0.4579840000000  0.4442690000000  0.5193100000000 1.0
C      1  0.4557030000000  0.4565970000000  0.4616980000000 1.0
C      1  0.4500140000000  0.5111300000000  0.4498650000000 1.0
C      1  0.4577100000000  0.5557540000000  0.4802790000000 1.0
C      1  0.5277010000000  0.5034400000000  0.4533140000000 1.0
C      1  0.5276760000000  0.5408350000000  0.4794470000000 1.0
C      1  0.5278060000000  0.5377910000000  0.5251650000000 1.0
C      1  0.5275970000000  0.4964930000000  0.5468920000000 1.0
C      1  0.5276090000000  0.4592670000000  0.5205530000000 1.0
C      1  0.5277520000000  0.4621130000000  0.4740390000000 1.0
C      1  0.4287220000000  0.5122090000000  0.4745900000000 1.0
C      1  0.4403320000000  0.5304540000000  0.4949250000000 1.0
C      1  0.4410460000000  0.5167920000000  0.5232540000000 1.0
C      1  0.4286190000000  0.4878050000000  0.5255570000000 1.0
C      1  0.4401340000000  0.4695650000000  0.5052350000000 1.0
C      1  0.4410100000000  0.4832200000000  0.4769140000000 1.0
END
