TITL C-1154826-9507-6 -0.0024245425496896 125000 -324.262852176613 0 0 60 (C1) n - 1
REM
REM in /home/nfs/bkarasulu/CARBON/AIRSS/Generating-Clusters/AIREBO/Higher-Symm/Only-C60
REM
REM
REM
REM
REM
REM ./C.cell (28575a23ae977d3b5fae324c64b13b57)
REM
REM compiler GCC version 9.2.1 20190827 (Red Hat 9.2.1-1)
REM options -cpp -mtune=generic -march=x86-64 -g -O0 -fpre-include=/usr/include/finclude/math-vector-fortran.h
REM seed -1121558034 -183035582 -783149411 1987160255 -1158583274 -1534693409 -96198134 -874450751 40401690 -1133105796 2076671863 -1479652104 -202207411 -482559574 574169263 -521507573 452425477 569854611 -302987955 -1806673163 -41623333 -812055531 652869449 -117524368 -1079517266 1952686483 448211448 -799409964 734811531 -967349683 451230315 617928817 1481258600
REM
CELL 1.54180   50.00000   50.00000   50.00000   90.00000   90.00000   90.00000
LATT -1
SFAC C  
C      1  0.4786370000000  0.4864380000000  0.5030960000000 1.0
C      1  0.4889180000000  0.5632090000000  0.4873950000000 1.0
C      1  0.5432440000000  0.5378300000000  0.5265410000000 1.0
C      1  0.4763600000000  0.5602510000000  0.5372450000000 1.0
C      1  0.5688450000000  0.4894410000000  0.4725520000000 1.0
C      1  0.5210800000000  0.5305020000000  0.5438330000000 1.0
C      1  0.4802560000000  0.4553240000000  0.5017070000000 1.0
C      1  0.6104340000000  0.5117390000000  0.4878750000000 1.0
C      1  0.4704890000000  0.5049200000000  0.4626890000000 1.0
C      1  0.6350870000000  0.5197230000000  0.4839570000000 1.0
C      1  0.4549220000000  0.5635150000000  0.5165930000000 1.0
C      1  0.4987240000000  0.5335900000000  0.4996080000000 1.0
C      1  0.4801080000000  0.5487230000000  0.4291730000000 1.0
C      1  0.5180420000000  0.5619360000000  0.4976890000000 1.0
C      1  0.4560610000000  0.5536850000000  0.4409740000000 1.0
C      1  0.4326940000000  0.4906970000000  0.5462690000000 1.0
C      1  0.5274880000000  0.4585490000000  0.4390660000000 1.0
C      1  0.5350140000000  0.4683750000000  0.4700430000000 1.0
C      1  0.5143260000000  0.5102630000000  0.4528950000000 1.0
C      1  0.5037680000000  0.5377950000000  0.4369260000000 1.0
C      1  0.4900670000000  0.4952680000000  0.5298410000000 1.0
C      1  0.5481300000000  0.5392370000000  0.4736550000000 1.0
C      1  0.4485330000000  0.5120060000000  0.5652730000000 1.0
C      1  0.4538810000000  0.4920800000000  0.4459730000000 1.0
C      1  0.4200580000000  0.5314380000000  0.4773320000000 1.0
C      1  0.4462470000000  0.4953900000000  0.5003090000000 1.0
C      1  0.4891600000000  0.5291950000000  0.5319460000000 1.0
C      1  0.5281200000000  0.4950510000000  0.4899730000000 1.0
C      1  0.4336140000000  0.5219870000000  0.5396570000000 1.0
C      1  0.5458700000000  0.5176040000000  0.4922900000000 1.0
C      1  0.4245540000000  0.5044380000000  0.4790260000000 1.0
C      1  0.5455670000000  0.4968770000000  0.4541060000000 1.0
C      1  0.5094030000000  0.4455950000000  0.5092500000000 1.0
C      1  0.5103380000000  0.4330410000000  0.5341850000000 1.0
C      1  0.5838440000000  0.5055500000000  0.4905580000000 1.0
C      1  0.4580460000000  0.5245860000000  0.4874780000000 1.0
C      1  0.5655020000000  0.5117630000000  0.5470510000000 1.0
C      1  0.5675610000000  0.5168390000000  0.5152970000000 1.0
C      1  0.4780920000000  0.4373130000000  0.4752400000000 1.0
C      1  0.5325440000000  0.4988770000000  0.5817470000000 1.0
C      1  0.5115290000000  0.4814520000000  0.5783390000000 1.0
C      1  0.4551830000000  0.5307420000000  0.5208240000000 1.0
C      1  0.5672800000000  0.4600360000000  0.4768030000000 1.0
C      1  0.4277470000000  0.4898900000000  0.4549360000000 1.0
C      1  0.4428440000000  0.4760890000000  0.5245960000000 1.0
C      1  0.4582720000000  0.4535500000000  0.5236430000000 1.0
C      1  0.4607850000000  0.4324220000000  0.5417230000000 1.0
C      1  0.5038610000000  0.4290740000000  0.4674590000000 1.0
C      1  0.5233680000000  0.4422870000000  0.4845620000000 1.0
C      1  0.4396740000000  0.4203100000000  0.5532350000000 1.0
C      1  0.4979660000000  0.5051240000000  0.4822640000000 1.0
C      1  0.5324150000000  0.5377700000000  0.4507420000000 1.0
C      1  0.4923470000000  0.4887420000000  0.5597790000000 1.0
C      1  0.4455050000000  0.5508830000000  0.4699240000000 1.0
C      1  0.4874570000000  0.4246420000000  0.5470690000000 1.0
C      1  0.4761650000000  0.5148310000000  0.5615690000000 1.0
C      1  0.5403320000000  0.5146030000000  0.5598880000000 1.0
C      1  0.5193230000000  0.4510170000000  0.4160860000000 1.0
C      1  0.4622260000000  0.5678770000000  0.4899990000000 1.0
C      1  0.5820900000000  0.4380200000000  0.4802470000000 1.0
END
