TITL C-1154826-9507-584 0.000652841048055002 125000 -324.577708998385 0 0 60 (C1) n - 1
REM
REM in /home/nfs/bkarasulu/CARBON/AIRSS/Generating-Clusters/AIREBO/Higher-Symm/Only-C60
REM
REM
REM
REM
REM
REM ./C.cell (28575a23ae977d3b5fae324c64b13b57)
REM
REM compiler GCC version 9.2.1 20190827 (Red Hat 9.2.1-1)
REM options -cpp -mtune=generic -march=x86-64 -g -O0 -fpre-include=/usr/include/finclude/math-vector-fortran.h
REM seed -949918281 1542262413 918027904 250440551 -2032621263 1631385636 -1515267529 1570133461 -1306484067 -1016372953 -514059029 -1849170391 -140633206 -1018115876 -647961083 -268807227 -1070505866 1900893560 959145452 -1565494957 390587191 -1163429011 -428746463 -1890514190 -280680776 -1597319886 1326008670 -1834971016 -814352173 246749167 1250972420 -99343137 -1238032765
REM
CELL 1.54180   50.00000   50.00000   50.00000   90.00000   90.00000   90.00000
LATT -1
SFAC C  
C      1  0.5180690000000  0.4813270000000  0.4310220000000 1.0
C      1  0.5177590000000  0.5317120000000  0.4395950000000 1.0
C      1  0.5108370000000  0.5730350000000  0.4855850000000 1.0
C      1  0.5174470000000  0.5354650000000  0.5520440000000 1.0
C      1  0.5240720000000  0.4861560000000  0.5690190000000 1.0
C      1  0.5196900000000  0.4493870000000  0.5303410000000 1.0
C      1  0.5128920000000  0.4430070000000  0.4704920000000 1.0
C      1  0.4507430000000  0.5508400000000  0.4837480000000 1.0
C      1  0.4409760000000  0.5451660000000  0.5345960000000 1.0
C      1  0.4412080000000  0.5051950000000  0.5556740000000 1.0
C      1  0.4434840000000  0.4595660000000  0.5416270000000 1.0
C      1  0.4455030000000  0.4419770000000  0.4946430000000 1.0
C      1  0.4544320000000  0.4699540000000  0.4602100000000 1.0
C      1  0.4535910000000  0.5147790000000  0.4511040000000 1.0
C      1  0.5148010000000  0.4510630000000  0.4426700000000 1.0
C      1  0.5168250000000  0.5089490000000  0.4208700000000 1.0
C      1  0.5111000000000  0.5612510000000  0.4550700000000 1.0
C      1  0.5007260000000  0.5688150000000  0.5165200000000 1.0
C      1  0.5164560000000  0.5162790000000  0.5743910000000 1.0
C      1  0.5228920000000  0.4588280000000  0.5629170000000 1.0
C      1  0.5170170000000  0.4342180000000  0.4999770000000 1.0
C      1  0.4227360000000  0.5021320000000  0.5330200000000 1.0
C      1  0.4240710000000  0.4736050000000  0.5254730000000 1.0
C      1  0.4244880000000  0.4627870000000  0.4994700000000 1.0
C      1  0.4333560000000  0.4829700000000  0.4773520000000 1.0
C      1  0.4283670000000  0.5132770000000  0.4678880000000 1.0
C      1  0.4271700000000  0.5341030000000  0.4891650000000 1.0
C      1  0.4229960000000  0.5279400000000  0.5184740000000 1.0
C      1  0.4694440000000  0.4909380000000  0.4501480000000 1.0
C      1  0.4698680000000  0.5380680000000  0.4595010000000 1.0
C      1  0.4789280000000  0.5395130000000  0.4949530000000 1.0
C      1  0.4716070000000  0.5303790000000  0.5329520000000 1.0
C      1  0.4716170000000  0.4990420000000  0.5461710000000 1.0
C      1  0.4704700000000  0.4681350000000  0.5388270000000 1.0
C      1  0.4672440000000  0.4525970000000  0.4786220000000 1.0
C      1  0.4965640000000  0.4665730000000  0.4887800000000 1.0
C      1  0.4982990000000  0.4903960000000  0.4645360000000 1.0
C      1  0.4990540000000  0.5244020000000  0.4642030000000 1.0
C      1  0.5110750000000  0.5413110000000  0.4897060000000 1.0
C      1  0.4969630000000  0.5476710000000  0.5364920000000 1.0
C      1  0.5000490000000  0.5004380000000  0.5340780000000 1.0
C      1  0.4905290000000  0.4579300000000  0.5211110000000 1.0
C      1  0.5780310000000  0.4498120000000  0.4770590000000 1.0
C      1  0.5664020000000  0.5268750000000  0.4664900000000 1.0
C      1  0.5648050000000  0.5420370000000  0.4898040000000 1.0
C      1  0.5732530000000  0.5218910000000  0.5410960000000 1.0
C      1  0.5840530000000  0.4974000000000  0.5344120000000 1.0
C      1  0.5714470000000  0.4764390000000  0.5212610000000 1.0
C      1  0.5634860000000  0.4641050000000  0.4949740000000 1.0
C      1  0.5302890000000  0.4720840000000  0.4924560000000 1.0
C      1  0.5311720000000  0.4828370000000  0.4601880000000 1.0
C      1  0.5433470000000  0.5126020000000  0.4624370000000 1.0
C      1  0.5387850000000  0.5335510000000  0.5054550000000 1.0
C      1  0.5431770000000  0.5272760000000  0.5346500000000 1.0
C      1  0.5293710000000  0.4991180000000  0.5407570000000 1.0
C      1  0.5395210000000  0.4747300000000  0.5250790000000 1.0
C      1  0.4470000000000  0.5015670000000  0.5012270000000 1.0
C      1  0.5290860000000  0.5060630000000  0.4924130000000 1.0
C      1  0.4740350000000  0.5104690000000  0.5054480000000 1.0
C      1  0.5007110000000  0.4964410000000  0.5038950000000 1.0
END
