TITL C-1154803-8277-619 0.000448187957469445 125000 -335.251777365628 0 0 60 (C1) n - 1
REM
REM in /home/nfs/bkarasulu/CARBON/AIRSS/Generating-Clusters/AIREBO/Higher-Symm/Only-C60
REM
REM
REM
REM
REM
REM ./C.cell (28575a23ae977d3b5fae324c64b13b57)
REM
REM compiler GCC version 9.2.1 20190827 (Red Hat 9.2.1-1)
REM options -cpp -mtune=generic -march=x86-64 -g -O0 -fpre-include=/usr/include/finclude/math-vector-fortran.h
REM seed -1158947295 1856574442 1334103266 -888139127 -1270179222 -684701352 -863940142 -599215311 434454193 1596680902 594427181 -1400055633 -655077140 1025168948 1929345061 -851350437 1495819721 -790473858 340204804 -1737962825 -1683096354 1807872430 -168530841 1574872253 -1987684347 27601512 1315476745 2071738784 319534989 -1504111392 840300661 1945646702 -1062798129
REM
CELL 1.54180   50.00000   50.00000   50.00000   90.00000   90.00000   90.00000
LATT -1
SFAC C  
C      1  0.4818270000000  0.4808600000000  0.4957110000000 1.0
C      1  0.5115910000000  0.4877190000000  0.5048100000000 1.0
C      1  0.5041600000000  0.4864160000000  0.4713190000000 1.0
C      1  0.4869540000000  0.5191280000000  0.4856930000000 1.0
C      1  0.5200940000000  0.5204920000000  0.4844700000000 1.0
C      1  0.5036490000000  0.5281690000000  0.5113620000000 1.0
C      1  0.4429710000000  0.5219250000000  0.5249360000000 1.0
C      1  0.5560190000000  0.5234420000000  0.5308940000000 1.0
C      1  0.5023900000000  0.5336310000000  0.4358340000000 1.0
C      1  0.4472860000000  0.4698660000000  0.4696120000000 1.0
C      1  0.5471680000000  0.4680220000000  0.4659860000000 1.0
C      1  0.5093990000000  0.4778330000000  0.5567080000000 1.0
C      1  0.5248700000000  0.5648510000000  0.5171970000000 1.0
C      1  0.5019740000000  0.5733200000000  0.4745090000000 1.0
C      1  0.4764330000000  0.5633770000000  0.5148920000000 1.0
C      1  0.5227620000000  0.4290900000000  0.4824770000000 1.0
C      1  0.5139940000000  0.4386100000000  0.5302710000000 1.0
C      1  0.4745220000000  0.4279320000000  0.5030260000000 1.0
C      1  0.5256190000000  0.5776920000000  0.4911470000000 1.0
C      1  0.4770560000000  0.5768210000000  0.4891910000000 1.0
C      1  0.4997960000000  0.5669720000000  0.5310290000000 1.0
C      1  0.5326850000000  0.4363680000000  0.5083320000000 1.0
C      1  0.4849310000000  0.4391030000000  0.5283370000000 1.0
C      1  0.4980620000000  0.4167830000000  0.4816030000000 1.0
C      1  0.4210510000000  0.5020830000000  0.4472750000000 1.0
C      1  0.4725710000000  0.4984420000000  0.5724290000000 1.0
C      1  0.5856280000000  0.4857340000000  0.4834090000000 1.0
C      1  0.4245180000000  0.4839640000000  0.5465980000000 1.0
C      1  0.4813820000000  0.4933190000000  0.4183900000000 1.0
C      1  0.5783980000000  0.4841510000000  0.5455550000000 1.0
C      1  0.4595240000000  0.5002220000000  0.4788600000000 1.0
C      1  0.5067740000000  0.5034990000000  0.5345530000000 1.0
C      1  0.5408380000000  0.5014580000000  0.4664610000000 1.0
C      1  0.4553680000000  0.4954710000000  0.5122780000000 1.0
C      1  0.5156160000000  0.5078340000000  0.4474330000000 1.0
C      1  0.5385600000000  0.4976230000000  0.5240060000000 1.0
C      1  0.4556240000000  0.4473990000000  0.4816570000000 1.0
C      1  0.5243860000000  0.4551590000000  0.5509360000000 1.0
C      1  0.5338270000000  0.4436190000000  0.4606160000000 1.0
C      1  0.4535890000000  0.5476690000000  0.5215420000000 1.0
C      1  0.5033380000000  0.5582260000000  0.4499680000000 1.0
C      1  0.5472270000000  0.5499570000000  0.5273470000000 1.0
C      1  0.4226210000000  0.5118850000000  0.5428370000000 1.0
C      1  0.5790790000000  0.5123540000000  0.5443690000000 1.0
C      1  0.4847210000000  0.5214640000000  0.4158070000000 1.0
C      1  0.4263480000000  0.4748020000000  0.4507070000000 1.0
C      1  0.5675210000000  0.4637320000000  0.4860720000000 1.0
C      1  0.4821520000000  0.4722590000000  0.5645850000000 1.0
C      1  0.4973680000000  0.4819570000000  0.4383020000000 1.0
C      1  0.4472240000000  0.4728680000000  0.5326970000000 1.0
C      1  0.5563120000000  0.4732950000000  0.5307060000000 1.0
C      1  0.4872070000000  0.5179790000000  0.5582980000000 1.0
C      1  0.4381290000000  0.5180350000000  0.4625220000000 1.0
C      1  0.5726850000000  0.5069090000000  0.4703910000000 1.0
C      1  0.4687250000000  0.4576720000000  0.5435810000000 1.0
C      1  0.5562000000000  0.4536920000000  0.5102890000000 1.0
C      1  0.4679790000000  0.4202900000000  0.4705740000000 1.0
C      1  0.4563150000000  0.5910170000000  0.4795630000000 1.0
C      1  0.5465810000000  0.5924000000000  0.4828020000000 1.0
C      1  0.4984000000000  0.5731380000000  0.5572400000000 1.0
END
