TITL C-1154808-8168-554 0.0046244923314576 125000 -335.385664418714 0 0 60 (C1) n - 1
REM
REM in /home/nfs/bkarasulu/CARBON/AIRSS/Generating-Clusters/AIREBO/Higher-Symm/Only-C60
REM
REM
REM
REM
REM
REM ./C.cell (28575a23ae977d3b5fae324c64b13b57)
REM
REM compiler GCC version 9.2.1 20190827 (Red Hat 9.2.1-1)
REM options -cpp -mtune=generic -march=x86-64 -g -O0 -fpre-include=/usr/include/finclude/math-vector-fortran.h
REM seed 1200375517 1942379591 -1088806683 -811182429 1672942043 1726796653 1582683692 -344155047 -384961126 140889353 -228288158 1594643427 -1069720514 1140154889 -64058647 444973327 1047221282 413741106 -1797404145 -953849675 2005045613 -1992863239 865217903 697023627 990463123 515550348 290902864 -917516781 299928542 2069679574 -1579132561 -2136237887 436388482
REM
CELL 1.54180   50.00000   50.00000   50.00000   90.00000   90.00000   90.00000
LATT -1
SFAC C  
C      1  0.5167040000000  0.5254580000000  0.4368630000000 1.0
C      1  0.4359690000000  0.5277070000000  0.5142450000000 1.0
C      1  0.5469800000000  0.5258450000000  0.5522520000000 1.0
C      1  0.4358500000000  0.5000870000000  0.5084890000000 1.0
C      1  0.5419390000000  0.4997720000000  0.5636670000000 1.0
C      1  0.5303490000000  0.5005920000000  0.4331770000000 1.0
C      1  0.4827400000000  0.5622610000000  0.4944150000000 1.0
C      1  0.5065680000000  0.5611280000000  0.5192540000000 1.0
C      1  0.5157290000000  0.5598390000000  0.4865370000000 1.0
C      1  0.4554050000000  0.5420230000000  0.4935360000000 1.0
C      1  0.5228190000000  0.5406550000000  0.5381380000000 1.0
C      1  0.5204670000000  0.5379270000000  0.4657930000000 1.0
C      1  0.4400860000000  0.5117990000000  0.4537180000000 1.0
C      1  0.4880910000000  0.5082260000000  0.5711890000000 1.0
C      1  0.5705750000000  0.5089580000000  0.4692770000000 1.0
C      1  0.4803110000000  0.5703170000000  0.5339450000000 1.0
C      1  0.5431900000000  0.5697770000000  0.4988470000000 1.0
C      1  0.4821250000000  0.5742790000000  0.4651920000000 1.0
C      1  0.5171700000000  0.4965280000000  0.5297300000000 1.0
C      1  0.5156000000000  0.4990770000000  0.4733640000000 1.0
C      1  0.4701280000000  0.4917700000000  0.5060420000000 1.0
C      1  0.5430770000000  0.5190020000000  0.4775930000000 1.0
C      1  0.4491010000000  0.5357090000000  0.4638320000000 1.0
C      1  0.4995760000000  0.5204740000000  0.5480860000000 1.0
C      1  0.5615960000000  0.5271390000000  0.5269100000000 1.0
C      1  0.4894300000000  0.5278960000000  0.4297130000000 1.0
C      1  0.4491080000000  0.5290070000000  0.5401120000000 1.0
C      1  0.4782360000000  0.4278040000000  0.5013630000000 1.0
C      1  0.5103290000000  0.4247550000000  0.5106930000000 1.0
C      1  0.5178350000000  0.4266740000000  0.4764260000000 1.0
C      1  0.4767050000000  0.5026490000000  0.4305320000000 1.0
C      1  0.4495070000000  0.5047330000000  0.5541350000000 1.0
C      1  0.5734150000000  0.5017880000000  0.5199190000000 1.0
C      1  0.5616340000000  0.4869540000000  0.4923950000000 1.0
C      1  0.4593590000000  0.4863710000000  0.4550090000000 1.0
C      1  0.4773140000000  0.4821750000000  0.5619650000000 1.0
C      1  0.4617870000000  0.4700520000000  0.4812390000000 1.0
C      1  0.5015980000000  0.4703950000000  0.5451470000000 1.0
C      1  0.5378960000000  0.4735130000000  0.4769410000000 1.0
C      1  0.5402310000000  0.4376240000000  0.5178670000000 1.0
C      1  0.4972840000000  0.4383110000000  0.4611940000000 1.0
C      1  0.4639050000000  0.4339640000000  0.5271260000000 1.0
C      1  0.4756810000000  0.5466210000000  0.4508860000000 1.0
C      1  0.4774270000000  0.5372370000000  0.5325200000000 1.0
C      1  0.5435330000000  0.5371590000000  0.5041940000000 1.0
C      1  0.5368030000000  0.4451960000000  0.4890280000000 1.0
C      1  0.4749250000000  0.4426290000000  0.4779640000000 1.0
C      1  0.4938400000000  0.4427540000000  0.5343980000000 1.0
C      1  0.4588520000000  0.4806700000000  0.5345990000000 1.0
C      1  0.5454610000000  0.4847990000000  0.5223710000000 1.0
C      1  0.4928720000000  0.4857870000000  0.4531590000000 1.0
C      1  0.4367790000000  0.4703550000000  0.5028300000000 1.0
C      1  0.5323250000000  0.4730170000000  0.5581170000000 1.0
C      1  0.5304180000000  0.4747520000000  0.4454220000000 1.0
C      1  0.5046270000000  0.4586770000000  0.4436590000000 1.0
C      1  0.4447530000000  0.4542130000000  0.5272730000000 1.0
C      1  0.5469150000000  0.4569890000000  0.5357400000000 1.0
C      1  0.5135860000000  0.5227270000000  0.5107630000000 1.0
C      1  0.4911900000000  0.5223880000000  0.4692020000000 1.0
C      1  0.4822940000000  0.5230140000000  0.5020130000000 1.0
END
