TITL C-1154827-9204-529 6.87851913984282 125000 -329.87762099484 0 0 60 (C1) n - 1
REM
REM in /home/nfs/bkarasulu/CARBON/AIRSS/Generating-Clusters/AIREBO/Higher-Symm/Only-C60
REM
REM
REM
REM
REM
REM ./C.cell (28575a23ae977d3b5fae324c64b13b57)
REM
REM compiler GCC version 9.2.1 20190827 (Red Hat 9.2.1-1)
REM options -cpp -mtune=generic -march=x86-64 -g -O0 -fpre-include=/usr/include/finclude/math-vector-fortran.h
REM seed 1095819209 1297803774 195204603 -562666742 -2017561268 1344214991 -758582667 1071460867 -869551676 1596580563 -247481303 -1907751197 -1592199009 -864394969 -1149842406 813502321 1671705057 395690001 -1524129878 -666502771 527723025 367013328 48399596 1408467800 1458422018 379929757 -475649715 -841147800 -1983966281 1038110876 -1284468629 -554843452 -2095465136
REM
CELL 1.54180   50.00000   50.00000   50.00000   90.00000   90.00000   90.00000
LATT -1
SFAC C  
C      1  0.4268580000000  0.4803620000000  0.5210740000000 1.0
C      1  0.4972250000000  0.4296090000000  0.5144270000000 1.0
C      1  0.5707220000000  0.4658000000000  0.5135180000000 1.0
C      1  0.5408380000000  0.5550540000000  0.5217550000000 1.0
C      1  0.4589560000000  0.5602710000000  0.5302280000000 1.0
C      1  0.5103030000000  0.4655150000000  0.4829690000000 1.0
C      1  0.5478240000000  0.5003930000000  0.4827720000000 1.0
C      1  0.5139500000000  0.5440620000000  0.4805060000000 1.0
C      1  0.4740430000000  0.5132430000000  0.4790860000000 1.0
C      1  0.4690440000000  0.4676980000000  0.4799710000000 1.0
C      1  0.4839550000000  0.5459210000000  0.4405620000000 1.0
C      1  0.4394480000000  0.4921260000000  0.4155150000000 1.0
C      1  0.4817590000000  0.4427530000000  0.4179100000000 1.0
C      1  0.5507390000000  0.4711790000000  0.4182530000000 1.0
C      1  0.5593460000000  0.5438150000000  0.4556810000000 1.0
C      1  0.4531500000000  0.4962930000000  0.5322360000000 1.0
C      1  0.4834760000000  0.4521490000000  0.5348170000000 1.0
C      1  0.5414700000000  0.4604230000000  0.5288550000000 1.0
C      1  0.5342210000000  0.5282160000000  0.5267190000000 1.0
C      1  0.4869660000000  0.5411140000000  0.5287740000000 1.0
C      1  0.5282980000000  0.4784020000000  0.4377430000000 1.0
C      1  0.5242120000000  0.5102830000000  0.4392440000000 1.0
C      1  0.4967520000000  0.5254840000000  0.4265250000000 1.0
C      1  0.4567390000000  0.4933980000000  0.4347950000000 1.0
C      1  0.5010780000000  0.4659150000000  0.4298570000000 1.0
C      1  0.5136270000000  0.4698530000000  0.5137030000000 1.0
C      1  0.5495890000000  0.5087730000000  0.5146750000000 1.0
C      1  0.5031120000000  0.5581370000000  0.5091070000000 1.0
C      1  0.4721080000000  0.5104550000000  0.5079190000000 1.0
C      1  0.4739620000000  0.4707500000000  0.5093820000000 1.0
C      1  0.4519200000000  0.4622600000000  0.5344150000000 1.0
C      1  0.5159690000000  0.4436230000000  0.5380440000000 1.0
C      1  0.5590310000000  0.4882480000000  0.5310370000000 1.0
C      1  0.5194530000000  0.5785220000000  0.5226830000000 1.0
C      1  0.4552990000000  0.5284370000000  0.5298850000000 1.0
C      1  0.5393930000000  0.5615070000000  0.4926110000000 1.0
C      1  0.4541180000000  0.5735570000000  0.5069850000000 1.0
C      1  0.4135170000000  0.4843420000000  0.4987160000000 1.0
C      1  0.4983320000000  0.4371700000000  0.4878990000000 1.0
C      1  0.5696900000000  0.4742820000000  0.4869460000000 1.0
C      1  0.4834640000000  0.5418130000000  0.4712620000000 1.0
C      1  0.4520150000000  0.4928410000000  0.4646730000000 1.0
C      1  0.4754920000000  0.4546360000000  0.4492000000000 1.0
C      1  0.5354060000000  0.4727860000000  0.4669870000000 1.0
C      1  0.5360620000000  0.5238130000000  0.4640630000000 1.0
C      1  0.4227480000000  0.4931640000000  0.4746050000000 1.0
C      1  0.4809660000000  0.4303770000000  0.4686240000000 1.0
C      1  0.5638060000000  0.4541010000000  0.4663890000000 1.0
C      1  0.5594620000000  0.5651400000000  0.4733080000000 1.0
C      1  0.4649380000000  0.5639230000000  0.4838190000000 1.0
C      1  0.4877750000000  0.4952480000000  0.4325540000000 1.0
C      1  0.5159310000000  0.5012330000000  0.4075290000000 1.0
C      1  0.5071300000000  0.5057350000000  0.6202230000000 1.0
C      1  0.5066060000000  0.5113150000000  0.5941840000000 1.0
C      1  0.5068240000000  0.5190430000000  0.5378590000000 1.0
C      1  0.5214000000000  0.4926230000000  0.3842470000000 1.0
C      1  0.5080630000000  0.5151610000000  0.5681180000000 1.0
C      1  0.4916440000000  0.4876330000000  0.4649640000000 1.0
C      1  0.5050920000000  0.5001210000000  0.6457440000000 1.0
C      1  0.4957590000000  0.4934650000000  0.5222750000000 1.0
END
