TITL C-1154824-75-620 0.00256701085337309 125000 -334.459841403367 0 0 60 (C1) n - 1
REM
REM in /home/nfs/bkarasulu/CARBON/AIRSS/Generating-Clusters/AIREBO/Higher-Symm/Only-C60
REM
REM
REM
REM
REM
REM ./C.cell (28575a23ae977d3b5fae324c64b13b57)
REM
REM compiler GCC version 9.2.1 20190827 (Red Hat 9.2.1-1)
REM options -cpp -mtune=generic -march=x86-64 -g -O0 -fpre-include=/usr/include/finclude/math-vector-fortran.h
REM seed -1514485783 -2045320006 113563285 -1385791571 -767318020 -1552797641 1963370851 1933283026 2022647651 -647891056 -1576702119 -1304387478 -1941032341 110218413 -1868841000 -420107027 -1437897648 -1557698420 1736839180 -1130300419 610454175 -1779133845 1574852577 -590162319 1017278565 -1508523950 1201028768 -130458509 894480062 -371626750 -1797948734 -52443572 219909220
REM
CELL 1.54180   50.00000   50.00000   50.00000   90.00000   90.00000   90.00000
LATT -1
SFAC C  
C      1  0.5033620000000  0.5597810000000  0.4881340000000 1.0
C      1  0.5243940000000  0.5508210000000  0.4373180000000 1.0
C      1  0.4784880000000  0.5148730000000  0.4535720000000 1.0
C      1  0.5202160000000  0.5868410000000  0.5230470000000 1.0
C      1  0.5128220000000  0.5907320000000  0.4771950000000 1.0
C      1  0.4787170000000  0.4915930000000  0.5688240000000 1.0
C      1  0.4285020000000  0.5426540000000  0.5034820000000 1.0
C      1  0.4608420000000  0.4895440000000  0.4530420000000 1.0
C      1  0.4403520000000  0.5147760000000  0.5167140000000 1.0
C      1  0.4871430000000  0.5149320000000  0.4846530000000 1.0
C      1  0.5197580000000  0.4590980000000  0.5648790000000 1.0
C      1  0.4415950000000  0.4852570000000  0.4718900000000 1.0
C      1  0.4991000000000  0.5267470000000  0.4067290000000 1.0
C      1  0.5113320000000  0.5516040000000  0.4116030000000 1.0
C      1  0.5012090000000  0.5079510000000  0.4330980000000 1.0
C      1  0.5278050000000  0.5226710000000  0.4425610000000 1.0
C      1  0.4729150000000  0.4443530000000  0.4636090000000 1.0
C      1  0.5604170000000  0.4696310000000  0.4782330000000 1.0
C      1  0.4882610000000  0.4337600000000  0.5188460000000 1.0
C      1  0.4698870000000  0.5042590000000  0.5060820000000 1.0
C      1  0.4854920000000  0.4318790000000  0.5465780000000 1.0
C      1  0.5492780000000  0.5072980000000  0.5360450000000 1.0
C      1  0.5573670000000  0.5343470000000  0.5543560000000 1.0
C      1  0.4803110000000  0.5441020000000  0.4711520000000 1.0
C      1  0.5276520000000  0.4660190000000  0.4380530000000 1.0
C      1  0.4831060000000  0.5662740000000  0.5406370000000 1.0
C      1  0.5499050000000  0.4661010000000  0.4536290000000 1.0
C      1  0.5565160000000  0.5108190000000  0.4833210000000 1.0
C      1  0.4440990000000  0.4856830000000  0.5301610000000 1.0
C      1  0.4525070000000  0.4755540000000  0.4999290000000 1.0
C      1  0.5144690000000  0.4283260000000  0.5092580000000 1.0
C      1  0.4782260000000  0.4675810000000  0.4477450000000 1.0
C      1  0.5168840000000  0.4374180000000  0.4807100000000 1.0
C      1  0.5382340000000  0.4800070000000  0.5451600000000 1.0
C      1  0.5656730000000  0.5067550000000  0.5081080000000 1.0
C      1  0.4688680000000  0.4496740000000  0.4958890000000 1.0
C      1  0.5189250000000  0.5665060000000  0.4586590000000 1.0
C      1  0.5021750000000  0.4228880000000  0.5909790000000 1.0
C      1  0.5391550000000  0.5459490000000  0.5340710000000 1.0
C      1  0.5173990000000  0.5072770000000  0.4905410000000 1.0
C      1  0.5022340000000  0.4771640000000  0.4357500000000 1.0
C      1  0.5483210000000  0.5126720000000  0.4578870000000 1.0
C      1  0.4390730000000  0.5438720000000  0.5327060000000 1.0
C      1  0.5373780000000  0.4333640000000  0.5251340000000 1.0
C      1  0.5508980000000  0.4580730000000  0.5269700000000 1.0
C      1  0.4777120000000  0.5061420000000  0.5919730000000 1.0
C      1  0.4567050000000  0.4835540000000  0.5535460000000 1.0
C      1  0.5659700000000  0.4648930000000  0.5043480000000 1.0
C      1  0.5284050000000  0.5227600000000  0.5140990000000 1.0
C      1  0.4696410000000  0.4189780000000  0.4538320000000 1.0
C      1  0.4307540000000  0.5555770000000  0.4796630000000 1.0
C      1  0.4982010000000  0.5250580000000  0.5258100000000 1.0
C      1  0.5026920000000  0.4376880000000  0.5684640000000 1.0
C      1  0.5036280000000  0.4831740000000  0.5023070000000 1.0
C      1  0.4542270000000  0.5596170000000  0.4664510000000 1.0
C      1  0.4985840000000  0.4595830000000  0.4901540000000 1.0
C      1  0.5064180000000  0.4865630000000  0.5547700000000 1.0
C      1  0.4886480000000  0.4938760000000  0.5302340000000 1.0
C      1  0.4580370000000  0.5580940000000  0.5460200000000 1.0
C      1  0.5091130000000  0.5569620000000  0.5213860000000 1.0
END
