TITL C-1154801-8518-322 -2631.4065517485 125000 -310.166129627412 0 0 60 (C1) n - 1
REM
REM in /home/nfs/bkarasulu/CARBON/AIRSS/Generating-Clusters/AIREBO/Higher-Symm/Only-C60
REM
REM
REM
REM
REM
REM ./C.cell (28575a23ae977d3b5fae324c64b13b57)
REM
REM compiler GCC version 9.2.1 20190827 (Red Hat 9.2.1-1)
REM options -cpp -mtune=generic -march=x86-64 -g -O0 -fpre-include=/usr/include/finclude/math-vector-fortran.h
REM seed 1417810980 -1004357807 -1126353119 -679187138 865089007 -1796425278 -212395241 973823622 -409588118 -527314564 -1950952586 458452372 132213325 -1099857561 300214972 972345074 1591475409 -1112308821 1505986427 -1816767497 -1546863306 1063856562 789719739 -1711487002 2143459541 -1162066796 1846962819 -99420235 -1851121675 -14367941 477840759 1517982928 -414925027
REM
CELL 1.54180   50.00000   50.00000   50.00000   90.00000   90.00000   90.00000
LATT -1
SFAC C  
C      1  0.5517390000000  0.5300150000000  0.4970290000000 1.0
C      1  0.4744900000000  0.5329150000000  0.5447220000000 1.0
C      1  0.4723560000000  0.5300240000000  0.4585910000000 1.0
C      1  0.5091940000000  0.4925950000000  0.4557380000000 1.0
C      1  0.5305320000000  0.4892420000000  0.5340820000000 1.0
C      1  0.4572470000000  0.4929100000000  0.5161140000000 1.0
C      1  0.4915980000000  0.4556110000000  0.5424040000000 1.0
C      1  0.4696760000000  0.4597190000000  0.4687350000000 1.0
C      1  0.5435650000000  0.4533640000000  0.4885910000000 1.0
C      1  0.5131850000000  0.4655940000000  0.4432970000000 1.0
C      1  0.5404930000000  0.4578930000000  0.5425730000000 1.0
C      1  0.4479410000000  0.4649080000000  0.5161390000000 1.0
C      1  0.4633450000000  0.5148130000000  0.4942560000000 1.0
C      1  0.5255170000000  0.5132550000000  0.4722800000000 1.0
C      1  0.5126320000000  0.5180930000000  0.5321590000000 1.0
C      1  0.4457720000000  0.5445100000000  0.4741630000000 1.0
C      1  0.5490750000000  0.5449550000000  0.4665540000000 1.0
C      1  0.5023080000000  0.5419230000000  0.5622920000000 1.0
C      1  0.4374870000000  0.4795250000000  0.4805860000000 1.0
C      1  0.5480820000000  0.4783020000000  0.4578860000000 1.0
C      1  0.5132180000000  0.4897010000000  0.5635310000000 1.0
C      1  0.5317600000000  0.4483460000000  0.4584770000000 1.0
C      1  0.5197110000000  0.4393380000000  0.5418600000000 1.0
C      1  0.4492990000000  0.4491560000000  0.4907320000000 1.0
C      1  0.4933570000000  0.4763880000000  0.5184830000000 1.0
C      1  0.4910030000000  0.4742810000000  0.4860620000000 1.0
C      1  0.5205410000000  0.4730040000000  0.4991590000000 1.0
C      1  0.5028160000000  0.5300010000000  0.4431290000000 1.0
C      1  0.5497780000000  0.5327500000000  0.5310230000000 1.0
C      1  0.4458990000000  0.5314510000000  0.5261690000000 1.0
C      1  0.5035970000000  0.5681770000000  0.4820500000000 1.0
C      1  0.5130300000000  0.5690980000000  0.5119640000000 1.0
C      1  0.4822610000000  0.5693870000000  0.5049820000000 1.0
C      1  0.5347150000000  0.5417400000000  0.4452630000000 1.0
C      1  0.5308300000000  0.5439210000000  0.5570520000000 1.0
C      1  0.4328020000000  0.5413700000000  0.4963450000000 1.0
C      1  0.4771070000000  0.4863210000000  0.4284570000000 1.0
C      1  0.5712800000000  0.4858050000000  0.5158000000000 1.0
C      1  0.4506230000000  0.4858290000000  0.5548140000000 1.0
C      1  0.5438830000000  0.4961760000000  0.5708350000000 1.0
C      1  0.4197220000000  0.4898990000000  0.5030420000000 1.0
C      1  0.5392070000000  0.4922910000000  0.4296470000000 1.0
C      1  0.5072580000000  0.5419070000000  0.4736450000000 1.0
C      1  0.5212810000000  0.5436560000000  0.5187760000000 1.0
C      1  0.4705390000000  0.5448980000000  0.5074350000000 1.0
C      1  0.5636980000000  0.4789110000000  0.4881000000000 1.0
C      1  0.4800390000000  0.4814640000000  0.5588790000000 1.0
C      1  0.4578640000000  0.4797780000000  0.4498150000000 1.0
C      1  0.5150940000000  0.4357990000000  0.4856500000000 1.0
C      1  0.4997230000000  0.4371220000000  0.5147640000000 1.0
C      1  0.4809340000000  0.4354420000000  0.4878920000000 1.0
C      1  0.5589470000000  0.5070490000000  0.4728540000000 1.0
C      1  0.4901370000000  0.5119310000000  0.5664260000000 1.0
C      1  0.4488140000000  0.5061780000000  0.4644080000000 1.0
C      1  0.4868890000000  0.5039150000000  0.4748200000000 1.0
C      1  0.5335790000000  0.5018150000000  0.5026340000000 1.0
C      1  0.4842430000000  0.5062880000000  0.5272740000000 1.0
C      1  0.4313350000000  0.5026450000000  0.5323790000000 1.0
C      1  0.5069860000000  0.5023080000000  0.4251830000000 1.0
C      1  0.5599710000000  0.5043010000000  0.5419990000000 1.0
END
