TITL C-1154803-8277-152 0.000154251087554636 125000 -325.945806903195 0 0 60 (C1) n - 1
REM
REM in /home/nfs/bkarasulu/CARBON/AIRSS/Generating-Clusters/AIREBO/Higher-Symm/Only-C60
REM
REM
REM
REM
REM
REM ./C.cell (28575a23ae977d3b5fae324c64b13b57)
REM
REM compiler GCC version 9.2.1 20190827 (Red Hat 9.2.1-1)
REM options -cpp -mtune=generic -march=x86-64 -g -O0 -fpre-include=/usr/include/finclude/math-vector-fortran.h
REM seed -1357732838 -1105461825 1435168925 1620700801 2101179624 1971602244 1191236132 -164394601 139648535 -1660464401 -591915041 1200382732 2142146868 -658578780 -16644038 1436014306 1512196424 -987527463 -90485572 -132530529 -957602259 -680314850 701281366 505990190 -782124625 116554671 1256592198 -359999815 -992534479 1046877036 -1786172654 -544839083 -529522590
REM
CELL 1.54180   50.00000   50.00000   50.00000   90.00000   90.00000   90.00000
LATT -1
SFAC C  
C      1  0.4801990000000  0.5396110000000  0.4547400000000 1.0
C      1  0.5494830000000  0.5376980000000  0.5114390000000 1.0
C      1  0.4707640000000  0.5337120000000  0.5332950000000 1.0
C      1  0.4391260000000  0.4861310000000  0.4705020000000 1.0
C      1  0.5532300000000  0.4871340000000  0.4646370000000 1.0
C      1  0.5076160000000  0.4847080000000  0.5703330000000 1.0
C      1  0.4484410000000  0.5135960000000  0.5256730000000 1.0
C      1  0.4988750000000  0.5118990000000  0.4484370000000 1.0
C      1  0.5499060000000  0.5107770000000  0.5322140000000 1.0
C      1  0.5312480000000  0.5338100000000  0.4403130000000 1.0
C      1  0.5373320000000  0.5367660000000  0.5596970000000 1.0
C      1  0.4264110000000  0.5367300000000  0.5018590000000 1.0
C      1  0.5023200000000  0.4935240000000  0.5222980000000 1.0
C      1  0.4898900000000  0.4950390000000  0.4773040000000 1.0
C      1  0.5141490000000  0.4964880000000  0.4959600000000 1.0
C      1  0.4759340000000  0.5593920000000  0.5388640000000 1.0
C      1  0.4695710000000  0.5636300000000  0.4577150000000 1.0
C      1  0.5562240000000  0.5591770000000  0.4973160000000 1.0
C      1  0.5448710000000  0.5568930000000  0.4477900000000 1.0
C      1  0.5206940000000  0.5588610000000  0.5620070000000 1.0
C      1  0.4289460000000  0.5599250000000  0.4869280000000 1.0
C      1  0.4994020000000  0.5696930000000  0.5487140000000 1.0
C      1  0.4495210000000  0.5725360000000  0.4740760000000 1.0
C      1  0.5494030000000  0.5681220000000  0.4723730000000 1.0
C      1  0.4469800000000  0.4731140000000  0.4977360000000 1.0
C      1  0.5278650000000  0.4733120000000  0.4517910000000 1.0
C      1  0.5292320000000  0.4702570000000  0.5522570000000 1.0
C      1  0.4546130000000  0.4450670000000  0.4556600000000 1.0
C      1  0.5592070000000  0.4450680000000  0.4822330000000 1.0
C      1  0.4848870000000  0.4455300000000  0.5592570000000 1.0
C      1  0.4676840000000  0.5099620000000  0.5651880000000 1.0
C      1  0.4603400000000  0.5095180000000  0.4379860000000 1.0
C      1  0.5733360000000  0.5079220000000  0.5002700000000 1.0
C      1  0.5403560000000  0.5126390000000  0.4934570000000 1.0
C      1  0.4928820000000  0.5142320000000  0.5427590000000 1.0
C      1  0.4661680000000  0.5153800000000  0.4709680000000 1.0
C      1  0.5121350000000  0.5239990000000  0.4195550000000 1.0
C      1  0.5657110000000  0.5318980000000  0.5536750000000 1.0
C      1  0.4180730000000  0.5285180000000  0.5290620000000 1.0
C      1  0.4524360000000  0.4722470000000  0.4496270000000 1.0
C      1  0.5644330000000  0.4721080000000  0.4853360000000 1.0
C      1  0.4815590000000  0.4727790000000  0.5645300000000 1.0
C      1  0.4512130000000  0.4622650000000  0.5242490000000 1.0
C      1  0.5036320000000  0.4603710000000  0.4405090000000 1.0
C      1  0.5485570000000  0.4573250000000  0.5341610000000 1.0
C      1  0.4824430000000  0.4836930000000  0.4388660000000 1.0
C      1  0.5592270000000  0.4818520000000  0.5169350000000 1.0
C      1  0.4590530000000  0.4860100000000  0.5426470000000 1.0
C      1  0.5045450000000  0.4382970000000  0.4646720000000 1.0
C      1  0.5277020000000  0.4381370000000  0.5192960000000 1.0
C      1  0.4714490000000  0.4418920000000  0.5114820000000 1.0
C      1  0.5067490000000  0.4687980000000  0.5337170000000 1.0
C      1  0.4733490000000  0.4702560000000  0.4835640000000 1.0
C      1  0.5209910000000  0.4702110000000  0.4810090000000 1.0
C      1  0.4959280000000  0.4391340000000  0.5293080000000 1.0
C      1  0.4771990000000  0.4387420000000  0.4782170000000 1.0
C      1  0.5286190000000  0.4398700000000  0.4887320000000 1.0
C      1  0.5316960000000  0.5116830000000  0.4621880000000 1.0
C      1  0.5227430000000  0.5096870000000  0.5529160000000 1.0
C      1  0.4434510000000  0.5123760000000  0.4916990000000 1.0
END
