TITL C-1154830-9999-289 0.00270334880225611 125000 -329.072553579242 0 0 60 (C1) n - 1
REM
REM in /home/nfs/bkarasulu/CARBON/AIRSS/Generating-Clusters/AIREBO/Higher-Symm/Only-C60
REM
REM
REM
REM
REM
REM ./C.cell (28575a23ae977d3b5fae324c64b13b57)
REM
REM compiler GCC version 9.2.1 20190827 (Red Hat 9.2.1-1)
REM options -cpp -mtune=generic -march=x86-64 -g -O0 -fpre-include=/usr/include/finclude/math-vector-fortran.h
REM seed 883708564 -332568273 725144507 232749453 696356278 622916016 -422201737 309352576 400785990 865253374 1539452124 -1559359999 -1561722905 716073412 1130684661 1050255109 -1041451396 811389915 1679455357 1500189448 -998465122 -905886491 -1077670072 1960647930 -1995754327 2027581419 -1113547997 -1855826782 46413715 -1958750958 1222745646 786097269 -492496155
REM
CELL 1.54180   50.00000   50.00000   50.00000   90.00000   90.00000   90.00000
LATT -1
SFAC C  
C      1  0.4929890000000  0.5332740000000  0.4659140000000 1.0
C      1  0.5340190000000  0.5270230000000  0.4856580000000 1.0
C      1  0.4905260000000  0.5147300000000  0.5666900000000 1.0
C      1  0.4552920000000  0.4556800000000  0.5377370000000 1.0
C      1  0.5196530000000  0.4344290000000  0.5358640000000 1.0
C      1  0.4875410000000  0.4597010000000  0.4379650000000 1.0
C      1  0.5200130000000  0.5695350000000  0.4577840000000 1.0
C      1  0.4702090000000  0.5280740000000  0.5429130000000 1.0
C      1  0.4959620000000  0.5674770000000  0.5161880000000 1.0
C      1  0.5005640000000  0.4845410000000  0.4662220000000 1.0
C      1  0.4321520000000  0.4544610000000  0.4925840000000 1.0
C      1  0.4987830000000  0.5101830000000  0.4467860000000 1.0
C      1  0.4460830000000  0.5096140000000  0.5351570000000 1.0
C      1  0.5558630000000  0.5373720000000  0.5257100000000 1.0
C      1  0.4728030000000  0.4882530000000  0.4463290000000 1.0
C      1  0.5029750000000  0.5217000000000  0.4984790000000 1.0
C      1  0.5471780000000  0.5289780000000  0.5502650000000 1.0
C      1  0.5110500000000  0.4663130000000  0.4244990000000 1.0
C      1  0.4812060000000  0.4869630000000  0.5769080000000 1.0
C      1  0.5339230000000  0.5601660000000  0.4837130000000 1.0
C      1  0.5507610000000  0.4786610000000  0.4538390000000 1.0
C      1  0.4864130000000  0.4471930000000  0.4644920000000 1.0
C      1  0.5122810000000  0.4399170000000  0.5059500000000 1.0
C      1  0.5158720000000  0.4710240000000  0.5207120000000 1.0
C      1  0.4701750000000  0.4614800000000  0.4825330000000 1.0
C      1  0.5428510000000  0.4653370000000  0.5645330000000 1.0
C      1  0.5393110000000  0.4641340000000  0.4892400000000 1.0
C      1  0.5224610000000  0.4643740000000  0.4629970000000 1.0
C      1  0.5258570000000  0.4823500000000  0.5485040000000 1.0
C      1  0.4943590000000  0.5690570000000  0.4483310000000 1.0
C      1  0.5363730000000  0.5154450000000  0.4590560000000 1.0
C      1  0.5259910000000  0.4931400000000  0.4355850000000 1.0
C      1  0.5447400000000  0.4480070000000  0.5406030000000 1.0
C      1  0.5111670000000  0.4378600000000  0.4785670000000 1.0
C      1  0.5013520000000  0.5255030000000  0.5301840000000 1.0
C      1  0.5023750000000  0.5454770000000  0.5582990000000 1.0
C      1  0.5352880000000  0.4923380000000  0.5071150000000 1.0
C      1  0.4933550000000  0.5690610000000  0.5470840000000 1.0
C      1  0.4339200000000  0.5250020000000  0.4885480000000 1.0
C      1  0.5212920000000  0.5112350000000  0.5525800000000 1.0
C      1  0.4882930000000  0.4475230000000  0.5369860000000 1.0
C      1  0.5581530000000  0.5150100000000  0.5051050000000 1.0
C      1  0.5210370000000  0.5765330000000  0.5098730000000 1.0
C      1  0.4715780000000  0.5496520000000  0.4487130000000 1.0
C      1  0.4440550000000  0.4849980000000  0.5439410000000 1.0
C      1  0.4751600000000  0.4638360000000  0.5639480000000 1.0
C      1  0.5558030000000  0.4639780000000  0.5175040000000 1.0
C      1  0.5491160000000  0.5616350000000  0.5141100000000 1.0
C      1  0.4435150000000  0.5303980000000  0.5136520000000 1.0
C      1  0.4762110000000  0.5422180000000  0.4941020000000 1.0
C      1  0.4951750000000  0.4920480000000  0.4940080000000 1.0
C      1  0.4376080000000  0.4455100000000  0.5150860000000 1.0
C      1  0.4442980000000  0.4742130000000  0.4705910000000 1.0
C      1  0.4460750000000  0.5057470000000  0.4579880000000 1.0
C      1  0.4366350000000  0.4793950000000  0.4378730000000 1.0
C      1  0.4836050000000  0.4673190000000  0.5106440000000 1.0
C      1  0.4491810000000  0.5346150000000  0.4445900000000 1.0
C      1  0.5721520000000  0.4798280000000  0.4697240000000 1.0
C      1  0.4649610000000  0.5551510000000  0.5228430000000 1.0
C      1  0.5724100000000  0.4853300000000  0.4966020000000 1.0
END
