TITL C-1154804-8633-279 -0.00173004891519293 125000 -331.409045915813 0 0 60 (C1) n - 1
REM
REM in /home/nfs/bkarasulu/CARBON/AIRSS/Generating-Clusters/AIREBO/Higher-Symm/Only-C60
REM
REM
REM
REM
REM
REM ./C.cell (28575a23ae977d3b5fae324c64b13b57)
REM
REM compiler GCC version 9.2.1 20190827 (Red Hat 9.2.1-1)
REM options -cpp -mtune=generic -march=x86-64 -g -O0 -fpre-include=/usr/include/finclude/math-vector-fortran.h
REM seed -529265114 -1369325992 1359477581 -1819259562 -382515206 -719167934 411148502 1152940808 -1998572961 -1658623030 995728634 976362834 1223300263 1190063177 279809225 -269837906 -1307775407 -2040372454 1414168294 -197199231 -1376043327 606929256 -1917179366 -628914463 712808780 2139567143 -1924169462 1134150085 863345247 -725441542 1983851064 -1710500 1114223191
REM
CELL 1.54180   50.00000   50.00000   50.00000   90.00000   90.00000   90.00000
LATT -1
SFAC C  
C      1  0.4695570000000  0.4408870000000  0.5306740000000 1.0
C      1  0.4720580000000  0.5584100000000  0.5299150000000 1.0
C      1  0.5474750000000  0.4928770000000  0.4324310000000 1.0
C      1  0.5439600000000  0.5200690000000  0.4391630000000 1.0
C      1  0.4683750000000  0.4373370000000  0.4548670000000 1.0
C      1  0.4615530000000  0.5658410000000  0.4532160000000 1.0
C      1  0.4679980000000  0.4710150000000  0.5437350000000 1.0
C      1  0.4737640000000  0.5280030000000  0.5429950000000 1.0
C      1  0.5614020000000  0.5043230000000  0.4742210000000 1.0
C      1  0.5678060000000  0.4803820000000  0.4784750000000 1.0
C      1  0.4954730000000  0.4788820000000  0.5280570000000 1.0
C      1  0.4934480000000  0.5118530000000  0.5235430000000 1.0
C      1  0.4427970000000  0.5120350000000  0.5041420000000 1.0
C      1  0.4338940000000  0.4802330000000  0.5064720000000 1.0
C      1  0.5188880000000  0.5159250000000  0.5697890000000 1.0
C      1  0.5173700000000  0.4857740000000  0.5679150000000 1.0
C      1  0.4429330000000  0.5402520000000  0.4895390000000 1.0
C      1  0.4432270000000  0.4592630000000  0.4905940000000 1.0
C      1  0.5678780000000  0.5141090000000  0.5124200000000 1.0
C      1  0.5677160000000  0.4891840000000  0.5174300000000 1.0
C      1  0.4960890000000  0.4429030000000  0.5454610000000 1.0
C      1  0.4993180000000  0.5584090000000  0.5442130000000 1.0
C      1  0.4929430000000  0.4662320000000  0.5663630000000 1.0
C      1  0.4954550000000  0.5361910000000  0.5667260000000 1.0
C      1  0.4849420000000  0.4827060000000  0.4978260000000 1.0
C      1  0.4741210000000  0.5124260000000  0.4973800000000 1.0
C      1  0.4623140000000  0.4406830000000  0.5046180000000 1.0
C      1  0.4633830000000  0.5576420000000  0.5039590000000 1.0
C      1  0.5337750000000  0.4727920000000  0.5412410000000 1.0
C      1  0.5370860000000  0.5288140000000  0.5442910000000 1.0
C      1  0.4999380000000  0.5338850000000  0.4577220000000 1.0
C      1  0.4978900000000  0.4758810000000  0.4606890000000 1.0
C      1  0.4530880000000  0.5178860000000  0.4466650000000 1.0
C      1  0.4508520000000  0.4839770000000  0.4482130000000 1.0
C      1  0.5287700000000  0.5552430000000  0.5019380000000 1.0
C      1  0.5282730000000  0.4423650000000  0.5040900000000 1.0
C      1  0.4824980000000  0.4538030000000  0.4810550000000 1.0
C      1  0.4825920000000  0.5389120000000  0.4853080000000 1.0
C      1  0.4806610000000  0.4893320000000  0.4436500000000 1.0
C      1  0.4835310000000  0.5182290000000  0.4382230000000 1.0
C      1  0.5075990000000  0.5615830000000  0.4852180000000 1.0
C      1  0.5106890000000  0.4348070000000  0.4844090000000 1.0
C      1  0.5259990000000  0.5210960000000  0.4638040000000 1.0
C      1  0.5211520000000  0.4900440000000  0.4768860000000 1.0
C      1  0.4464490000000  0.5156420000000  0.5378480000000 1.0
C      1  0.4442220000000  0.4860340000000  0.5343670000000 1.0
C      1  0.5499180000000  0.5287220000000  0.5757770000000 1.0
C      1  0.5477080000000  0.4707550000000  0.5721880000000 1.0
C      1  0.4902250000000  0.5659890000000  0.4573880000000 1.0
C      1  0.4964020000000  0.4239420000000  0.4586420000000 1.0
C      1  0.5253180000000  0.5145980000000  0.5184160000000 1.0
C      1  0.5241440000000  0.4817120000000  0.5098590000000 1.0
C      1  0.5383060000000  0.4756320000000  0.4519100000000 1.0
C      1  0.5546190000000  0.5421160000000  0.4272820000000 1.0
C      1  0.4464340000000  0.5419610000000  0.4612610000000 1.0
C      1  0.4476540000000  0.4592990000000  0.4622480000000 1.0
C      1  0.5518060000000  0.4640190000000  0.5009960000000 1.0
C      1  0.5434910000000  0.5268080000000  0.4924010000000 1.0
C      1  0.5232860000000  0.5532870000000  0.5296130000000 1.0
C      1  0.5194890000000  0.4469860000000  0.5302640000000 1.0
END
