TITL C-1154828-9214-367 -31.1172187954098 125000 -293.310524820927 0 0 60 (C1) n - 1
REM
REM in /home/nfs/bkarasulu/CARBON/AIRSS/Generating-Clusters/AIREBO/Higher-Symm/Only-C60
REM
REM
REM
REM
REM
REM ./C.cell (28575a23ae977d3b5fae324c64b13b57)
REM
REM compiler GCC version 9.2.1 20190827 (Red Hat 9.2.1-1)
REM options -cpp -mtune=generic -march=x86-64 -g -O0 -fpre-include=/usr/include/finclude/math-vector-fortran.h
REM seed -817413408 -1288991720 -1585919112 -1233290992 -1131852585 962054819 -1100052632 -1936133756 -237302753 -1854501185 -1710944331 -306540423 -845900127 99135147 1497398488 942794090 -857466063 1991865112 -1509257667 1156534336 -1036022197 1964092075 -1339618841 -1346323715 -41398400 1448567543 740559476 326248553 -1817506445 -1402810736 1629857900 348934313 -1259779606
REM
CELL 1.54180   50.00000   50.00000   50.00000   90.00000   90.00000   90.00000
LATT -1
SFAC C  
C      1  0.5313970000000  0.4468280000000  0.4771440000000 1.0
C      1  0.6014610000000  0.4812290000000  0.4974720000000 1.0
C      1  0.5451520000000  0.5472150000000  0.4771160000000 1.0
C      1  0.4884770000000  0.5697690000000  0.4873480000000 1.0
C      1  0.4378410000000  0.5406120000000  0.4893930000000 1.0
C      1  0.4332090000000  0.4814020000000  0.4864200000000 1.0
C      1  0.4701580000000  0.4335600000000  0.4853810000000 1.0
C      1  0.4798040000000  0.4609670000000  0.4756050000000 1.0
C      1  0.5115820000000  0.4719330000000  0.4830920000000 1.0
C      1  0.5287520000000  0.4996990000000  0.4926360000000 1.0
C      1  0.5200110000000  0.5314520000000  0.4868110000000 1.0
C      1  0.4873440000000  0.5395580000000  0.4827500000000 1.0
C      1  0.4602380000000  0.5219890000000  0.4801820000000 1.0
C      1  0.4595550000000  0.4882830000000  0.4757010000000 1.0
C      1  0.4833630000000  0.4683620000000  0.5404800000000 1.0
C      1  0.5168630000000  0.4741240000000  0.5392150000000 1.0
C      1  0.5483450000000  0.4778980000000  0.5438320000000 1.0
C      1  0.5257790000000  0.5259850000000  0.5455030000000 1.0
C      1  0.4968690000000  0.5412310000000  0.5440690000000 1.0
C      1  0.4678380000000  0.5282560000000  0.5422870000000 1.0
C      1  0.4635010000000  0.4958840000000  0.5382710000000 1.0
C      1  0.4952680000000  0.5753010000000  0.5167160000000 1.0
C      1  0.4389860000000  0.5461520000000  0.5198700000000 1.0
C      1  0.4309960000000  0.4830190000000  0.5170060000000 1.0
C      1  0.4717200000000  0.4330320000000  0.5165610000000 1.0
C      1  0.5353000000000  0.4334360000000  0.5069550000000 1.0
C      1  0.5778090000000  0.4844610000000  0.5083840000000 1.0
C      1  0.5505140000000  0.5462650000000  0.5083860000000 1.0
C      1  0.4398520000000  0.5244040000000  0.5533070000000 1.0
C      1  0.4458430000000  0.4736860000000  0.5527890000000 1.0
C      1  0.4956510000000  0.4412610000000  0.5473620000000 1.0
C      1  0.5665940000000  0.4496070000000  0.5475080000000 1.0
C      1  0.5668490000000  0.5038020000000  0.5439650000000 1.0
C      1  0.5341400000000  0.5552710000000  0.5476690000000 1.0
C      1  0.4800120000000  0.5650110000000  0.5521740000000 1.0
C      1  0.4723280000000  0.4660340000000  0.5084000000000 1.0
C      1  0.5121340000000  0.4564330000000  0.5124290000000 1.0
C      1  0.5452710000000  0.4796660000000  0.5099900000000 1.0
C      1  0.5385920000000  0.5176940000000  0.5193620000000 1.0
C      1  0.5110360000000  0.5459160000000  0.5141500000000 1.0
C      1  0.4714580000000  0.5432550000000  0.5119780000000 1.0
C      1  0.4517380000000  0.5086880000000  0.5090370000000 1.0
C      1  0.4472480000000  0.4549200000000  0.5276680000000 1.0
C      1  0.5047570000000  0.4253870000000  0.5211970000000 1.0
C      1  0.5619220000000  0.4521690000000  0.5168480000000 1.0
C      1  0.5706480000000  0.5193560000000  0.5173250000000 1.0
C      1  0.5296880000000  0.5713900000000  0.5211450000000 1.0
C      1  0.4621950000000  0.5708470000000  0.5277740000000 1.0
C      1  0.4249070000000  0.5151750000000  0.5281660000000 1.0
C      1  0.5134580000000  0.4975340000000  0.3522460000000 1.0
C      1  0.4934130000000  0.4948340000000  0.4560210000000 1.0
C      1  0.5068340000000  0.4974160000000  0.3776070000000 1.0
C      1  0.4987360000000  0.5009190000000  0.5821220000000 1.0
C      1  0.4893390000000  0.4967820000000  0.4897340000000 1.0
C      1  0.4913620000000  0.5009450000000  0.6074630000000 1.0
C      1  0.5051560000000  0.5030720000000  0.5526790000000 1.0
C      1  0.4966230000000  0.4959610000000  0.4298000000000 1.0
C      1  0.5018260000000  0.4953760000000  0.4036890000000 1.0
C      1  0.4836690000000  0.4984520000000  0.6323910000000 1.0
C      1  0.4996480000000  0.4959100000000  0.5195850000000 1.0
END
