TITL C-1154803-8277-595 -0.000403964722862424 125000 -335.204938565815 0 0 60 (C1) n - 1
REM
REM in /home/nfs/bkarasulu/CARBON/AIRSS/Generating-Clusters/AIREBO/Higher-Symm/Only-C60
REM
REM
REM
REM
REM
REM ./C.cell (28575a23ae977d3b5fae324c64b13b57)
REM
REM compiler GCC version 9.2.1 20190827 (Red Hat 9.2.1-1)
REM options -cpp -mtune=generic -march=x86-64 -g -O0 -fpre-include=/usr/include/finclude/math-vector-fortran.h
REM seed -740220067 -1211021732 57156323 57311022 -1609647004 -1144035344 -1553451929 439215531 -2006181886 -1944489090 -1410236222 652455230 1614929251 1236632313 183504140 -1959422845 -967007611 -1551550708 -86092822 817553140 -1058832173 1756199201 -1345488512 1190596445 -532438248 -596958363 -2100722591 475672832 734645087 -250310841 -680084025 -2018503268 -2058621303
REM
CELL 1.54180   50.00000   50.00000   50.00000   90.00000   90.00000   90.00000
LATT -1
SFAC C  
C      1  0.5118650000000  0.4802930000000  0.5253470000000 1.0
C      1  0.4997810000000  0.4537780000000  0.5123100000000 1.0
C      1  0.4677680000000  0.4958580000000  0.5062180000000 1.0
C      1  0.4506970000000  0.5249680000000  0.5104020000000 1.0
C      1  0.4949250000000  0.5283720000000  0.5151220000000 1.0
C      1  0.5264010000000  0.5280160000000  0.5091280000000 1.0
C      1  0.5359500000000  0.4959660000000  0.5103980000000 1.0
C      1  0.4957150000000  0.5629770000000  0.4531490000000 1.0
C      1  0.5442710000000  0.5218080000000  0.4582190000000 1.0
C      1  0.5527330000000  0.4766440000000  0.4406810000000 1.0
C      1  0.5179430000000  0.4295290000000  0.4499230000000 1.0
C      1  0.4694260000000  0.4457630000000  0.4470980000000 1.0
C      1  0.4392950000000  0.4835240000000  0.4682520000000 1.0
C      1  0.4538370000000  0.5371740000000  0.4544620000000 1.0
C      1  0.5430280000000  0.4474810000000  0.4476780000000 1.0
C      1  0.4928250000000  0.4374770000000  0.4611110000000 1.0
C      1  0.4444950000000  0.4533600000000  0.4598870000000 1.0
C      1  0.4504310000000  0.5121110000000  0.4729260000000 1.0
C      1  0.4708140000000  0.5583780000000  0.4670110000000 1.0
C      1  0.5182720000000  0.5673380000000  0.4687650000000 1.0
C      1  0.5560800000000  0.4960940000000  0.4641670000000 1.0
C      1  0.5135420000000  0.4709480000000  0.4351820000000 1.0
C      1  0.4810710000000  0.4659450000000  0.4256860000000 1.0
C      1  0.4641620000000  0.4854100000000  0.4468580000000 1.0
C      1  0.4703300000000  0.5171190000000  0.4362500000000 1.0
C      1  0.4997260000000  0.5348190000000  0.4363640000000 1.0
C      1  0.5288560000000  0.5198140000000  0.4345830000000 1.0
C      1  0.5342640000000  0.4941330000000  0.4226950000000 1.0
C      1  0.5124620000000  0.4680690000000  0.6197980000000 1.0
C      1  0.4886070000000  0.4688590000000  0.6060240000000 1.0
C      1  0.4798650000000  0.4877480000000  0.5883940000000 1.0
C      1  0.4750550000000  0.5202750000000  0.5872560000000 1.0
C      1  0.5076820000000  0.5161820000000  0.5854990000000 1.0
C      1  0.5286380000000  0.5100680000000  0.6018440000000 1.0
C      1  0.5313980000000  0.4881350000000  0.6183100000000 1.0
C      1  0.4957190000000  0.4578940000000  0.4841290000000 1.0
C      1  0.4780290000000  0.4835930000000  0.4779030000000 1.0
C      1  0.4752280000000  0.5302990000000  0.4874610000000 1.0
C      1  0.5038350000000  0.5274430000000  0.4693030000000 1.0
C      1  0.5313390000000  0.5399450000000  0.4808450000000 1.0
C      1  0.5416620000000  0.4824990000000  0.4848120000000 1.0
C      1  0.5218710000000  0.4651000000000  0.4676330000000 1.0
C      1  0.5563020000000  0.4975430000000  0.5370480000000 1.0
C      1  0.5247570000000  0.4527540000000  0.5574690000000 1.0
C      1  0.4729130000000  0.4545600000000  0.5329390000000 1.0
C      1  0.4358930000000  0.4902180000000  0.5433370000000 1.0
C      1  0.4557950000000  0.5443180000000  0.5364720000000 1.0
C      1  0.5020970000000  0.5680330000000  0.5443920000000 1.0
C      1  0.5418180000000  0.5420860000000  0.5320310000000 1.0
C      1  0.5379030000000  0.4755900000000  0.5445960000000 1.0
C      1  0.5010810000000  0.4448070000000  0.5446890000000 1.0
C      1  0.4562240000000  0.4758790000000  0.5289500000000 1.0
C      1  0.4360480000000  0.5182300000000  0.5388390000000 1.0
C      1  0.4831800000000  0.5502320000000  0.5344120000000 1.0
C      1  0.5293670000000  0.5651430000000  0.5416420000000 1.0
C      1  0.5611810000000  0.5246010000000  0.5429940000000 1.0
C      1  0.4947090000000  0.4970830000000  0.4245900000000 1.0
C      1  0.4884690000000  0.5041870000000  0.5599000000000 1.0
C      1  0.4904340000000  0.5005590000000  0.5311570000000 1.0
C      1  0.4989820000000  0.5000290000000  0.4581970000000 1.0
END
