TITL C-1154830-9999-682 0.00378735572653972 125000 -311.284137286556 0 0 60 (C1) n - 1
REM
REM in /home/nfs/bkarasulu/CARBON/AIRSS/Generating-Clusters/AIREBO/Higher-Symm/Only-C60
REM
REM
REM
REM
REM
REM ./C.cell (28575a23ae977d3b5fae324c64b13b57)
REM
REM compiler GCC version 9.2.1 20190827 (Red Hat 9.2.1-1)
REM options -cpp -mtune=generic -march=x86-64 -g -O0 -fpre-include=/usr/include/finclude/math-vector-fortran.h
REM seed 473591041 -1237674412 -663620656 -2141582260 -1473319228 -465149605 1185359774 -381182427 273474945 1520173132 -806213234 1393511680 -1310363335 -1525982798 1572502712 1317860842 246725030 -1234596886 -1628695725 -1749685000 -1755349366 -965706396 1824295091 141219163 1139412344 855352067 1341243215 -1967665452 497064178 -547851853 -68533945 -789255652 816881719
REM
CELL 1.54180   50.00000   50.00000   50.00000   90.00000   90.00000   90.00000
LATT -1
SFAC C  
C      1  0.5010460000000  0.4100770000000  0.4726310000000 1.0
C      1  0.5650240000000  0.5463440000000  0.4760700000000 1.0
C      1  0.4301590000000  0.5297600000000  0.4787770000000 1.0
C      1  0.5198720000000  0.4886900000000  0.5551090000000 1.0
C      1  0.5191900000000  0.5347030000000  0.5586940000000 1.0
C      1  0.4644840000000  0.4846040000000  0.5530960000000 1.0
C      1  0.6054140000000  0.4930180000000  0.4899900000000 1.0
C      1  0.4508990000000  0.5942660000000  0.4916490000000 1.0
C      1  0.4452230000000  0.4072650000000  0.4765490000000 1.0
C      1  0.4335440000000  0.5258140000000  0.5290630000000 1.0
C      1  0.5071810000000  0.4360640000000  0.5330440000000 1.0
C      1  0.5557630000000  0.5444830000000  0.5284680000000 1.0
C      1  0.5020080000000  0.5431510000000  0.4885620000000 1.0
C      1  0.4599240000000  0.4689390000000  0.4765610000000 1.0
C      1  0.5276690000000  0.4740980000000  0.4883900000000 1.0
C      1  0.5787590000000  0.4915120000000  0.4983900000000 1.0
C      1  0.4672440000000  0.5733500000000  0.5001770000000 1.0
C      1  0.4530670000000  0.4326770000000  0.4910680000000 1.0
C      1  0.4606900000000  0.4621950000000  0.5062120000000 1.0
C      1  0.5463620000000  0.4904850000000  0.5087310000000 1.0
C      1  0.4819200000000  0.5464240000000  0.5149280000000 1.0
C      1  0.5597120000000  0.4453790000000  0.5184860000000 1.0
C      1  0.5174510000000  0.5855550000000  0.5192950000000 1.0
C      1  0.4312920000000  0.4683060000000  0.5220260000000 1.0
C      1  0.4927280000000  0.5844060000000  0.5175020000000 1.0
C      1  0.4285420000000  0.4400340000000  0.5130440000000 1.0
C      1  0.5752230000000  0.4647470000000  0.5176400000000 1.0
C      1  0.4412650000000  0.4860630000000  0.4660740000000 1.0
C      1  0.5328710000000  0.4521010000000  0.4642500000000 1.0
C      1  0.5205450000000  0.5573630000000  0.4693990000000 1.0
C      1  0.4944850000000  0.5276280000000  0.5387960000000 1.0
C      1  0.4793500000000  0.4785550000000  0.5231200000000 1.0
C      1  0.5243000000000  0.5040070000000  0.5264420000000 1.0
C      1  0.5302420000000  0.4428200000000  0.5132430000000 1.0
C      1  0.5365150000000  0.5626650000000  0.5123330000000 1.0
C      1  0.4408430000000  0.4974580000000  0.5140500000000 1.0
C      1  0.5341360000000  0.5019280000000  0.4708080000000 1.0
C      1  0.4819280000000  0.5244930000000  0.4713270000000 1.0
C      1  0.4882920000000  0.4666150000000  0.4636310000000 1.0
C      1  0.5194720000000  0.4350800000000  0.4858590000000 1.0
C      1  0.5442500000000  0.5625310000000  0.4829030000000 1.0
C      1  0.4311600000000  0.5034290000000  0.4851570000000 1.0
C      1  0.5191190000000  0.5337680000000  0.5166990000000 1.0
C      1  0.4702420000000  0.5112890000000  0.5243820000000 1.0
C      1  0.5119310000000  0.4731720000000  0.5191870000000 1.0
C      1  0.5458090000000  0.5413130000000  0.5548700000000 1.0
C      1  0.4469720000000  0.5083790000000  0.5518230000000 1.0
C      1  0.5137420000000  0.4603580000000  0.5506660000000 1.0
C      1  0.4857760000000  0.4396060000000  0.4848530000000 1.0
C      1  0.5606990000000  0.5147880000000  0.4813830000000 1.0
C      1  0.4578890000000  0.5449760000000  0.4839210000000 1.0
C      1  0.5203670000000  0.5440620000000  0.4427780000000 1.0
C      1  0.4516560000000  0.4971150000000  0.4399880000000 1.0
C      1  0.5333840000000  0.4611790000000  0.4336270000000 1.0
C      1  0.4870890000000  0.4268670000000  0.5163690000000 1.0
C      1  0.5696700000000  0.5281850000000  0.5113500000000 1.0
C      1  0.4408000000000  0.5467220000000  0.5132960000000 1.0
C      1  0.5116930000000  0.5203010000000  0.4572610000000 1.0
C      1  0.4776970000000  0.4976760000000  0.4546090000000 1.0
C      1  0.5154190000000  0.4811640000000  0.4513890000000 1.0
END
