TITL C-1154810-7815-236 0.000480276565660126 125000 -356.659770577797 0 0 60 (C1) n - 1
REM
REM in /home/nfs/bkarasulu/CARBON/AIRSS/Generating-Clusters/AIREBO/Higher-Symm/Only-C60
REM
REM
REM
REM
REM
REM ./C.cell (28575a23ae977d3b5fae324c64b13b57)
REM
REM compiler GCC version 9.2.1 20190827 (Red Hat 9.2.1-1)
REM options -cpp -mtune=generic -march=x86-64 -g -O0 -fpre-include=/usr/include/finclude/math-vector-fortran.h
REM seed -903979090 -1243979289 -1475976630 12779694 870509630 2133788078 -220121867 -570864531 -1718773911 -1748968916 9984064 -357160107 1444282922 276644597 1761771403 -1461051512 1810432203 -312607361 -314276061 1812497246 -230798351 -1337003619 -1442166900 -1408251623 -1616828084 1344727764 -713177585 1806928801 1749616469 -1970813192 -1500251165 309463189 1325567656
REM
CELL 1.54180   50.00000   50.00000   50.00000   90.00000   90.00000   90.00000
LATT -1
SFAC C  
C      1  0.4723630000000  0.5319190000000  0.5813770000000 1.0
C      1  0.4448290000000  0.5346180000000  0.4325850000000 1.0
C      1  0.5890850000000  0.5379780000000  0.4844320000000 1.0
C      1  0.4655800000000  0.4625320000000  0.5809460000000 1.0
C      1  0.4471330000000  0.4638170000000  0.4290810000000 1.0
C      1  0.5847190000000  0.4676140000000  0.4878930000000 1.0
C      1  0.4687080000000  0.5376150000000  0.4201450000000 1.0
C      1  0.4485410000000  0.5371290000000  0.5695920000000 1.0
C      1  0.5902330000000  0.5416030000000  0.5114080000000 1.0
C      1  0.4711070000000  0.4682280000000  0.4171130000000 1.0
C      1  0.4431480000000  0.4679240000000  0.5667260000000 1.0
C      1  0.5837480000000  0.4707030000000  0.5146850000000 1.0
C      1  0.4473220000000  0.4585370000000  0.4829900000000 1.0
C      1  0.5397290000000  0.4574310000000  0.4627940000000 1.0
C      1  0.5124710000000  0.4597590000000  0.5555660000000 1.0
C      1  0.4466060000000  0.5427850000000  0.4853710000000 1.0
C      1  0.5394980000000  0.5304210000000  0.4612330000000 1.0
C      1  0.5149410000000  0.5326620000000  0.5486600000000 1.0
C      1  0.4463170000000  0.4636470000000  0.5136940000000 1.0
C      1  0.5372540000000  0.4662560000000  0.5391960000000 1.0
C      1  0.5130420000000  0.4628300000000  0.4498300000000 1.0
C      1  0.4469740000000  0.5368010000000  0.5160610000000 1.0
C      1  0.5403130000000  0.5394980000000  0.5342860000000 1.0
C      1  0.5121780000000  0.5314610000000  0.4508290000000 1.0
C      1  0.5015070000000  0.4617500000000  0.4245500000000 1.0
C      1  0.5650140000000  0.4650820000000  0.5400150000000 1.0
C      1  0.4316860000000  0.4626740000000  0.5372340000000 1.0
C      1  0.5003050000000  0.5387950000000  0.4268210000000 1.0
C      1  0.5673090000000  0.5428540000000  0.5340030000000 1.0
C      1  0.4350880000000  0.5408910000000  0.5404660000000 1.0
C      1  0.4975590000000  0.4578450000000  0.5784790000000 1.0
C      1  0.5673960000000  0.4583740000000  0.4624350000000 1.0
C      1  0.4348230000000  0.4612120000000  0.4586870000000 1.0
C      1  0.5031810000000  0.5356570000000  0.5736420000000 1.0
C      1  0.5658160000000  0.5362630000000  0.4623540000000 1.0
C      1  0.4324990000000  0.5409720000000  0.4613940000000 1.0
C      1  0.4942780000000  0.4909670000000  0.4141970000000 1.0
C      1  0.5785840000000  0.4939330000000  0.5368810000000 1.0
C      1  0.4280400000000  0.4916740000000  0.5501780000000 1.0
C      1  0.4887630000000  0.5165410000000  0.4060990000000 1.0
C      1  0.5892080000000  0.5189590000000  0.5345730000000 1.0
C      1  0.4251190000000  0.5169740000000  0.5602630000000 1.0
C      1  0.4860980000000  0.4830880000000  0.5953450000000 1.0
C      1  0.5795390000000  0.4879520000000  0.4631410000000 1.0
C      1  0.4261380000000  0.4860270000000  0.4397860000000 1.0
C      1  0.4936170000000  0.5076250000000  0.5857190000000 1.0
C      1  0.5889650000000  0.5135400000000  0.4634230000000 1.0
C      1  0.4289980000000  0.5114470000000  0.4492110000000 1.0
C      1  0.4723530000000  0.5271330000000  0.4870650000000 1.0
C      1  0.5241130000000  0.5102970000000  0.4825640000000 1.0
C      1  0.4992620000000  0.5104470000000  0.5302200000000 1.0
C      1  0.4741780000000  0.4714690000000  0.4866610000000 1.0
C      1  0.5266430000000  0.4767090000000  0.4844810000000 1.0
C      1  0.4996800000000  0.4770120000000  0.5322490000000 1.0
C      1  0.4714340000000  0.5151570000000  0.5162190000000 1.0
C      1  0.5270230000000  0.5191570000000  0.5132510000000 1.0
C      1  0.4933150000000  0.5152380000000  0.4701650000000 1.0
C      1  0.4733650000000  0.4833500000000  0.5164160000000 1.0
C      1  0.5266350000000  0.4860770000000  0.5143650000000 1.0
C      1  0.4966310000000  0.4830910000000  0.4709560000000 1.0
END
