TITL C-1154801-8518-285 -0.00066806047534575 125000 -368.0944878464 0 0 60 (C1) n - 1
REM
REM in /home/nfs/bkarasulu/CARBON/AIRSS/Generating-Clusters/AIREBO/Higher-Symm/Only-C60
REM
REM
REM
REM
REM
REM ./C.cell (28575a23ae977d3b5fae324c64b13b57)
REM
REM compiler GCC version 9.2.1 20190827 (Red Hat 9.2.1-1)
REM options -cpp -mtune=generic -march=x86-64 -g -O0 -fpre-include=/usr/include/finclude/math-vector-fortran.h
REM seed -1247221807 1805352376 1068512651 1597543676 621396724 -861905012 1735866143 -1260249277 -977705992 -1630747910 -251704077 476082257 383067591 -398074285 1791986836 1031497566 181114519 -354356393 -1684856880 350738998 -1984053823 -443870407 1476911858 -1147364030 -1656786481 -1828100750 -1052124185 -742480053 -1053639812 -56369180 -421295676 -1503462551 1493855054
REM
CELL 1.54180   50.00000   50.00000   50.00000   90.00000   90.00000   90.00000
LATT -1
SFAC C  
C      1  0.4551490000000  0.4492760000000  0.5144380000000 1.0
C      1  0.5369290000000  0.4363320000000  0.5093840000000 1.0
C      1  0.5867440000000  0.5092780000000  0.5074720000000 1.0
C      1  0.5067400000000  0.5757720000000  0.5059770000000 1.0
C      1  0.4254500000000  0.5383370000000  0.5045050000000 1.0
C      1  0.4497060000000  0.5528780000000  0.5099370000000 1.0
C      1  0.5342170000000  0.5622030000000  0.5125780000000 1.0
C      1  0.5725920000000  0.4838740000000  0.5101630000000 1.0
C      1  0.5084030000000  0.4236520000000  0.5043780000000 1.0
C      1  0.4374130000000  0.4716300000000  0.5152280000000 1.0
C      1  0.4287480000000  0.5133050000000  0.4906710000000 1.0
C      1  0.4641550000000  0.4378130000000  0.4896460000000 1.0
C      1  0.5457280000000  0.4495270000000  0.4857610000000 1.0
C      1  0.5714750000000  0.5308890000000  0.4958170000000 1.0
C      1  0.4838380000000  0.5832850000000  0.4906780000000 1.0
C      1  0.4264980000000  0.4824000000000  0.4913990000000 1.0
C      1  0.4640380000000  0.5629070000000  0.4871420000000 1.0
C      1  0.5506710000000  0.5542270000000  0.4905650000000 1.0
C      1  0.5635440000000  0.4719310000000  0.4854820000000 1.0
C      1  0.4836940000000  0.4165820000000  0.4917160000000 1.0
C      1  0.4758820000000  0.4660520000000  0.5571310000000 1.0
C      1  0.5241840000000  0.4640430000000  0.5651330000000 1.0
C      1  0.5404620000000  0.5125900000000  0.5704220000000 1.0
C      1  0.5002930000000  0.5426310000000  0.5696980000000 1.0
C      1  0.4618160000000  0.5130220000000  0.5709130000000 1.0
C      1  0.4752830000000  0.5349970000000  0.5594760000000 1.0
C      1  0.5242330000000  0.5325500000000  0.5592660000000 1.0
C      1  0.5412520000000  0.4870210000000  0.5590610000000 1.0
C      1  0.4979590000000  0.4609550000000  0.5738970000000 1.0
C      1  0.4595630000000  0.4889110000000  0.5564700000000 1.0
C      1  0.4500140000000  0.4864710000000  0.4700010000000 1.0
C      1  0.4989570000000  0.4575130000000  0.4844990000000 1.0
C      1  0.5532280000000  0.4921520000000  0.4686620000000 1.0
C      1  0.5279470000000  0.5392690000000  0.4705140000000 1.0
C      1  0.4731850000000  0.5375760000000  0.4704310000000 1.0
C      1  0.4609000000000  0.5133860000000  0.4837810000000 1.0
C      1  0.5006560000000  0.5425630000000  0.4845630000000 1.0
C      1  0.5444730000000  0.5155250000000  0.4849930000000 1.0
C      1  0.5225120000000  0.4540940000000  0.4694790000000 1.0
C      1  0.4710440000000  0.4601910000000  0.4681080000000 1.0
C      1  0.5242590000000  0.4660840000000  0.4436990000000 1.0
C      1  0.5374540000000  0.5128370000000  0.4298000000000 1.0
C      1  0.4999130000000  0.5439980000000  0.4304210000000 1.0
C      1  0.4612820000000  0.5128800000000  0.4297330000000 1.0
C      1  0.4768870000000  0.4639330000000  0.4357730000000 1.0
C      1  0.5243550000000  0.5350880000000  0.4409060000000 1.0
C      1  0.5407010000000  0.4887780000000  0.4440180000000 1.0
C      1  0.5027890000000  0.4599550000000  0.4265930000000 1.0
C      1  0.4601660000000  0.4871490000000  0.4406900000000 1.0
C      1  0.4758090000000  0.5342180000000  0.4408200000000 1.0
C      1  0.5484070000000  0.4866200000000  0.5284290000000 1.0
C      1  0.5259750000000  0.5350750000000  0.5296810000000 1.0
C      1  0.4714280000000  0.5391050000000  0.5295920000000 1.0
C      1  0.4485930000000  0.4929470000000  0.5306290000000 1.0
C      1  0.5022140000000  0.4538300000000  0.5171240000000 1.0
C      1  0.5343180000000  0.5099940000000  0.5144840000000 1.0
C      1  0.5306410000000  0.4583940000000  0.5334220000000 1.0
C      1  0.4766900000000  0.4528040000000  0.5324020000000 1.0
C      1  0.4599360000000  0.5134340000000  0.5156690000000 1.0
C      1  0.4986050000000  0.5452680000000  0.5166790000000 1.0
END
