TITL C-1154823-9327-63 0.00017280019560627 125000 -336.221973663331 0 0 60 (C1) n - 1
REM
REM in /home/nfs/bkarasulu/CARBON/AIRSS/Generating-Clusters/AIREBO/Higher-Symm/Only-C60
REM
REM
REM
REM
REM
REM ./C.cell (28575a23ae977d3b5fae324c64b13b57)
REM
REM compiler GCC version 9.2.1 20190827 (Red Hat 9.2.1-1)
REM options -cpp -mtune=generic -march=x86-64 -g -O0 -fpre-include=/usr/include/finclude/math-vector-fortran.h
REM seed 269702407 -2134115709 1400715952 -1344727049 1623943048 148013770 -1142152047 -1476129679 1412866905 2140955667 -389334543 767714896 -244583152 -1976891816 489296631 -181736129 351769169 -1183408619 1243305721 -28658872 267109305 -579799307 -49215689 1070767243 -822466611 220846948 -1826837624 -1188062099 -467039737 1922191513 1028477965 383691973 2080016675
REM
CELL 1.54180   50.00000   50.00000   50.00000   90.00000   90.00000   90.00000
LATT -1
SFAC C  
C      1  0.4512930000000  0.4494640000000  0.5901190000000 1.0
C      1  0.4052350000000  0.5285260000000  0.4813700000000 1.0
C      1  0.4823540000000  0.4154000000000  0.4585930000000 1.0
C      1  0.5144720000000  0.5252400000000  0.5495600000000 1.0
C      1  0.4947210000000  0.4836040000000  0.4259180000000 1.0
C      1  0.4315550000000  0.5370700000000  0.4841950000000 1.0
C      1  0.5347840000000  0.5616920000000  0.5127520000000 1.0
C      1  0.4526860000000  0.5137430000000  0.4795490000000 1.0
C      1  0.4671420000000  0.5031780000000  0.5054300000000 1.0
C      1  0.5467970000000  0.5379700000000  0.5227550000000 1.0
C      1  0.4860700000000  0.4755020000000  0.5305060000000 1.0
C      1  0.4694380000000  0.4966760000000  0.5752320000000 1.0
C      1  0.5151210000000  0.5443050000000  0.4364390000000 1.0
C      1  0.4751580000000  0.4609970000000  0.4751430000000 1.0
C      1  0.5458220000000  0.4431820000000  0.5035570000000 1.0
C      1  0.4950410000000  0.4905660000000  0.5537050000000 1.0
C      1  0.5156340000000  0.5055830000000  0.5232030000000 1.0
C      1  0.4559020000000  0.5014430000000  0.5340280000000 1.0
C      1  0.5261360000000  0.5615690000000  0.4847070000000 1.0
C      1  0.4655220000000  0.5223430000000  0.5532750000000 1.0
C      1  0.5429880000000  0.4706660000000  0.5081480000000 1.0
C      1  0.4913380000000  0.5216750000000  0.5082630000000 1.0
C      1  0.4033600000000  0.5018750000000  0.4734960000000 1.0
C      1  0.4592890000000  0.4758000000000  0.4573950000000 1.0
C      1  0.5561780000000  0.4939340000000  0.4607860000000 1.0
C      1  0.5147620000000  0.4701490000000  0.4370720000000 1.0
C      1  0.4727710000000  0.5200960000000  0.4540220000000 1.0
C      1  0.5564490000000  0.5215620000000  0.4486590000000 1.0
C      1  0.5541110000000  0.4269490000000  0.5235310000000 1.0
C      1  0.5597550000000  0.4890190000000  0.5201870000000 1.0
C      1  0.4916280000000  0.5688500000000  0.5403310000000 1.0
C      1  0.4911330000000  0.4401120000000  0.4663550000000 1.0
C      1  0.5298280000000  0.4801050000000  0.4640870000000 1.0
C      1  0.5727720000000  0.4932680000000  0.4826900000000 1.0
C      1  0.4889760000000  0.5435610000000  0.5545820000000 1.0
C      1  0.4982310000000  0.5551300000000  0.4779130000000 1.0
C      1  0.5666560000000  0.5180670000000  0.5038690000000 1.0
C      1  0.5143020000000  0.5481820000000  0.4096510000000 1.0
C      1  0.4337200000000  0.4886170000000  0.4683480000000 1.0
C      1  0.4056230000000  0.4707480000000  0.4757820000000 1.0
C      1  0.4664330000000  0.4639400000000  0.5716610000000 1.0
C      1  0.4494340000000  0.4778370000000  0.5462530000000 1.0
C      1  0.4740080000000  0.5685050000000  0.5184340000000 1.0
C      1  0.5183230000000  0.5759190000000  0.5320240000000 1.0
C      1  0.4737800000000  0.4943750000000  0.4412670000000 1.0
C      1  0.5454170000000  0.5269000000000  0.4806220000000 1.0
C      1  0.4954030000000  0.5367750000000  0.4559530000000 1.0
C      1  0.5204800000000  0.4480510000000  0.4620880000000 1.0
C      1  0.5187990000000  0.4596810000000  0.5622590000000 1.0
C      1  0.5504460000000  0.4092820000000  0.4687860000000 1.0
C      1  0.4950970000000  0.4525330000000  0.5660030000000 1.0
C      1  0.5164220000000  0.5186540000000  0.4855670000000 1.0
C      1  0.5401230000000  0.5500430000000  0.4562790000000 1.0
C      1  0.5510070000000  0.5121620000000  0.5399480000000 1.0
C      1  0.4821860000000  0.5496060000000  0.4998010000000 1.0
C      1  0.4967540000000  0.5157140000000  0.5769700000000 1.0
C      1  0.5287030000000  0.4882830000000  0.5494030000000 1.0
C      1  0.5397190000000  0.4325420000000  0.4784780000000 1.0
C      1  0.5170420000000  0.4860010000000  0.4950350000000 1.0
C      1  0.4856710000000  0.4767790000000  0.4979640000000 1.0
END
