TITL C-1154810-7815-415 -0.00156497644224226 125000 -342.951532067133 0 0 60 (C2) n - 1
REM
REM in /home/nfs/bkarasulu/CARBON/AIRSS/Generating-Clusters/AIREBO/Higher-Symm/Only-C60
REM
REM
REM
REM
REM
REM ./C.cell (28575a23ae977d3b5fae324c64b13b57)
REM
REM compiler GCC version 9.2.1 20190827 (Red Hat 9.2.1-1)
REM options -cpp -mtune=generic -march=x86-64 -g -O0 -fpre-include=/usr/include/finclude/math-vector-fortran.h
REM seed 1714891237 807138243 1686568350 590105407 1445862922 -1120846404 571617467 275743764 1521482654 361899329 66778533 402618826 2037764911 -1097869185 1080662277 -1246235710 -446289226 -1135854825 335974289 -2019021468 1788579544 -1948618096 1482364741 -538678538 827490477 1727048166 1930219664 709150575 -415006432 -355715550 899595619 585348012 -470972497
REM
CELL 1.54180   50.00000   50.00000   50.00000   90.00000   90.00000   90.00000
LATT -1
SFAC C  
C      1  0.4691660000000  0.4412400000000  0.4870740000000 1.0
C      1  0.4678550000000  0.4832140000000  0.4397620000000 1.0
C      1  0.4686720000000  0.5450200000000  0.4549830000000 1.0
C      1  0.4691660000000  0.5587600000000  0.5129260000000 1.0
C      1  0.4678550000000  0.5167860000000  0.5602380000000 1.0
C      1  0.4686720000000  0.4549790000000  0.5450170000000 1.0
C      1  0.5324900000000  0.4425010000000  0.4759400000000 1.0
C      1  0.5283180000000  0.4817090000000  0.4489230000000 1.0
C      1  0.5322700000000  0.5477280000000  0.4604880000000 1.0
C      1  0.5324900000000  0.5575000000000  0.5240600000000 1.0
C      1  0.5283180000000  0.5182910000000  0.5510770000000 1.0
C      1  0.5322700000000  0.4522720000000  0.5395120000000 1.0
C      1  0.4785060000000  0.4919280000000  0.4706180000000 1.0
C      1  0.4818500000000  0.5233360000000  0.4768160000000 1.0
C      1  0.4861940000000  0.5302780000000  0.5080420000000 1.0
C      1  0.4785060000000  0.5080710000000  0.5293820000000 1.0
C      1  0.4818500000000  0.4766640000000  0.5231840000000 1.0
C      1  0.4861940000000  0.4697220000000  0.4919580000000 1.0
C      1  0.5098620000000  0.4955830000000  0.4720140000000 1.0
C      1  0.5152030000000  0.5265160000000  0.4808550000000 1.0
C      1  0.5194450000000  0.5305490000000  0.5114250000000 1.0
C      1  0.5098620000000  0.5044180000000  0.5279860000000 1.0
C      1  0.5152030000000  0.4734840000000  0.5191450000000 1.0
C      1  0.5194450000000  0.4694520000000  0.4885750000000 1.0
C      1  0.4415190000000  0.4800710000000  0.4800500000000 1.0
C      1  0.4414920000000  0.5069400000000  0.4727050000000 1.0
C      1  0.4400520000000  0.5266500000000  0.4926540000000 1.0
C      1  0.4415190000000  0.5199280000000  0.5199510000000 1.0
C      1  0.4414920000000  0.4930590000000  0.5272950000000 1.0
C      1  0.4400520000000  0.4733500000000  0.5073460000000 1.0
C      1  0.5627310000000  0.4816810000000  0.4783610000000 1.0
C      1  0.5602510000000  0.5101560000000  0.4726100000000 1.0
C      1  0.5607400000000  0.5278680000000  0.4949420000000 1.0
C      1  0.5627310000000  0.5183200000000  0.5216390000000 1.0
C      1  0.5602520000000  0.4898440000000  0.5273900000000 1.0
C      1  0.5607400000000  0.4721320000000  0.5050580000000 1.0
C      1  0.4581220000000  0.5407280000000  0.5395520000000 1.0
C      1  0.4580240000000  0.4847990000000  0.5541950000000 1.0
C      1  0.4553090000000  0.4480150000000  0.5147840000000 1.0
C      1  0.4581230000000  0.4592720000000  0.4604480000000 1.0
C      1  0.4580240000000  0.5152010000000  0.4458050000000 1.0
C      1  0.4553090000000  0.5519840000000  0.4852160000000 1.0
C      1  0.5474760000000  0.5341690000000  0.5396320000000 1.0
C      1  0.5414590000000  0.4807490000000  0.5483090000000 1.0
C      1  0.5428680000000  0.4439820000000  0.5082840000000 1.0
C      1  0.5474760000000  0.4658320000000  0.4603680000000 1.0
C      1  0.5414590000000  0.5192520000000  0.4516900000000 1.0
C      1  0.5428670000000  0.5560180000000  0.4917160000000 1.0
C      1  0.4851130000000  0.5665830000000  0.4754950000000 1.0
C      1  0.4844770000000  0.5631020000000  0.5411240000000 1.0
C      1  0.4895090000000  0.4913000000000  0.5663750000000 1.0
C      1  0.4851140000000  0.4334170000000  0.5245050000000 1.0
C      1  0.4844780000000  0.4368970000000  0.4588760000000 1.0
C      1  0.4895090000000  0.5087000000000  0.4336260000000 1.0
C      1  0.5131850000000  0.5678880000000  0.4786680000000 1.0
C      1  0.5104730000000  0.5714520000000  0.5411700000000 1.0
C      1  0.5173690000000  0.4932920000000  0.5655890000000 1.0
C      1  0.5131860000000  0.4321120000000  0.5213320000000 1.0
C      1  0.5104730000000  0.4285480000000  0.4588290000000 1.0
C      1  0.5173680000000  0.5067090000000  0.4344110000000 1.0
END
