TITL C-1154828-9214-637 0.000443504028223582 125000 -289.351820243091 0 0 60 (C1) n - 1
REM
REM in /home/nfs/bkarasulu/CARBON/AIRSS/Generating-Clusters/AIREBO/Higher-Symm/Only-C60
REM
REM
REM
REM
REM
REM ./C.cell (28575a23ae977d3b5fae324c64b13b57)
REM
REM compiler GCC version 9.2.1 20190827 (Red Hat 9.2.1-1)
REM options -cpp -mtune=generic -march=x86-64 -g -O0 -fpre-include=/usr/include/finclude/math-vector-fortran.h
REM seed 138760933 1047091126 2066193909 -463718420 -777827281 1889331687 1105884888 -1622164116 -1951169219 -39511958 1353495547 -1669481425 -1765714888 -1379967565 636293768 125997524 -797646201 -583869841 1611112626 1206806263 223764628 1023330635 -1073332761 635882647 1376154012 1715709195 -2125889325 -477337306 2024934199 -1801493810 536966701 1069355743 457986066
REM
CELL 1.54180   50.00000   50.00000   50.00000   90.00000   90.00000   90.00000
LATT -1
SFAC C  
C      1  0.5197380000000  0.5634130000000  0.5395550000000 1.0
C      1  0.5382280000000  0.5195660000000  0.5633200000000 1.0
C      1  0.5630450000000  0.5394350000000  0.5194650000000 1.0
C      1  0.4823160000000  0.5659720000000  0.4568350000000 1.0
C      1  0.5171890000000  0.4357610000000  0.4600960000000 1.0
C      1  0.4812600000000  0.4387870000000  0.5365030000000 1.0
C      1  0.4604320000000  0.5174680000000  0.4352730000000 1.0
C      1  0.5359550000000  0.4815010000000  0.4393240000000 1.0
C      1  0.4568900000000  0.4826310000000  0.5654560000000 1.0
C      1  0.4396440000000  0.5358720000000  0.4811620000000 1.0
C      1  0.5662830000000  0.4575260000000  0.4823760000000 1.0
C      1  0.4335200000000  0.4581930000000  0.5176670000000 1.0
C      1  0.5157710000000  0.4408980000000  0.5349970000000 1.0
C      1  0.5365870000000  0.4858510000000  0.5592170000000 1.0
C      1  0.5622850000000  0.4643490000000  0.5154490000000 1.0
C      1  0.4835700000000  0.4397550000000  0.4632870000000 1.0
C      1  0.5162840000000  0.5624350000000  0.4634830000000 1.0
C      1  0.4861970000000  0.5585520000000  0.5367880000000 1.0
C      1  0.4618440000000  0.4836990000000  0.4390240000000 1.0
C      1  0.5352850000000  0.5154270000000  0.4415010000000 1.0
C      1  0.4639540000000  0.5156470000000  0.5614230000000 1.0
C      1  0.4383600000000  0.4626400000000  0.4843020000000 1.0
C      1  0.5594710000000  0.5369570000000  0.4857410000000 1.0
C      1  0.4417350000000  0.5348400000000  0.5150850000000 1.0
C      1  0.4632190000000  0.4394390000000  0.4837600000000 1.0
C      1  0.4825790000000  0.4632350000000  0.4387120000000 1.0
C      1  0.4382720000000  0.4828330000000  0.4635160000000 1.0
C      1  0.5370740000000  0.4403720000000  0.5150810000000 1.0
C      1  0.4665580000000  0.5580740000000  0.5155750000000 1.0
C      1  0.5362800000000  0.5628460000000  0.4847050000000 1.0
C      1  0.5156840000000  0.4657430000000  0.5582140000000 1.0
C      1  0.4847940000000  0.5358480000000  0.5620620000000 1.0
C      1  0.5158090000000  0.5371510000000  0.4407510000000 1.0
C      1  0.5621190000000  0.4851810000000  0.5356440000000 1.0
C      1  0.4408720000000  0.5149780000000  0.5364620000000 1.0
C      1  0.5587940000000  0.5156640000000  0.4660680000000 1.0
C      1  0.4633620000000  0.5602510000000  0.4812070000000 1.0
C      1  0.4815330000000  0.5390170000000  0.4361180000000 1.0
C      1  0.4344810000000  0.5168280000000  0.4572510000000 1.0
C      1  0.5425000000000  0.5665200000000  0.5186910000000 1.0
C      1  0.4573690000000  0.4339540000000  0.5175010000000 1.0
C      1  0.5390380000000  0.4358190000000  0.4810050000000 1.0
C      1  0.5183750000000  0.5436500000000  0.5672060000000 1.0
C      1  0.4813050000000  0.4635150000000  0.5606470000000 1.0
C      1  0.5166370000000  0.4578230000000  0.4342150000000 1.0
C      1  0.5659380000000  0.5189010000000  0.5424100000000 1.0
C      1  0.4364680000000  0.4806660000000  0.5383380000000 1.0
C      1  0.5606410000000  0.4813070000000  0.4627220000000 1.0
C      1  0.5358000000000  0.4670540000000  0.4940440000000 1.0
C      1  0.4698250000000  0.5302060000000  0.4957580000000 1.0
C      1  0.4961830000000  0.4687470000000  0.5305230000000 1.0
C      1  0.4947580000000  0.5361560000000  0.4674330000000 1.0
C      1  0.5043470000000  0.4670380000000  0.4645520000000 1.0
C      1  0.4677280000000  0.4937720000000  0.5352150000000 1.0
C      1  0.5076530000000  0.5316840000000  0.5372380000000 1.0
C      1  0.5307730000000  0.4960150000000  0.4696320000000 1.0
C      1  0.4648120000000  0.4650850000000  0.5060290000000 1.0
C      1  0.4646530000000  0.5040890000000  0.4663930000000 1.0
C      1  0.5319260000000  0.5367290000000  0.5060360000000 1.0
C      1  0.5359980000000  0.5066330000000  0.5319540000000 1.0
END
