TITL C-1154816-9297-201 -0.000398575928904756 125000 -301.189969104362 0 0 60 (C1) n - 1
REM
REM in /home/nfs/bkarasulu/CARBON/AIRSS/Generating-Clusters/AIREBO/Higher-Symm/Only-C60
REM
REM
REM
REM
REM
REM ./C.cell (28575a23ae977d3b5fae324c64b13b57)
REM
REM compiler GCC version 9.2.1 20190827 (Red Hat 9.2.1-1)
REM options -cpp -mtune=generic -march=x86-64 -g -O0 -fpre-include=/usr/include/finclude/math-vector-fortran.h
REM seed -778466296 613966053 -468680055 1757739998 2116146346 608660997 -1260204862 380059488 737396651 -1281477681 1179366191 1545038140 -1380498164 -1118770632 1347532978 -183810619 -883171179 1594659515 -134435390 1300028214 1111787247 1770247154 -2061019340 -330729677 1622495813 133932917 139610290 1027775769 2039691426 1171138806 -2021037934 -1689430885 625640591
REM
CELL 1.54180   50.00000   50.00000   50.00000   90.00000   90.00000   90.00000
LATT -1
SFAC C  
C      1  0.4699760000000  0.4305060000000  0.4829050000000 1.0
C      1  0.5373710000000  0.5628270000000  0.5118750000000 1.0
C      1  0.5310050000000  0.5509310000000  0.4498440000000 1.0
C      1  0.4668130000000  0.4468120000000  0.5447050000000 1.0
C      1  0.5139390000000  0.5561390000000  0.5322880000000 1.0
C      1  0.4889900000000  0.4420510000000  0.4584470000000 1.0
C      1  0.4571980000000  0.4933030000000  0.5610630000000 1.0
C      1  0.5359110000000  0.5010400000000  0.4366010000000 1.0
C      1  0.4613040000000  0.4493550000000  0.4437460000000 1.0
C      1  0.5329090000000  0.5467240000000  0.5541540000000 1.0
C      1  0.5009060000000  0.4564200000000  0.5168510000000 1.0
C      1  0.5052480000000  0.5440100000000  0.4813400000000 1.0
C      1  0.5054850000000  0.5143080000000  0.4647770000000 1.0
C      1  0.4965420000000  0.4837770000000  0.5365900000000 1.0
C      1  0.4445980000000  0.4919960000000  0.4643850000000 1.0
C      1  0.5546650000000  0.5049140000000  0.5427240000000 1.0
C      1  0.5242470000000  0.4872820000000  0.4637920000000 1.0
C      1  0.4754850000000  0.5090030000000  0.5387660000000 1.0
C      1  0.4397680000000  0.5122960000000  0.5007150000000 1.0
C      1  0.5668030000000  0.4919070000000  0.4978290000000 1.0
C      1  0.4909950000000  0.5671870000000  0.4607850000000 1.0
C      1  0.5114780000000  0.4350870000000  0.5411390000000 1.0
C      1  0.5325920000000  0.4821240000000  0.5546430000000 1.0
C      1  0.4578710000000  0.5222430000000  0.4562840000000 1.0
C      1  0.4703190000000  0.4994020000000  0.5068460000000 1.0
C      1  0.5335190000000  0.4981550000000  0.4946670000000 1.0
C      1  0.4914060000000  0.5029580000000  0.4136390000000 1.0
C      1  0.4945430000000  0.4918960000000  0.5932270000000 1.0
C      1  0.5345240000000  0.4546090000000  0.5074400000000 1.0
C      1  0.4736220000000  0.5504010000000  0.4920740000000 1.0
C      1  0.5083500000000  0.4766640000000  0.5738310000000 1.0
C      1  0.4826700000000  0.5218280000000  0.4329050000000 1.0
C      1  0.5008450000000  0.4664080000000  0.4672840000000 1.0
C      1  0.4915640000000  0.5351930000000  0.5242150000000 1.0
C      1  0.5451500000000  0.5324060000000  0.5249440000000 1.0
C      1  0.4594710000000  0.4632270000000  0.4747450000000 1.0
C      1  0.5557390000000  0.5384990000000  0.4701280000000 1.0
C      1  0.4460440000000  0.4609990000000  0.5213030000000 1.0
C      1  0.5083610000000  0.5367190000000  0.4421500000000 1.0
C      1  0.4865840000000  0.4612570000000  0.5577940000000 1.0
C      1  0.4713810000000  0.4401410000000  0.5124130000000 1.0
C      1  0.5344350000000  0.5614490000000  0.4817610000000 1.0
C      1  0.4571910000000  0.5366080000000  0.5483020000000 1.0
C      1  0.5478880000000  0.4634030000000  0.4630210000000 1.0
C      1  0.5548470000000  0.5196780000000  0.4428530000000 1.0
C      1  0.4398470000000  0.4757880000000  0.5498020000000 1.0
C      1  0.4588400000000  0.5365210000000  0.5150510000000 1.0
C      1  0.5537290000000  0.4639680000000  0.4904700000000 1.0
C      1  0.5238890000000  0.4896480000000  0.5228510000000 1.0
C      1  0.4791260000000  0.5127270000000  0.4798740000000 1.0
C      1  0.4854490000000  0.4752410000000  0.4931180000000 1.0
C      1  0.5171050000000  0.5252460000000  0.5070990000000 1.0
C      1  0.5186300000000  0.4966400000000  0.4145770000000 1.0
C      1  0.4677140000000  0.4968560000000  0.5871880000000 1.0
C      1  0.5631810000000  0.5245280000000  0.4971910000000 1.0
C      1  0.4381050000000  0.4785350000000  0.4963220000000 1.0
C      1  0.5758970000000  0.4931310000000  0.5281730000000 1.0
C      1  0.4308150000000  0.5273610000000  0.4762460000000 1.0
C      1  0.5346710000000  0.4542610000000  0.5380150000000 1.0
C      1  0.4624490000000  0.5554090000000  0.4622370000000 1.0
END
