TITL C-1154829-9094-147 0.00905311612527588 125000 -344.763977527704 0 0 60 (C1) n - 1
REM
REM in /home/nfs/bkarasulu/CARBON/AIRSS/Generating-Clusters/AIREBO/Higher-Symm/Only-C60
REM
REM
REM
REM
REM
REM ./C.cell (28575a23ae977d3b5fae324c64b13b57)
REM
REM compiler GCC version 9.2.1 20190827 (Red Hat 9.2.1-1)
REM options -cpp -mtune=generic -march=x86-64 -g -O0 -fpre-include=/usr/include/finclude/math-vector-fortran.h
REM seed -981432373 156551656 505159226 -1028836837 -363387422 -936086653 -490358329 1269883709 -1737374903 -551929734 -230445561 -1623861501 339356785 -217217394 1711405465 -769322847 664662090 656335342 825191648 -1937430281 -1670762894 -616180986 -1038563475 668492149 -1821306898 -1573138592 -1082766232 -1768866680 585855220 -1429751161 -689022470 -1220275251 1920152213
REM
CELL 1.54180   50.00000   50.00000   50.00000   90.00000   90.00000   90.00000
LATT -1
SFAC C  
C      1  0.4304700000000  0.4595220000000  0.5293530000000 1.0
C      1  0.5032780000000  0.5646750000000  0.5303100000000 1.0
C      1  0.5663180000000  0.4552230000000  0.5324920000000 1.0
C      1  0.5580710000000  0.4728080000000  0.5050380000000 1.0
C      1  0.4734220000000  0.4477700000000  0.5044860000000 1.0
C      1  0.4919340000000  0.5664220000000  0.4788200000000 1.0
C      1  0.5090020000000  0.5716880000000  0.4999740000000 1.0
C      1  0.5551330000000  0.4395100000000  0.5075720000000 1.0
C      1  0.4434140000000  0.4505370000000  0.4998580000000 1.0
C      1  0.4310710000000  0.4815100000000  0.5069990000000 1.0
C      1  0.5361520000000  0.5684980000000  0.4956090000000 1.0
C      1  0.5425560000000  0.4175260000000  0.4975980000000 1.0
C      1  0.4863240000000  0.5111330000000  0.4559410000000 1.0
C      1  0.4970560000000  0.5424430000000  0.4625680000000 1.0
C      1  0.5171790000000  0.5169730000000  0.4584750000000 1.0
C      1  0.4224480000000  0.4404540000000  0.4295340000000 1.0
C      1  0.4715460000000  0.6104010000000  0.4250530000000 1.0
C      1  0.5548730000000  0.3937330000000  0.4946250000000 1.0
C      1  0.4827030000000  0.5902320000000  0.4390120000000 1.0
C      1  0.5700570000000  0.4917150000000  0.4593740000000 1.0
C      1  0.4353360000000  0.4495210000000  0.4514540000000 1.0
C      1  0.4468720000000  0.5040830000000  0.5047460000000 1.0
C      1  0.5471530000000  0.5435750000000  0.5107240000000 1.0
C      1  0.5154140000000  0.4205680000000  0.4918990000000 1.0
C      1  0.4878890000000  0.5421760000000  0.5506350000000 1.0
C      1  0.5433670000000  0.4931420000000  0.5517310000000 1.0
C      1  0.4746180000000  0.4663080000000  0.5513880000000 1.0
C      1  0.5610940000000  0.5099410000000  0.4410690000000 1.0
C      1  0.4515010000000  0.4720430000000  0.4501830000000 1.0
C      1  0.5057520000000  0.5758030000000  0.4293750000000 1.0
C      1  0.5048680000000  0.4929530000000  0.5148890000000 1.0
C      1  0.4730530000000  0.4990790000000  0.5098180000000 1.0
C      1  0.5268860000000  0.5177320000000  0.5071040000000 1.0
C      1  0.4895950000000  0.5183520000000  0.5731440000000 1.0
C      1  0.5188800000000  0.5034790000000  0.5721880000000 1.0
C      1  0.4912490000000  0.4858520000000  0.5723450000000 1.0
C      1  0.5976830000000  0.5259620000000  0.5042500000000 1.0
C      1  0.4124880000000  0.3875900000000  0.4811310000000 1.0
C      1  0.4366530000000  0.5521220000000  0.4816260000000 1.0
C      1  0.4322400000000  0.4372140000000  0.4760500000000 1.0
C      1  0.4729450000000  0.5821560000000  0.4648130000000 1.0
C      1  0.5767220000000  0.4855240000000  0.4857150000000 1.0
C      1  0.5166660000000  0.5504640000000  0.4371500000000 1.0
C      1  0.5395690000000  0.5275400000000  0.4417830000000 1.0
C      1  0.4690930000000  0.4920480000000  0.4487140000000 1.0
C      1  0.4465270000000  0.5761710000000  0.4729430000000 1.0
C      1  0.5982670000000  0.4996950000000  0.4967340000000 1.0
C      1  0.4209140000000  0.4123030000000  0.4788350000000 1.0
C      1  0.5370150000000  0.4898570000000  0.5213690000000 1.0
C      1  0.4827300000000  0.4697970000000  0.5226730000000 1.0
C      1  0.4998480000000  0.5318200000000  0.5215640000000 1.0
C      1  0.5769580000000  0.5400470000000  0.5140190000000 1.0
C      1  0.4908010000000  0.4285520000000  0.4990800000000 1.0
C      1  0.4392220000000  0.5295680000000  0.4963220000000 1.0
C      1  0.4929400000000  0.4541670000000  0.5774140000000 1.0
C      1  0.4700090000000  0.5433430000000  0.5777250000000 1.0
C      1  0.5393100000000  0.5255880000000  0.5590140000000 1.0
C      1  0.4444540000000  0.4593950000000  0.5523400000000 1.0
C      1  0.5284350000000  0.5430610000000  0.5378450000000 1.0
C      1  0.5619790000000  0.4686390000000  0.5555110000000 1.0
END
