TITL C-1154808-8168-243 0.00106807538655142 125000 -325.878563166136 0 0 60 (C1) n - 1
REM
REM in /home/nfs/bkarasulu/CARBON/AIRSS/Generating-Clusters/AIREBO/Higher-Symm/Only-C60
REM
REM
REM
REM
REM
REM ./C.cell (28575a23ae977d3b5fae324c64b13b57)
REM
REM compiler GCC version 9.2.1 20190827 (Red Hat 9.2.1-1)
REM options -cpp -mtune=generic -march=x86-64 -g -O0 -fpre-include=/usr/include/finclude/math-vector-fortran.h
REM seed -1145887101 -97331521 -126354179 -943137546 -1509625051 -1235226450 -247549047 910555444 -1764702417 -672817185 -1773501466 -327905720 1256861593 801982759 -1897629454 200540668 -1258467318 -668199299 -1905409443 1615088143 912767356 -1094122628 -2013926459 1114107818 1865434668 855843808 197123813 -2036475259 1405767026 -998073167 166097734 -1624947245 -1495897467
REM
CELL 1.54180   50.00000   50.00000   50.00000   90.00000   90.00000   90.00000
LATT -1
SFAC C  
C      1  0.4640670000000  0.5043800000000  0.4445760000000 1.0
C      1  0.4862320000000  0.5035620000000  0.4258780000000 1.0
C      1  0.5116680000000  0.5105310000000  0.4376640000000 1.0
C      1  0.5574240000000  0.4975440000000  0.4521430000000 1.0
C      1  0.5668050000000  0.5096890000000  0.4762200000000 1.0
C      1  0.5425740000000  0.5050510000000  0.5367090000000 1.0
C      1  0.5316620000000  0.5171590000000  0.5647850000000 1.0
C      1  0.5012640000000  0.5121540000000  0.5752020000000 1.0
C      1  0.4785810000000  0.5019280000000  0.5548510000000 1.0
C      1  0.4195930000000  0.5330640000000  0.5144490000000 1.0
C      1  0.4144480000000  0.5288290000000  0.4849100000000 1.0
C      1  0.4690750000000  0.4573800000000  0.4715860000000 1.0
C      1  0.4965280000000  0.4694570000000  0.4782620000000 1.0
C      1  0.5191890000000  0.4645400000000  0.4582590000000 1.0
C      1  0.5408620000000  0.4496500000000  0.4722380000000 1.0
C      1  0.5583990000000  0.4466690000000  0.4971980000000 1.0
C      1  0.5526930000000  0.4497750000000  0.5264380000000 1.0
C      1  0.5292900000000  0.4323090000000  0.5336110000000 1.0
C      1  0.4984500000000  0.4348050000000  0.5345890000000 1.0
C      1  0.4729050000000  0.4458710000000  0.5453580000000 1.0
C      1  0.4515740000000  0.4426200000000  0.5245830000000 1.0
C      1  0.4528750000000  0.4536720000000  0.4961020000000 1.0
C      1  0.5094580000000  0.4488580000000  0.4364020000000 1.0
C      1  0.5648960000000  0.4334660000000  0.4604240000000 1.0
C      1  0.5830290000000  0.4305650000000  0.4853800000000 1.0
C      1  0.5754110000000  0.4424990000000  0.5422040000000 1.0
C      1  0.5321950000000  0.4007470000000  0.5296240000000 1.0
C      1  0.5016640000000  0.4044510000000  0.5280440000000 1.0
C      1  0.4658670000000  0.4324650000000  0.5695140000000 1.0
C      1  0.4204540000000  0.4390430000000  0.5284370000000 1.0
C      1  0.4218670000000  0.4505040000000  0.4995870000000 1.0
C      1  0.4717690000000  0.4330020000000  0.4572740000000 1.0
C      1  0.4990850000000  0.4898150000000  0.4953910000000 1.0
C      1  0.5297960000000  0.4916540000000  0.4481310000000 1.0
C      1  0.5750980000000  0.4921190000000  0.4323480000000 1.0
C      1  0.5908400000000  0.5035910000000  0.4868150000000 1.0
C      1  0.5458750000000  0.4793430000000  0.5321670000000 1.0
C      1  0.5505220000000  0.5212750000000  0.5848740000000 1.0
C      1  0.4974110000000  0.5077910000000  0.6020360000000 1.0
C      1  0.4757100000000  0.4761730000000  0.5503790000000 1.0
C      1  0.4017590000000  0.5412210000000  0.5327010000000 1.0
C      1  0.3947020000000  0.5226990000000  0.4685400000000 1.0
C      1  0.4554780000000  0.4796660000000  0.4543110000000 1.0
C      1  0.4835890000000  0.4952620000000  0.4004150000000 1.0
C      1  0.4683640000000  0.5262060000000  0.5393330000000 1.0
C      1  0.4497330000000  0.5310940000000  0.5186010000000 1.0
C      1  0.4456130000000  0.5293950000000  0.4845940000000 1.0
C      1  0.4616010000000  0.5284620000000  0.4599050000000 1.0
C      1  0.4845260000000  0.5457820000000  0.4549550000000 1.0
C      1  0.5116720000000  0.5364850000000  0.4494790000000 1.0
C      1  0.5325280000000  0.5416140000000  0.4686720000000 1.0
C      1  0.5496560000000  0.5290160000000  0.4880810000000 1.0
C      1  0.5454770000000  0.5282700000000  0.5164380000000 1.0
C      1  0.5270580000000  0.5412320000000  0.5395480000000 1.0
C      1  0.4992050000000  0.5353420000000  0.5504200000000 1.0
C      1  0.4971590000000  0.5440410000000  0.4972410000000 1.0
C      1  0.4952730000000  0.5701450000000  0.5028340000000 1.0
C      1  0.4884860000000  0.6217330000000  0.5116850000000 1.0
C      1  0.4921690000000  0.5964000000000  0.5060710000000 1.0
C      1  0.4970160000000  0.5165280000000  0.4970460000000 1.0
END
