TITL C-1154826-9507-84 0.00210780848131448 125000 -328.614983166893 0 0 60 (C1) n - 1
REM
REM in /home/nfs/bkarasulu/CARBON/AIRSS/Generating-Clusters/AIREBO/Higher-Symm/Only-C60
REM
REM
REM
REM
REM
REM ./C.cell (28575a23ae977d3b5fae324c64b13b57)
REM
REM compiler GCC version 9.2.1 20190827 (Red Hat 9.2.1-1)
REM options -cpp -mtune=generic -march=x86-64 -g -O0 -fpre-include=/usr/include/finclude/math-vector-fortran.h
REM seed -1678009723 867635751 1708687319 1599892650 -1309183722 2031520681 2043869107 2061943625 -1725434714 -883346698 -990548925 404587931 -1957128517 982265816 -1429362147 -1162538782 -1127507191 -1909291653 -2088552565 1331708301 -1133075231 -246675703 233134353 392944744 400468918 -7907875 1565956073 -1843844361 689696169 1405176695 1856154157 2086299930 364862092
REM
CELL 1.54180   50.00000   50.00000   50.00000   90.00000   90.00000   90.00000
LATT -1
SFAC C  
C      1  0.4850550000000  0.5741870000000  0.4773670000000 1.0
C      1  0.5170650000000  0.5741830000000  0.4776730000000 1.0
C      1  0.5264440000000  0.5754270000000  0.5082570000000 1.0
C      1  0.5006560000000  0.5730970000000  0.5269250000000 1.0
C      1  0.4747570000000  0.5739110000000  0.5078330000000 1.0
C      1  0.4631730000000  0.4574040000000  0.5682610000000 1.0
C      1  0.4352370000000  0.4570440000000  0.4806010000000 1.0
C      1  0.4890440000000  0.4637950000000  0.4294870000000 1.0
C      1  0.5591130000000  0.4667610000000  0.4555620000000 1.0
C      1  0.5529380000000  0.4537790000000  0.5511700000000 1.0
C      1  0.5257400000000  0.5240640000000  0.5484750000000 1.0
C      1  0.4586810000000  0.5249190000000  0.5360410000000 1.0
C      1  0.4553160000000  0.5252330000000  0.4722380000000 1.0
C      1  0.5117710000000  0.5252010000000  0.4461710000000 1.0
C      1  0.5555590000000  0.5296930000000  0.4997300000000 1.0
C      1  0.4447060000000  0.4781890000000  0.5558130000000 1.0
C      1  0.4466010000000  0.4754060000000  0.4590870000000 1.0
C      1  0.5125600000000  0.4769700000000  0.4244120000000 1.0
C      1  0.5581150000000  0.4807780000000  0.4834890000000 1.0
C      1  0.5384760000000  0.4758130000000  0.5667000000000 1.0
C      1  0.5081600000000  0.4830210000000  0.5532220000000 1.0
C      1  0.4550250000000  0.4851840000000  0.5241810000000 1.0
C      1  0.4769650000000  0.4842050000000  0.4680660000000 1.0
C      1  0.5090670000000  0.4766520000000  0.4642380000000 1.0
C      1  0.5323070000000  0.4993660000000  0.4884230000000 1.0
C      1  0.4791820000000  0.5102180000000  0.4871400000000 1.0
C      1  0.5084780000000  0.5082610000000  0.4707820000000 1.0
C      1  0.5310550000000  0.5163950000000  0.5149400000000 1.0
C      1  0.5042650000000  0.5037510000000  0.5316470000000 1.0
C      1  0.4771840000000  0.5061030000000  0.5173300000000 1.0
C      1  0.5345120000000  0.4644630000000  0.4359440000000 1.0
C      1  0.5619630000000  0.4597420000000  0.5051230000000 1.0
C      1  0.5111190000000  0.4617760000000  0.5797640000000 1.0
C      1  0.4284910000000  0.4644940000000  0.5305500000000 1.0
C      1  0.4579040000000  0.4599540000000  0.4330710000000 1.0
C      1  0.4498390000000  0.5550560000000  0.5234670000000 1.0
C      1  0.4621430000000  0.5557050000000  0.4586110000000 1.0
C      1  0.5279520000000  0.5547690000000  0.4508470000000 1.0
C      1  0.5582090000000  0.5620370000000  0.5098720000000 1.0
C      1  0.5081480000000  0.5525830000000  0.5542900000000 1.0
C      1  0.5208640000000  0.4380370000000  0.5157140000000 1.0
C      1  0.4945940000000  0.4393880000000  0.5280870000000 1.0
C      1  0.4751330000000  0.4386600000000  0.5072760000000 1.0
C      1  0.4883770000000  0.4353140000000  0.4823120000000 1.0
C      1  0.5167030000000  0.4357840000000  0.4869990000000 1.0
C      1  0.4908840000000  0.4544820000000  0.5537140000000 1.0
C      1  0.4507660000000  0.4558980000000  0.5073860000000 1.0
C      1  0.4785870000000  0.4514220000000  0.4593880000000 1.0
C      1  0.5298500000000  0.4544380000000  0.4680980000000 1.0
C      1  0.5459240000000  0.4478520000000  0.5245640000000 1.0
C      1  0.5343400000000  0.5524600000000  0.5318550000000 1.0
C      1  0.4793830000000  0.5501100000000  0.5393740000000 1.0
C      1  0.4553500000000  0.5517600000000  0.4914590000000 1.0
C      1  0.4944070000000  0.5515880000000  0.4540060000000 1.0
C      1  0.5439470000000  0.5534940000000  0.4799850000000 1.0
C      1  0.5719690000000  0.5094210000000  0.4887140000000 1.0
C      1  0.5403260000000  0.5081340000000  0.5679080000000 1.0
C      1  0.4437310000000  0.5102320000000  0.5550480000000 1.0
C      1  0.4384890000000  0.5064010000000  0.4591730000000 1.0
C      1  0.5134000000000  0.5055350000000  0.4221400000000 1.0
END
