TITL C-1154816-9297-540 -0.605368180050937 125000 -325.684804884211 0 0 60 (C1) n - 1
REM
REM in /home/nfs/bkarasulu/CARBON/AIRSS/Generating-Clusters/AIREBO/Higher-Symm/Only-C60
REM
REM
REM
REM
REM
REM ./C.cell (28575a23ae977d3b5fae324c64b13b57)
REM
REM compiler GCC version 9.2.1 20190827 (Red Hat 9.2.1-1)
REM options -cpp -mtune=generic -march=x86-64 -g -O0 -fpre-include=/usr/include/finclude/math-vector-fortran.h
REM seed 2105647283 1775259233 -1396736351 -858070681 -821100106 -36245869 -1247007372 -1588043989 -111510506 -1236046468 -1610774096 222823426 453671022 -1974483014 162568262 1103730068 -96602354 342182844 1439470056 688069216 1026251828 -697498103 -760114136 -1428877124 -1975258619 -305653669 -376602016 739945039 -1531447744 1081035991 437463582 1105173157 2019994539
REM
CELL 1.54180   50.00000   50.00000   50.00000   90.00000   90.00000   90.00000
LATT -1
SFAC C  
C      1  0.4633790000000  0.5225230000000  0.5063390000000 1.0
C      1  0.5246380000000  0.4461790000000  0.5351930000000 1.0
C      1  0.4596650000000  0.5159760000000  0.4763430000000 1.0
C      1  0.5072350000000  0.5063550000000  0.4002960000000 1.0
C      1  0.4749480000000  0.5066400000000  0.4488390000000 1.0
C      1  0.5067630000000  0.5180840000000  0.5119870000000 1.0
C      1  0.5153260000000  0.4840480000000  0.5633180000000 1.0
C      1  0.4687820000000  0.4565510000000  0.5447070000000 1.0
C      1  0.5372940000000  0.5046030000000  0.5524900000000 1.0
C      1  0.4240060000000  0.4997690000000  0.4837010000000 1.0
C      1  0.4551660000000  0.4760810000000  0.4803490000000 1.0
C      1  0.4945170000000  0.4370270000000  0.5357230000000 1.0
C      1  0.4952510000000  0.4766090000000  0.5413550000000 1.0
C      1  0.4489090000000  0.5303730000000  0.5511680000000 1.0
C      1  0.5300800000000  0.4871330000000  0.5026310000000 1.0
C      1  0.5440520000000  0.5256390000000  0.4664870000000 1.0
C      1  0.4991930000000  0.5727310000000  0.4775400000000 1.0
C      1  0.4634610000000  0.4808030000000  0.5652130000000 1.0
C      1  0.5473540000000  0.4523810000000  0.5122840000000 1.0
C      1  0.5657610000000  0.4751970000000  0.5158160000000 1.0
C      1  0.5271820000000  0.4962800000000  0.4500330000000 1.0
C      1  0.5384790000000  0.5560200000000  0.5097380000000 1.0
C      1  0.4789100000000  0.5530760000000  0.4675550000000 1.0
C      1  0.4910980000000  0.5346780000000  0.4456850000000 1.0
C      1  0.5107410000000  0.4683280000000  0.5134530000000 1.0
C      1  0.5250200000000  0.5367200000000  0.4443790000000 1.0
C      1  0.4475320000000  0.5472340000000  0.4793130000000 1.0
C      1  0.5678250000000  0.4908510000000  0.4906510000000 1.0
C      1  0.5634310000000  0.5197200000000  0.4876050000000 1.0
C      1  0.5198030000000  0.5610830000000  0.5294170000000 1.0
C      1  0.4996170000000  0.4965070000000  0.4785380000000 1.0
C      1  0.4750320000000  0.5516560000000  0.5013060000000 1.0
C      1  0.5133030000000  0.5267680000000  0.4809500000000 1.0
C      1  0.5108350000000  0.5174480000000  0.5695470000000 1.0
C      1  0.5265690000000  0.5581030000000  0.4817280000000 1.0
C      1  0.5135320000000  0.4369350000000  0.4455180000000 1.0
C      1  0.4827620000000  0.5296790000000  0.5547480000000 1.0
C      1  0.5374190000000  0.4510280000000  0.4855640000000 1.0
C      1  0.4814770000000  0.4752600000000  0.4975840000000 1.0
C      1  0.4433160000000  0.4954660000000  0.4560130000000 1.0
C      1  0.4323770000000  0.4714680000000  0.5006660000000 1.0
C      1  0.4794810000000  0.4998790000000  0.5209520000000 1.0
C      1  0.5450800000000  0.5662920000000  0.4620500000000 1.0
C      1  0.5108330000000  0.5140060000000  0.4260390000000 1.0
C      1  0.4956380000000  0.4258550000000  0.4885260000000 1.0
C      1  0.4963940000000  0.4839540000000  0.4477950000000 1.0
C      1  0.5353660000000  0.5109440000000  0.5226140000000 1.0
C      1  0.5644200000000  0.4900820000000  0.5404140000000 1.0
C      1  0.4973260000000  0.4564420000000  0.4351770000000 1.0
C      1  0.5182290000000  0.4340750000000  0.4732180000000 1.0
C      1  0.5535300000000  0.5321520000000  0.5117770000000 1.0
C      1  0.4781470000000  0.4431590000000  0.5083050000000 1.0
C      1  0.4935660000000  0.5430090000000  0.5278750000000 1.0
C      1  0.4478540000000  0.4548190000000  0.5188670000000 1.0
C      1  0.5419340000000  0.4807780000000  0.4721910000000 1.0
C      1  0.4370460000000  0.5284650000000  0.5233410000000 1.0
C      1  0.4255510000000  0.5261410000000  0.4945800000000 1.0
C      1  0.4567820000000  0.5011070000000  0.5446630000000 1.0
C      1  0.5289410000000  0.4577140000000  0.5642280000000 1.0
C      1  0.4818450000000  0.5021140000000  0.5756140000000 1.0
END
