TITL C-1154816-9297-215 0.000403706470008417 125000 -312.720355649862 0 0 60 (C1) n - 1
REM
REM in /home/nfs/bkarasulu/CARBON/AIRSS/Generating-Clusters/AIREBO/Higher-Symm/Only-C60
REM
REM
REM
REM
REM
REM ./C.cell (28575a23ae977d3b5fae324c64b13b57)
REM
REM compiler GCC version 9.2.1 20190827 (Red Hat 9.2.1-1)
REM options -cpp -mtune=generic -march=x86-64 -g -O0 -fpre-include=/usr/include/finclude/math-vector-fortran.h
REM seed -1277264372 -284634183 -923446202 138452411 1864622937 2117830424 -1056002531 -1071865205 -819888558 1634898504 -1890292272 -117205029 538461576 1038759564 36841380 -709533565 2115695458 1240721173 -172989610 -130817771 -1808274016 -1644635094 1399583894 -177216272 985626762 -687022037 -282194611 2103708022 874264855 2124390258 -205938443 -927492098 -2119887418
REM
CELL 1.54180   50.00000   50.00000   50.00000   90.00000   90.00000   90.00000
LATT -1
SFAC C  
C      1  0.4920620000000  0.4661100000000  0.5759570000000 1.0
C      1  0.5168370000000  0.5244980000000  0.4271650000000 1.0
C      1  0.4684690000000  0.5731960000000  0.5061730000000 1.0
C      1  0.5286880000000  0.4239480000000  0.4991700000000 1.0
C      1  0.5449980000000  0.5164270000000  0.4860910000000 1.0
C      1  0.4636210000000  0.4880170000000  0.5227900000000 1.0
C      1  0.4519350000000  0.4452460000000  0.4937630000000 1.0
C      1  0.5463060000000  0.5599720000000  0.5082730000000 1.0
C      1  0.4622550000000  0.4682210000000  0.5494130000000 1.0
C      1  0.5430910000000  0.5302970000000  0.4566170000000 1.0
C      1  0.5368540000000  0.5016300000000  0.5141840000000 1.0
C      1  0.4592430000000  0.5036120000000  0.4863490000000 1.0
C      1  0.4662540000000  0.5323730000000  0.4391940000000 1.0
C      1  0.5351740000000  0.4675260000000  0.5532050000000 1.0
C      1  0.5625210000000  0.4662820000000  0.5244960000000 1.0
C      1  0.4352100000000  0.5335290000000  0.4749670000000 1.0
C      1  0.4948290000000  0.5520810000000  0.5010570000000 1.0
C      1  0.4985680000000  0.4455420000000  0.4853360000000 1.0
C      1  0.4981260000000  0.4379170000000  0.5351200000000 1.0
C      1  0.5035020000000  0.5603860000000  0.4618580000000 1.0
C      1  0.4339860000000  0.5042910000000  0.5264900000000 1.0
C      1  0.5640290000000  0.4897610000000  0.4816180000000 1.0
C      1  0.5398920000000  0.5529150000000  0.5344240000000 1.0
C      1  0.4537750000000  0.4515550000000  0.4648980000000 1.0
C      1  0.4856090000000  0.4719500000000  0.5023980000000 1.0
C      1  0.5146970000000  0.5288050000000  0.4953830000000 1.0
C      1  0.4869130000000  0.4909470000000  0.5550310000000 1.0
C      1  0.5196350000000  0.5056920000000  0.4558930000000 1.0
C      1  0.5635930000000  0.5408870000000  0.4976200000000 1.0
C      1  0.4460460000000  0.4740870000000  0.4972340000000 1.0
C      1  0.4594100000000  0.4416210000000  0.5440620000000 1.0
C      1  0.5431680000000  0.5578320000000  0.4584900000000 1.0
C      1  0.4440710000000  0.5147150000000  0.4512670000000 1.0
C      1  0.5542950000000  0.4901970000000  0.5472960000000 1.0
C      1  0.5569720000000  0.4677980000000  0.4963730000000 1.0
C      1  0.4441470000000  0.5257070000000  0.5041810000000 1.0
C      1  0.5471520000000  0.4420850000000  0.5406430000000 1.0
C      1  0.4534160000000  0.5525460000000  0.4591080000000 1.0
C      1  0.4833340000000  0.4777780000000  0.4680520000000 1.0
C      1  0.5099960000000  0.5273910000000  0.5285240000000 1.0
C      1  0.4857440000000  0.5185020000000  0.4815930000000 1.0
C      1  0.5154510000000  0.4818570000000  0.5099560000000 1.0
C      1  0.5125200000000  0.5568020000000  0.5457450000000 1.0
C      1  0.4827840000000  0.4453210000000  0.4563330000000 1.0
C      1  0.5072660000000  0.4699570000000  0.5391640000000 1.0
C      1  0.4946710000000  0.5285600000000  0.4526350000000 1.0
C      1  0.4971960000000  0.4165570000000  0.5014000000000 1.0
C      1  0.4981620000000  0.5848730000000  0.4927110000000 1.0
C      1  0.4733150000000  0.5701520000000  0.4726530000000 1.0
C      1  0.5264140000000  0.4269800000000  0.5281360000000 1.0
C      1  0.4934580000000  0.4427380000000  0.5664910000000 1.0
C      1  0.5148590000000  0.5548310000000  0.4305110000000 1.0
C      1  0.4512300000000  0.4847050000000  0.4592420000000 1.0
C      1  0.5408170000000  0.5197300000000  0.5406880000000 1.0
C      1  0.4813700000000  0.5151600000000  0.5341140000000 1.0
C      1  0.5141820000000  0.4811050000000  0.4759770000000 1.0
C      1  0.4710820000000  0.4327640000000  0.5150920000000 1.0
C      1  0.5269250000000  0.5694940000000  0.4847690000000 1.0
C      1  0.4682010000000  0.5410780000000  0.5173310000000 1.0
C      1  0.5316700000000  0.4534600000000  0.4852930000000 1.0
END
