TITL C-1154808-8168-553 -0.00132666385108338 125000 -326.983180498923 0 0 60 (C1) n - 1
REM
REM in /home/nfs/bkarasulu/CARBON/AIRSS/Generating-Clusters/AIREBO/Higher-Symm/Only-C60
REM
REM
REM
REM
REM
REM ./C.cell (28575a23ae977d3b5fae324c64b13b57)
REM
REM compiler GCC version 9.2.1 20190827 (Red Hat 9.2.1-1)
REM options -cpp -mtune=generic -march=x86-64 -g -O0 -fpre-include=/usr/include/finclude/math-vector-fortran.h
REM seed -79306173 2141355865 -1050105846 249712275 171357948 1880208369 864340754 -1029775769 1636984046 -2067471431 1003744527 -68043856 911303904 -1551764687 -1411477907 -710414135 -1348288417 12060605 830574587 1801079408 -1819579263 308344152 2005137660 2126631210 -948997122 -2098229320 -1876367223 1007702476 -733022434 1335268170 -2056398210 1102727887 -2121971624
REM
CELL 1.54180   50.00000   50.00000   50.00000   90.00000   90.00000   90.00000
LATT -1
SFAC C  
C      1  0.4614490000000  0.5173370000000  0.5310010000000 1.0
C      1  0.5212420000000  0.5529270000000  0.4541230000000 1.0
C      1  0.4680870000000  0.4856290000000  0.4609110000000 1.0
C      1  0.5151160000000  0.5809960000000  0.5329720000000 1.0
C      1  0.5259010000000  0.4718580000000  0.4382500000000 1.0
C      1  0.4898990000000  0.4706110000000  0.4748810000000 1.0
C      1  0.4879550000000  0.5157150000000  0.5159390000000 1.0
C      1  0.4354350000000  0.5174770000000  0.5165900000000 1.0
C      1  0.4507340000000  0.5209290000000  0.4645610000000 1.0
C      1  0.4630360000000  0.4416970000000  0.4810150000000 1.0
C      1  0.4932020000000  0.4393530000000  0.4654670000000 1.0
C      1  0.4945770000000  0.5246460000000  0.4852030000000 1.0
C      1  0.4959360000000  0.4752010000000  0.4252310000000 1.0
C      1  0.5049410000000  0.5057160000000  0.4372380000000 1.0
C      1  0.5245260000000  0.5228580000000  0.4591170000000 1.0
C      1  0.4311950000000  0.4887730000000  0.5077530000000 1.0
C      1  0.4824830000000  0.4449200000000  0.4343290000000 1.0
C      1  0.4639390000000  0.4720040000000  0.4331900000000 1.0
C      1  0.5077330000000  0.5197580000000  0.5630880000000 1.0
C      1  0.4524650000000  0.4710790000000  0.5275140000000 1.0
C      1  0.5064980000000  0.5443270000000  0.5166700000000 1.0
C      1  0.5272980000000  0.4960440000000  0.4141330000000 1.0
C      1  0.4614930000000  0.4930170000000  0.5520130000000 1.0
C      1  0.5307450000000  0.4897230000000  0.4632920000000 1.0
C      1  0.5767560000000  0.4588040000000  0.5357990000000 1.0
C      1  0.5267840000000  0.5163550000000  0.4924290000000 1.0
C      1  0.4652950000000  0.5438650000000  0.5484220000000 1.0
C      1  0.4309530000000  0.5421850000000  0.5041700000000 1.0
C      1  0.5252220000000  0.4465140000000  0.4562380000000 1.0
C      1  0.5051150000000  0.5674740000000  0.4670680000000 1.0
C      1  0.5149380000000  0.4783700000000  0.4911920000000 1.0
C      1  0.4825840000000  0.5145910000000  0.4591620000000 1.0
C      1  0.5270490000000  0.4489720000000  0.5327460000000 1.0
C      1  0.4653930000000  0.4436270000000  0.5310120000000 1.0
C      1  0.5514480000000  0.4694190000000  0.5313420000000 1.0
C      1  0.5025500000000  0.4231910000000  0.4938840000000 1.0
C      1  0.5598340000000  0.5047130000000  0.4732100000000 1.0
C      1  0.5436460000000  0.4891200000000  0.5059110000000 1.0
C      1  0.4788320000000  0.4687560000000  0.5590800000000 1.0
C      1  0.4440850000000  0.5452920000000  0.4764500000000 1.0
C      1  0.5301840000000  0.5385910000000  0.5617440000000 1.0
C      1  0.5451160000000  0.4966770000000  0.5451310000000 1.0
C      1  0.5543370000000  0.5240010000000  0.5469930000000 1.0
C      1  0.4796130000000  0.5212730000000  0.5652680000000 1.0
C      1  0.5573910000000  0.5253380000000  0.4967290000000 1.0
C      1  0.4402340000000  0.4905960000000  0.4758640000000 1.0
C      1  0.4884880000000  0.5566430000000  0.4915060000000 1.0
C      1  0.4592250000000  0.5611340000000  0.5024540000000 1.0
C      1  0.5174020000000  0.4979160000000  0.5477280000000 1.0
C      1  0.5600820000000  0.5389250000000  0.5206090000000 1.0
C      1  0.5319110000000  0.5536520000000  0.5326920000000 1.0
C      1  0.5483660000000  0.4486460000000  0.4757910000000 1.0
C      1  0.4883140000000  0.5842350000000  0.5369500000000 1.0
C      1  0.5026240000000  0.4897450000000  0.5207770000000 1.0
C      1  0.5249110000000  0.4462440000000  0.4961670000000 1.0
C      1  0.5616970000000  0.4730790000000  0.4819870000000 1.0
C      1  0.4504860000000  0.4637910000000  0.4940990000000 1.0
C      1  0.4986910000000  0.4637970000000  0.5396620000000 1.0
C      1  0.4671770000000  0.5664290000000  0.5323810000000 1.0
C      1  0.4973800000000  0.4354430000000  0.5228740000000 1.0
END
