TITL C-1154801-8518-14 0.00321442373341642 125000 -324.949197543737 0 0 60 (C1) n - 1
REM
REM in /home/nfs/bkarasulu/CARBON/AIRSS/Generating-Clusters/AIREBO/Higher-Symm/Only-C60
REM
REM
REM
REM
REM
REM ./C.cell (28575a23ae977d3b5fae324c64b13b57)
REM
REM compiler GCC version 9.2.1 20190827 (Red Hat 9.2.1-1)
REM options -cpp -mtune=generic -march=x86-64 -g -O0 -fpre-include=/usr/include/finclude/math-vector-fortran.h
REM seed 1131399159 52280940 -1559334287 -1623390198 -574377837 -1324725532 1450406357 -949279067 -2108627110 396438070 754094022 1066753856 978838603 361235503 352639701 1578364326 575965964 1086034135 304196546 -707790788 573901526 -247184713 1668654032 -1354074835 1800754457 2095959519 1818129643 629767319 1863037654 -471873929 -1714852481 -91474745 321958953
REM
CELL 1.54180   50.00000   50.00000   50.00000   90.00000   90.00000   90.00000
LATT -1
SFAC C  
C      1  0.4803260000000  0.4348630000000  0.5303590000000 1.0
C      1  0.4530810000000  0.5459430000000  0.5308320000000 1.0
C      1  0.5631260000000  0.5160830000000  0.5273610000000 1.0
C      1  0.4925050000000  0.4391400000000  0.4779190000000 1.0
C      1  0.4454910000000  0.5370350000000  0.4837500000000 1.0
C      1  0.5598020000000  0.5217190000000  0.4660410000000 1.0
C      1  0.5099820000000  0.4837780000000  0.5682870000000 1.0
C      1  0.4823240000000  0.5022540000000  0.5679260000000 1.0
C      1  0.5126110000000  0.5179430000000  0.5648340000000 1.0
C      1  0.5140530000000  0.4957860000000  0.4274970000000 1.0
C      1  0.4922890000000  0.5183230000000  0.4257640000000 1.0
C      1  0.5238060000000  0.5273050000000  0.4318180000000 1.0
C      1  0.5155450000000  0.5451350000000  0.5147090000000 1.0
C      1  0.5330190000000  0.4598720000000  0.5217330000000 1.0
C      1  0.4487520000000  0.4901590000000  0.5214930000000 1.0
C      1  0.5115150000000  0.5418080000000  0.4821810000000 1.0
C      1  0.5396520000000  0.4628370000000  0.4889830000000 1.0
C      1  0.4464880000000  0.4861820000000  0.4888280000000 1.0
C      1  0.5484330000000  0.4947090000000  0.5333070000000 1.0
C      1  0.4686910000000  0.4584840000000  0.5354190000000 1.0
C      1  0.4796950000000  0.5439750000000  0.5323040000000 1.0
C      1  0.5534440000000  0.4953620000000  0.4653380000000 1.0
C      1  0.4852170000000  0.4608360000000  0.4574910000000 1.0
C      1  0.4690830000000  0.5340710000000  0.4661690000000 1.0
C      1  0.5023600000000  0.5668110000000  0.4681130000000 1.0
C      1  0.5572870000000  0.4480130000000  0.4607630000000 1.0
C      1  0.4367600000000  0.4664480000000  0.4632700000000 1.0
C      1  0.5121030000000  0.5781220000000  0.5215770000000 1.0
C      1  0.5624680000000  0.4477180000000  0.5336030000000 1.0
C      1  0.4219060000000  0.4709540000000  0.5296800000000 1.0
C      1  0.5491690000000  0.5424630000000  0.5190030000000 1.0
C      1  0.5115900000000  0.4352740000000  0.5313340000000 1.0
C      1  0.4361060000000  0.5192590000000  0.5337330000000 1.0
C      1  0.5436820000000  0.5412570000000  0.4865840000000 1.0
C      1  0.5042520000000  0.4330150000000  0.4985570000000 1.0
C      1  0.4314500000000  0.5284160000000  0.5022830000000 1.0
C      1  0.5088150000000  0.4793440000000  0.4496190000000 1.0
C      1  0.4717260000000  0.5132740000000  0.4440460000000 1.0
C      1  0.5380890000000  0.5393860000000  0.4524470000000 1.0
C      1  0.5175710000000  0.4622790000000  0.5519500000000 1.0
C      1  0.4593590000000  0.5025390000000  0.5520700000000 1.0
C      1  0.5285060000000  0.5291470000000  0.5425160000000 1.0
C      1  0.5747270000000  0.4328550000000  0.5135550000000 1.0
C      1  0.4035220000000  0.4687350000000  0.5086810000000 1.0
C      1  0.5188410000000  0.5966390000000  0.5023390000000 1.0
C      1  0.5652080000000  0.4404050000000  0.4888350000000 1.0
C      1  0.4149900000000  0.4749830000000  0.4838340000000 1.0
C      1  0.5144870000000  0.5906930000000  0.4757570000000 1.0
C      1  0.4721190000000  0.4903120000000  0.4682580000000 1.0
C      1  0.4975100000000  0.5120830000000  0.4744180000000 1.0
C      1  0.5235260000000  0.4894690000000  0.4752450000000 1.0
C      1  0.4825020000000  0.4866670000000  0.5236800000000 1.0
C      1  0.4971080000000  0.5172770000000  0.5210430000000 1.0
C      1  0.5164110000000  0.4895240000000  0.5228180000000 1.0
C      1  0.4556020000000  0.4590590000000  0.4462890000000 1.0
C      1  0.4785710000000  0.5609490000000  0.4568730000000 1.0
C      1  0.5648270000000  0.4739410000000  0.4514130000000 1.0
C      1  0.4430700000000  0.4596170000000  0.5466260000000 1.0
C      1  0.4943900000000  0.5659610000000  0.5414460000000 1.0
C      1  0.5604610000000  0.4735120000000  0.5473940000000 1.0
END
