TITL C-1154810-7815-701 0.00082469202632471 125000 -361.995848125918 0 0 60 (C1) n - 1
REM
REM in /home/nfs/bkarasulu/CARBON/AIRSS/Generating-Clusters/AIREBO/Higher-Symm/Only-C60
REM
REM
REM
REM
REM
REM ./C.cell (28575a23ae977d3b5fae324c64b13b57)
REM
REM compiler GCC version 9.2.1 20190827 (Red Hat 9.2.1-1)
REM options -cpp -mtune=generic -march=x86-64 -g -O0 -fpre-include=/usr/include/finclude/math-vector-fortran.h
REM seed -1510758227 1679183709 1381921027 828440883 -157614865 -2025631115 -2035642314 509834747 -215508607 -1859841047 244723629 -1119301139 -586885721 1032196242 769984818 1554272761 664814228 -1297568823 -1025042278 1466317794 119346029 -1914047947 949732701 -153566360 241397307 375901730 1865855850 214307427 -908832692 676029827 -106813437 -799817709 -255042857
REM
CELL 1.54180   50.00000   50.00000   50.00000   90.00000   90.00000   90.00000
LATT -1
SFAC C  
C      1  0.5372020000000  0.4854390000000  0.4413850000000 1.0
C      1  0.4444500000000  0.5366950000000  0.4837950000000 1.0
C      1  0.4850590000000  0.4430620000000  0.5363920000000 1.0
C      1  0.4641790000000  0.4795840000000  0.5611230000000 1.0
C      1  0.5378950000000  0.5222410000000  0.5636530000000 1.0
C      1  0.4664640000000  0.5203880000000  0.4407620000000 1.0
C      1  0.5629580000000  0.5376630000000  0.5220700000000 1.0
C      1  0.4414050000000  0.4615380000000  0.5185960000000 1.0
C      1  0.5562540000000  0.4642970000000  0.4823900000000 1.0
C      1  0.5159430000000  0.4419880000000  0.4584740000000 1.0
C      1  0.4816170000000  0.5619330000000  0.4640620000000 1.0
C      1  0.5216370000000  0.5628660000000  0.5378010000000 1.0
C      1  0.4437030000000  0.4821950000000  0.5391190000000 1.0
C      1  0.4851970000000  0.5411700000000  0.4428030000000 1.0
C      1  0.5367040000000  0.4400380000000  0.4780460000000 1.0
C      1  0.5556060000000  0.4860720000000  0.4643060000000 1.0
C      1  0.5590320000000  0.5170420000000  0.5410140000000 1.0
C      1  0.4457430000000  0.5173240000000  0.4625450000000 1.0
C      1  0.5162610000000  0.5395120000000  0.5581950000000 1.0
C      1  0.5198410000000  0.4634550000000  0.4381530000000 1.0
C      1  0.4870220000000  0.4637770000000  0.5567560000000 1.0
C      1  0.4640440000000  0.4429640000000  0.5156750000000 1.0
C      1  0.4645300000000  0.5575550000000  0.4859790000000 1.0
C      1  0.5396680000000  0.5581540000000  0.5165990000000 1.0
C      1  0.5372980000000  0.4419360000000  0.5089640000000 1.0
C      1  0.5142410000000  0.5380420000000  0.4359940000000 1.0
C      1  0.4359280000000  0.5113210000000  0.5363500000000 1.0
C      1  0.4754620000000  0.4378340000000  0.4866540000000 1.0
C      1  0.5390740000000  0.5607870000000  0.4851210000000 1.0
C      1  0.4779950000000  0.5596900000000  0.5131990000000 1.0
C      1  0.4847280000000  0.5379910000000  0.5596540000000 1.0
C      1  0.5144220000000  0.4779570000000  0.5599940000000 1.0
C      1  0.4860040000000  0.4601200000000  0.4390380000000 1.0
C      1  0.5586920000000  0.5136370000000  0.4778250000000 1.0
C      1  0.4362050000000  0.4884800000000  0.4635190000000 1.0
C      1  0.5628430000000  0.4856590000000  0.5412340000000 1.0
C      1  0.5124720000000  0.4369920000000  0.5243540000000 1.0
C      1  0.4351470000000  0.5260760000000  0.5108160000000 1.0
C      1  0.5231830000000  0.5118390000000  0.4385660000000 1.0
C      1  0.4865460000000  0.4334270000000  0.4610320000000 1.0
C      1  0.4900690000000  0.5621280000000  0.5386790000000 1.0
C      1  0.5144550000000  0.5536030000000  0.4670350000000 1.0
C      1  0.5623000000000  0.5388510000000  0.4902630000000 1.0
C      1  0.5548390000000  0.4703830000000  0.5159010000000 1.0
C      1  0.4331450000000  0.4732650000000  0.4897690000000 1.0
C      1  0.4651550000000  0.5127160000000  0.5535430000000 1.0
C      1  0.4654050000000  0.4866490000000  0.4461780000000 1.0
C      1  0.5396630000000  0.4906630000000  0.5635990000000 1.0
C      1  0.5290780000000  0.4867560000000  0.5097740000000 1.0
C      1  0.5096610000000  0.5019380000000  0.4651130000000 1.0
C      1  0.5056810000000  0.4892410000000  0.5322710000000 1.0
C      1  0.5305380000000  0.5055600000000  0.4885290000000 1.0
C      1  0.4876920000000  0.5311200000000  0.5049280000000 1.0
C      1  0.5052890000000  0.4658560000000  0.5106380000000 1.0
C      1  0.4868220000000  0.5109240000000  0.5303250000000 1.0
C      1  0.4912180000000  0.4803210000000  0.4647750000000 1.0
C      1  0.4614120000000  0.4855960000000  0.4941200000000 1.0
C      1  0.4634050000000  0.5105740000000  0.5073390000000 1.0
C      1  0.5071590000000  0.5280330000000  0.4841410000000 1.0
C      1  0.4843590000000  0.4670840000000  0.4910750000000 1.0
END
