TITL C-1154827-9204-244 -0.00185839972655825 125000 -336.849621484193 0 0 60 (C1) n - 1
REM
REM in /home/nfs/bkarasulu/CARBON/AIRSS/Generating-Clusters/AIREBO/Higher-Symm/Only-C60
REM
REM
REM
REM
REM
REM ./C.cell (28575a23ae977d3b5fae324c64b13b57)
REM
REM compiler GCC version 9.2.1 20190827 (Red Hat 9.2.1-1)
REM options -cpp -mtune=generic -march=x86-64 -g -O0 -fpre-include=/usr/include/finclude/math-vector-fortran.h
REM seed -386804645 60547726 1948964730 -1570064380 914297976 20962417 894632478 1521316075 1647076550 1042712191 -607719233 312409256 -574745206 -2102295810 -1888292345 -1609846825 153028765 661111735 -1679694492 -628219787 -1563798550 -1566254531 -649619786 968395138 -1413147052 483972691 1331325843 -1488326357 327202273 -839817700 1431597420 -1189344861 1688872442
REM
CELL 1.54180   50.00000   50.00000   50.00000   90.00000   90.00000   90.00000
LATT -1
SFAC C  
C      1  0.5181620000000  0.4453960000000  0.5479890000000 1.0
C      1  0.5139790000000  0.4413150000000  0.4613220000000 1.0
C      1  0.5128810000000  0.5197830000000  0.4308970000000 1.0
C      1  0.5140780000000  0.5705860000000  0.4981980000000 1.0
C      1  0.5169130000000  0.5212850000000  0.5676980000000 1.0
C      1  0.4524230000000  0.5252420000000  0.4920890000000 1.0
C      1  0.4303070000000  0.5263590000000  0.5128290000000 1.0
C      1  0.4543130000000  0.4866470000000  0.5308680000000 1.0
C      1  0.4507830000000  0.4756220000000  0.4791100000000 1.0
C      1  0.4395430000000  0.5058880000000  0.4684400000000 1.0
C      1  0.4795930000000  0.4971930000000  0.5472460000000 1.0
C      1  0.4782240000000  0.4627450000000  0.5271340000000 1.0
C      1  0.4781960000000  0.4681590000000  0.4722220000000 1.0
C      1  0.4749630000000  0.5240570000000  0.4666420000000 1.0
C      1  0.4785770000000  0.5395510000000  0.5033120000000 1.0
C      1  0.5342960000000  0.4756180000000  0.5683280000000 1.0
C      1  0.5323820000000  0.4270750000000  0.5043660000000 1.0
C      1  0.5317660000000  0.4740730000000  0.4278920000000 1.0
C      1  0.5318660000000  0.5579670000000  0.4546070000000 1.0
C      1  0.5317840000000  0.5602850000000  0.5427810000000 1.0
C      1  0.5335080000000  0.5805760000000  0.4737860000000 1.0
C      1  0.5337050000000  0.5488440000000  0.5697190000000 1.0
C      1  0.5390540000000  0.4468290000000  0.5747830000000 1.0
C      1  0.5329540000000  0.4190560000000  0.4760130000000 1.0
C      1  0.5298190000000  0.4991430000000  0.4125560000000 1.0
C      1  0.5284070000000  0.5277650000000  0.5362530000000 1.0
C      1  0.5289960000000  0.4758340000000  0.5369130000000 1.0
C      1  0.5264820000000  0.4560940000000  0.4893200000000 1.0
C      1  0.5264090000000  0.4969270000000  0.4522280000000 1.0
C      1  0.5264840000000  0.5425290000000  0.4833750000000 1.0
C      1  0.5089430000000  0.4593490000000  0.4378900000000 1.0
C      1  0.5100320000000  0.5483570000000  0.4396530000000 1.0
C      1  0.5088250000000  0.5680440000000  0.5278420000000 1.0
C      1  0.5150370000000  0.4932960000000  0.5787710000000 1.0
C      1  0.5119420000000  0.4274320000000  0.5237260000000 1.0
C      1  0.4875580000000  0.4397120000000  0.4826880000000 1.0
C      1  0.4866870000000  0.5045580000000  0.4416630000000 1.0
C      1  0.4874620000000  0.5609440000000  0.4826780000000 1.0
C      1  0.4885360000000  0.5288510000000  0.5515020000000 1.0
C      1  0.4899490000000  0.4583170000000  0.5556520000000 1.0
C      1  0.4228270000000  0.4770610000000  0.4609200000000 1.0
C      1  0.4312920000000  0.5246360000000  0.4453700000000 1.0
C      1  0.4117860000000  0.5464800000000  0.5115790000000 1.0
C      1  0.4326280000000  0.5083010000000  0.5330300000000 1.0
C      1  0.4438740000000  0.4672790000000  0.5077490000000 1.0
C      1  0.4892330000000  0.4823700000000  0.5733450000000 1.0
C      1  0.4871580000000  0.4357140000000  0.5111830000000 1.0
C      1  0.4866100000000  0.4761650000000  0.4431950000000 1.0
C      1  0.4859630000000  0.5522630000000  0.4541440000000 1.0
C      1  0.4865000000000  0.5501000000000  0.5326870000000 1.0
C      1  0.5483740000000  0.5224800000000  0.4907750000000 1.0
C      1  0.5500260000000  0.5146640000000  0.5180700000000 1.0
C      1  0.5505560000000  0.4861580000000  0.5188530000000 1.0
C      1  0.5489440000000  0.4763880000000  0.4920020000000 1.0
C      1  0.5480420000000  0.4989560000000  0.4746040000000 1.0
C      1  0.5058060000000  0.4876350000000  0.4761360000000 1.0
C      1  0.5035800000000  0.5183220000000  0.4806150000000 1.0
C      1  0.5058220000000  0.5214980000000  0.5128820000000 1.0
C      1  0.5034740000000  0.4941060000000  0.5275500000000 1.0
C      1  0.5016850000000  0.4721240000000  0.5043280000000 1.0
END
