TITL C-1154825-9328-165 -0.00148167634608329 125000 -323.493439423753 0 0 60 (C1) n - 1
REM
REM in /home/nfs/bkarasulu/CARBON/AIRSS/Generating-Clusters/AIREBO/Higher-Symm/Only-C60
REM
REM
REM
REM
REM
REM ./C.cell (28575a23ae977d3b5fae324c64b13b57)
REM
REM compiler GCC version 9.2.1 20190827 (Red Hat 9.2.1-1)
REM options -cpp -mtune=generic -march=x86-64 -g -O0 -fpre-include=/usr/include/finclude/math-vector-fortran.h
REM seed 2073800274 -413094961 1034355112 -608192823 -165928067 -443611906 -1104659728 -1966064832 -143477297 -2113029508 1824390457 1558498273 -1166067840 1601788906 274562540 1687329548 1951615426 1749687116 -879573149 -438982710 -153002220 768530890 -2118546530 1594939527 857440995 -231031350 274313643 -110360570 1632367132 209961024 -385090199 836761300 478962381
REM
CELL 1.54180   50.00000   50.00000   50.00000   90.00000   90.00000   90.00000
LATT -1
SFAC C  
C      1  0.4879510000000  0.5268390000000  0.5600180000000 1.0
C      1  0.4815550000000  0.4424800000000  0.5439050000000 1.0
C      1  0.4848170000000  0.4388410000000  0.4647550000000 1.0
C      1  0.4824750000000  0.5173300000000  0.4357360000000 1.0
C      1  0.4807420000000  0.5712190000000  0.4965250000000 1.0
C      1  0.5251520000000  0.5097930000000  0.4542310000000 1.0
C      1  0.5304840000000  0.5485170000000  0.4976890000000 1.0
C      1  0.5250390000000  0.5215220000000  0.5356960000000 1.0
C      1  0.5300310000000  0.4589260000000  0.5371040000000 1.0
C      1  0.5233740000000  0.4568990000000  0.4764640000000 1.0
C      1  0.5018650000000  0.4172590000000  0.4792650000000 1.0
C      1  0.4977420000000  0.4984660000000  0.4174180000000 1.0
C      1  0.4986870000000  0.5758980000000  0.4708650000000 1.0
C      1  0.5047420000000  0.5516990000000  0.5639930000000 1.0
C      1  0.4914570000000  0.4570430000000  0.5698380000000 1.0
C      1  0.4875070000000  0.5657850000000  0.4462880000000 1.0
C      1  0.4990610000000  0.5737690000000  0.5458830000000 1.0
C      1  0.4735500000000  0.4763210000000  0.5779910000000 1.0
C      1  0.4968730000000  0.4111050000000  0.5068460000000 1.0
C      1  0.4920950000000  0.4704460000000  0.4218800000000 1.0
C      1  0.5483210000000  0.5234000000000  0.4972560000000 1.0
C      1  0.5476310000000  0.5084000000000  0.5220030000000 1.0
C      1  0.5442340000000  0.4805720000000  0.5165710000000 1.0
C      1  0.5426340000000  0.4782790000000  0.4884020000000 1.0
C      1  0.5447200000000  0.5040700000000  0.4768560000000 1.0
C      1  0.5252040000000  0.5673600000000  0.4725290000000 1.0
C      1  0.5308410000000  0.5474570000000  0.5503550000000 1.0
C      1  0.5183720000000  0.4639490000000  0.5668740000000 1.0
C      1  0.5287340000000  0.4279720000000  0.4849450000000 1.0
C      1  0.5254840000000  0.4961490000000  0.4269150000000 1.0
C      1  0.4609330000000  0.5552410000000  0.5174770000000 1.0
C      1  0.4673720000000  0.5011800000000  0.5575830000000 1.0
C      1  0.4612630000000  0.4441330000000  0.5189790000000 1.0
C      1  0.4666930000000  0.4658720000000  0.4548710000000 1.0
C      1  0.4577410000000  0.5310560000000  0.4518470000000 1.0
C      1  0.4496170000000  0.5091650000000  0.4764940000000 1.0
C      1  0.4473710000000  0.5276950000000  0.5025310000000 1.0
C      1  0.4521750000000  0.5055460000000  0.5274340000000 1.0
C      1  0.4504530000000  0.4760320000000  0.5151940000000 1.0
C      1  0.4499940000000  0.4771190000000  0.4826850000000 1.0
C      1  0.4683430000000  0.5440280000000  0.4802980000000 1.0
C      1  0.4754850000000  0.5293510000000  0.5305080000000 1.0
C      1  0.4759830000000  0.4755240000000  0.5380810000000 1.0
C      1  0.4760650000000  0.4564960000000  0.4918830000000 1.0
C      1  0.4760790000000  0.4967090000000  0.4599170000000 1.0
C      1  0.5343330000000  0.4239350000000  0.5119460000000 1.0
C      1  0.5315340000000  0.4690160000000  0.4280310000000 1.0
C      1  0.5336260000000  0.5554150000000  0.4471030000000 1.0
C      1  0.5359980000000  0.5681740000000  0.5320150000000 1.0
C      1  0.5262050000000  0.4890930000000  0.5784700000000 1.0
C      1  0.5055610000000  0.4800480000000  0.5265650000000 1.0
C      1  0.5023110000000  0.4737300000000  0.4964560000000 1.0
C      1  0.5029150000000  0.4962250000000  0.4744700000000 1.0
C      1  0.5005720000000  0.5384460000000  0.4850330000000 1.0
C      1  0.5019420000000  0.5265560000000  0.5149550000000 1.0
C      1  0.5075720000000  0.5681930000000  0.5133570000000 1.0
C      1  0.5089040000000  0.5008900000000  0.5533810000000 1.0
C      1  0.5074420000000  0.4349320000000  0.5287290000000 1.0
C      1  0.5089230000000  0.4552410000000  0.4472500000000 1.0
C      1  0.5052200000000  0.5371950000000  0.4513650000000 1.0
END
