TITL C-1154810-7815-361 -0.000138892873191013 125000 -325.459325262227 0 0 60 (S10) n - 1
REM
REM in /home/nfs/bkarasulu/CARBON/AIRSS/Generating-Clusters/AIREBO/Higher-Symm/Only-C60
REM
REM
REM
REM
REM
REM ./C.cell (28575a23ae977d3b5fae324c64b13b57)
REM
REM compiler GCC version 9.2.1 20190827 (Red Hat 9.2.1-1)
REM options -cpp -mtune=generic -march=x86-64 -g -O0 -fpre-include=/usr/include/finclude/math-vector-fortran.h
REM seed 185153008 -1369478883 1401229888 -963326149 -527439519 -333247443 1939975811 2015227034 -181508128 96004450 -1281564908 1621709318 -1897041875 -1832553981 -2050235687 1212446812 -1866853472 -898188939 1758549603 1366864774 1169297604 915237916 -1079204718 1415808606 1418295733 1001961924 -1490349287 154989411 -1589539679 -782382313 -457359194 2108310467 82445063
REM
CELL 1.54180   50.00000   50.00000   50.00000   90.00000   90.00000   90.00000
LATT -1
SFAC C  
C      1  0.4868180000000  0.4816510000000  0.5859040000000 1.0
C      1  0.5398220000000  0.5183400000000  0.5772510000000 1.0
C      1  0.5776300000000  0.4816770000000  0.5390860000000 1.0
C      1  0.5857710000000  0.5183590000000  0.4859960000000 1.0
C      1  0.5611660000000  0.4816820000000  0.4382500000000 1.0
C      1  0.5131820000000  0.5183490000000  0.4140960000000 1.0
C      1  0.4601780000000  0.4816600000000  0.4227490000000 1.0
C      1  0.4223700000000  0.5183230000000  0.4609140000000 1.0
C      1  0.4142290000000  0.4816410000000  0.5140040000000 1.0
C      1  0.4388340000000  0.5183180000000  0.5617500000000 1.0
C      1  0.5495220000000  0.4816410000000  0.4704290000000 1.0
C      1  0.5226760000000  0.5183840000000  0.4469740000000 1.0
C      1  0.4871840000000  0.4816280000000  0.4437670000000 1.0
C      1  0.4565720000000  0.5183670000000  0.4620450000000 1.0
C      1  0.4425630000000  0.4816130000000  0.4948140000000 1.0
C      1  0.4504780000000  0.5183590000000  0.5295710000000 1.0
C      1  0.4773240000000  0.4816160000000  0.5530260000000 1.0
C      1  0.5128160000000  0.5183720000000  0.5562330000000 1.0
C      1  0.5434280000000  0.4816330000000  0.5379550000000 1.0
C      1  0.5574370000000  0.5183870000000  0.5051860000000 1.0
C      1  0.4656510000000  0.5318570000000  0.5647910000000 1.0
C      1  0.5103070000000  0.4681250000000  0.5725970000000 1.0
C      1  0.5509980000000  0.5318780000000  0.5526840000000 1.0
C      1  0.5722370000000  0.4681450000000  0.5126370000000 1.0
C      1  0.5658570000000  0.5318890000000  0.4677730000000 1.0
C      1  0.5343490000000  0.4681430000000  0.4352090000000 1.0
C      1  0.4896930000000  0.5318750000000  0.4274030000000 1.0
C      1  0.4490020000000  0.4681220000000  0.4473160000000 1.0
C      1  0.4277630000000  0.5318550000000  0.4873630000000 1.0
C      1  0.4341430000000  0.4681110000000  0.5322270000000 1.0
C      1  0.5289420000000  0.4894030000000  0.5636590000000 1.0
C      1  0.5608280000000  0.5106100000000  0.5344930000000 1.0
C      1  0.5694890000000  0.4894190000000  0.4921480000000 1.0
C      1  0.5515990000000  0.5106150000000  0.4528060000000 1.0
C      1  0.5140090000000  0.4894110000000  0.4314870000000 1.0
C      1  0.4710580000000  0.5105970000000  0.4363410000000 1.0
C      1  0.4391720000000  0.4893900000000  0.4655070000000 1.0
C      1  0.4305110000000  0.5105810000000  0.5078520000000 1.0
C      1  0.4484010000000  0.4893850000000  0.5471940000000 1.0
C      1  0.4859910000000  0.5105890000000  0.5685130000000 1.0
C      1  0.4773470000000  0.5332600000000  0.5156640000000 1.0
C      1  0.4908930000000  0.4667290000000  0.5259780000000 1.0
C      1  0.5078890000000  0.5332660000000  0.5263790000000 1.0
C      1  0.5219000000000  0.4667370000000  0.5166940000000 1.0
C      1  0.5275180000000  0.5332730000000  0.5006430000000 1.0
C      1  0.5226530000000  0.4667400000000  0.4843360000000 1.0
C      1  0.5091070000000  0.5332710000000  0.4740220000000 1.0
C      1  0.4921110000000  0.4667340000000  0.4736210000000 1.0
C      1  0.4781000000000  0.5332630000000  0.4833060000000 1.0
C      1  0.4724820000000  0.4667270000000  0.4993570000000 1.0
C      1  0.5508680000000  0.4510210000000  0.5133700000000 1.0
C      1  0.5489940000000  0.5490030000000  0.4809320000000 1.0
C      1  0.5284470000000  0.4510210000000  0.4557610000000 1.0
C      1  0.4969930000000  0.5489940000000  0.4475040000000 1.0
C      1  0.4667290000000  0.4510060000000  0.4592820000000 1.0
C      1  0.4491320000000  0.5489790000000  0.4866300000000 1.0
C      1  0.4510060000000  0.4509970000000  0.5190680000000 1.0
C      1  0.4715530000000  0.5489790000000  0.5442390000000 1.0
C      1  0.5030070000000  0.4510060000000  0.5524960000000 1.0
C      1  0.5332710000000  0.5489940000000  0.5407180000000 1.0
END
