TITL C-1154830-9999-645 0.00135577362175143 125000 -308.872696305588 0 0 60 (C1) n - 1
REM
REM in /home/nfs/bkarasulu/CARBON/AIRSS/Generating-Clusters/AIREBO/Higher-Symm/Only-C60
REM
REM
REM
REM
REM
REM ./C.cell (28575a23ae977d3b5fae324c64b13b57)
REM
REM compiler GCC version 9.2.1 20190827 (Red Hat 9.2.1-1)
REM options -cpp -mtune=generic -march=x86-64 -g -O0 -fpre-include=/usr/include/finclude/math-vector-fortran.h
REM seed -1077779839 2065853307 -1978397117 1584587723 1729268840 -589594841 386339572 1975609061 -1823191262 -705262749 -864606885 1032816926 1940492680 1227063523 -257394238 -730083189 -2128803812 -268945025 -951876408 1319089376 1324846572 766518901 -1875693818 -1410581806 184247893 1270440536 77036876 1985965289 -747094858 1406077263 2013678540 -2001955247 202859670
REM
CELL 1.54180   50.00000   50.00000   50.00000   90.00000   90.00000   90.00000
LATT -1
SFAC C  
C      1  0.4527000000000  0.5160920000000  0.4404260000000 1.0
C      1  0.4596710000000  0.4894770000000  0.4460940000000 1.0
C      1  0.4631280000000  0.5335880000000  0.5321900000000 1.0
C      1  0.4662070000000  0.4637290000000  0.5244890000000 1.0
C      1  0.5186820000000  0.4596490000000  0.4529640000000 1.0
C      1  0.5221070000000  0.5404200000000  0.4478380000000 1.0
C      1  0.4536100000000  0.5614200000000  0.5050930000000 1.0
C      1  0.4549800000000  0.4323540000000  0.5023050000000 1.0
C      1  0.4850560000000  0.4456040000000  0.5624000000000 1.0
C      1  0.4873130000000  0.5541830000000  0.5682790000000 1.0
C      1  0.4376000000000  0.4792640000000  0.5146670000000 1.0
C      1  0.4382410000000  0.5123110000000  0.5230280000000 1.0
C      1  0.5513710000000  0.4862230000000  0.5302410000000 1.0
C      1  0.5518320000000  0.5158260000000  0.5385710000000 1.0
C      1  0.4735070000000  0.5178210000000  0.5052000000000 1.0
C      1  0.4820430000000  0.4867980000000  0.5072920000000 1.0
C      1  0.5341300000000  0.4377430000000  0.4971460000000 1.0
C      1  0.5337810000000  0.5585380000000  0.4986300000000 1.0
C      1  0.5025000000000  0.5337860000000  0.5791160000000 1.0
C      1  0.4944480000000  0.4709450000000  0.5648610000000 1.0
C      1  0.5248480000000  0.4768450000000  0.5111320000000 1.0
C      1  0.5291590000000  0.5223110000000  0.5140650000000 1.0
C      1  0.5127260000000  0.4843070000000  0.4312450000000 1.0
C      1  0.5095690000000  0.5095590000000  0.4409970000000 1.0
C      1  0.4674470000000  0.4661560000000  0.4850720000000 1.0
C      1  0.4752490000000  0.5388140000000  0.4803440000000 1.0
C      1  0.4990970000000  0.5170900000000  0.5273200000000 1.0
C      1  0.5019890000000  0.4851700000000  0.5349000000000 1.0
C      1  0.4096520000000  0.5220680000000  0.5074180000000 1.0
C      1  0.4102590000000  0.4931630000000  0.5021640000000 1.0
C      1  0.5744880000000  0.5215950000000  0.4659610000000 1.0
C      1  0.5656400000000  0.4829920000000  0.4714510000000 1.0
C      1  0.5247160000000  0.5201890000000  0.4820220000000 1.0
C      1  0.5111380000000  0.4816880000000  0.4832080000000 1.0
C      1  0.4821300000000  0.5514870000000  0.5407210000000 1.0
C      1  0.4816430000000  0.4424380000000  0.5344180000000 1.0
C      1  0.4345320000000  0.4459710000000  0.5084680000000 1.0
C      1  0.4341610000000  0.5417550000000  0.5063240000000 1.0
C      1  0.5526260000000  0.4601830000000  0.5006140000000 1.0
C      1  0.5579900000000  0.5383870000000  0.5059010000000 1.0
C      1  0.5316960000000  0.4587980000000  0.5391260000000 1.0
C      1  0.5316850000000  0.5435630000000  0.5404930000000 1.0
C      1  0.5104710000000  0.4405450000000  0.5190540000000 1.0
C      1  0.5072500000000  0.5551770000000  0.5198640000000 1.0
C      1  0.5751160000000  0.5191920000000  0.4934850000000 1.0
C      1  0.5731740000000  0.4870190000000  0.5043610000000 1.0
C      1  0.4966970000000  0.5173590000000  0.4712740000000 1.0
C      1  0.4839170000000  0.4888830000000  0.4675410000000 1.0
C      1  0.4826570000000  0.5647770000000  0.5002970000000 1.0
C      1  0.4865300000000  0.4397760000000  0.4948850000000 1.0
C      1  0.4701360000000  0.5370570000000  0.4489180000000 1.0
C      1  0.4648530000000  0.4584560000000  0.4508540000000 1.0
C      1  0.5287950000000  0.5605230000000  0.4717880000000 1.0
C      1  0.5281040000000  0.4334040000000  0.4707740000000 1.0
C      1  0.5249080000000  0.4857510000000  0.5600240000000 1.0
C      1  0.5165500000000  0.5172210000000  0.5564990000000 1.0
C      1  0.5362910000000  0.4868400000000  0.4633090000000 1.0
C      1  0.5456190000000  0.5173070000000  0.4562470000000 1.0
C      1  0.4923650000000  0.5450920000000  0.4349060000000 1.0
C      1  0.4912240000000  0.4453220000000  0.4617250000000 1.0
END
