TITL C-1154808-8168-644 0.00143175982985477 125000 -352.086109434177 0 0 60 (C1) n - 1
REM
REM in /home/nfs/bkarasulu/CARBON/AIRSS/Generating-Clusters/AIREBO/Higher-Symm/Only-C60
REM
REM
REM
REM
REM
REM ./C.cell (28575a23ae977d3b5fae324c64b13b57)
REM
REM compiler GCC version 9.2.1 20190827 (Red Hat 9.2.1-1)
REM options -cpp -mtune=generic -march=x86-64 -g -O0 -fpre-include=/usr/include/finclude/math-vector-fortran.h
REM seed -1643438088 -1800393982 874450723 358727342 1156969316 1293764010 -204006652 18369696 419809182 129388278 1676971925 1350550795 47160422 886366403 -192460571 826957086 740023738 -1389018561 1151250752 -2054419807 1418307061 997980205 156637293 -1846154894 905294818 -1087630731 960883043 1983010475 586478322 -427624662 -145165041 -1506178689 1592119712
REM
CELL 1.54180   50.00000   50.00000   50.00000   90.00000   90.00000   90.00000
LATT -1
SFAC C  
C      1  0.4641710000000  0.4606350000000  0.4417950000000 1.0
C      1  0.4473840000000  0.5113320000000  0.4406420000000 1.0
C      1  0.4840550000000  0.5507340000000  0.4403030000000 1.0
C      1  0.5356870000000  0.5391130000000  0.4407150000000 1.0
C      1  0.5526480000000  0.4885030000000  0.4402930000000 1.0
C      1  0.5157290000000  0.4494150000000  0.4419680000000 1.0
C      1  0.4637810000000  0.4605360000000  0.5594570000000 1.0
C      1  0.4478790000000  0.5117540000000  0.5587140000000 1.0
C      1  0.4831130000000  0.5509860000000  0.5584960000000 1.0
C      1  0.5361460000000  0.5393600000000  0.5583690000000 1.0
C      1  0.5513660000000  0.4888480000000  0.5586310000000 1.0
C      1  0.5159080000000  0.4503740000000  0.5593370000000 1.0
C      1  0.4912470000000  0.5269990000000  0.4257770000000 1.0
C      1  0.5191890000000  0.5207430000000  0.4260590000000 1.0
C      1  0.5282140000000  0.4935550000000  0.4255400000000 1.0
C      1  0.5086290000000  0.4722940000000  0.4258980000000 1.0
C      1  0.4804590000000  0.4783640000000  0.4256950000000 1.0
C      1  0.4719940000000  0.5058550000000  0.4263570000000 1.0
C      1  0.4908860000000  0.5281810000000  0.5749550000000 1.0
C      1  0.5195500000000  0.5220420000000  0.5750240000000 1.0
C      1  0.5277210000000  0.4944560000000  0.5740860000000 1.0
C      1  0.5083380000000  0.4735700000000  0.5741500000000 1.0
C      1  0.4804200000000  0.4793790000000  0.5740810000000 1.0
C      1  0.4713940000000  0.5067320000000  0.5749280000000 1.0
C      1  0.5259060000000  0.5075330000000  0.5192260000000 1.0
C      1  0.5214070000000  0.4787200000000  0.5107090000000 1.0
C      1  0.4923070000000  0.4701230000000  0.5133870000000 1.0
C      1  0.4746290000000  0.4900040000000  0.5243470000000 1.0
C      1  0.4797550000000  0.5169660000000  0.5176230000000 1.0
C      1  0.5052460000000  0.5253360000000  0.5258100000000 1.0
C      1  0.5285220000000  0.5106380000000  0.4879090000000 1.0
C      1  0.5213150000000  0.4836760000000  0.4770720000000 1.0
C      1  0.4938760000000  0.4745940000000  0.4821520000000 1.0
C      1  0.4739460000000  0.4938570000000  0.4760210000000 1.0
C      1  0.4788330000000  0.5200520000000  0.4874800000000 1.0
C      1  0.5060360000000  0.5275340000000  0.4806990000000 1.0
C      1  0.5587120000000  0.5186560000000  0.4817420000000 1.0
C      1  0.5443010000000  0.4612060000000  0.4831500000000 1.0
C      1  0.4871960000000  0.4428950000000  0.4846360000000 1.0
C      1  0.4448060000000  0.4835970000000  0.4841260000000 1.0
C      1  0.4551510000000  0.5411050000000  0.4817160000000 1.0
C      1  0.5127250000000  0.5580430000000  0.4830540000000 1.0
C      1  0.5565700000000  0.5170270000000  0.5156750000000 1.0
C      1  0.5448990000000  0.4585270000000  0.5171530000000 1.0
C      1  0.4866830000000  0.4393760000000  0.5184780000000 1.0
C      1  0.4449110000000  0.4815010000000  0.5165520000000 1.0
C      1  0.4562060000000  0.5390750000000  0.5154930000000 1.0
C      1  0.5120670000000  0.5552870000000  0.5161660000000 1.0
C      1  0.4812010000000  0.5561460000000  0.5310300000000 1.0
C      1  0.5402050000000  0.5429660000000  0.5308560000000 1.0
C      1  0.5572310000000  0.4867300000000  0.5316570000000 1.0
C      1  0.5171710000000  0.4454520000000  0.5323290000000 1.0
C      1  0.4594960000000  0.4545500000000  0.5322290000000 1.0
C      1  0.4426200000000  0.5122690000000  0.5314520000000 1.0
C      1  0.4821830000000  0.5560070000000  0.4674070000000 1.0
C      1  0.5398170000000  0.5432860000000  0.4678010000000 1.0
C      1  0.5593530000000  0.4877820000000  0.4674300000000 1.0
C      1  0.5174930000000  0.4450070000000  0.4692940000000 1.0
C      1  0.4605010000000  0.4571540000000  0.4690780000000 1.0
C      1  0.4408160000000  0.5135660000000  0.4677930000000 1.0
END
