TITL C-1154829-9094-538 -0.000110577352768583 125000 -303.949396613336 0 0 60 (C1) n - 1
REM
REM in /home/nfs/bkarasulu/CARBON/AIRSS/Generating-Clusters/AIREBO/Higher-Symm/Only-C60
REM
REM
REM
REM
REM
REM ./C.cell (28575a23ae977d3b5fae324c64b13b57)
REM
REM compiler GCC version 9.2.1 20190827 (Red Hat 9.2.1-1)
REM options -cpp -mtune=generic -march=x86-64 -g -O0 -fpre-include=/usr/include/finclude/math-vector-fortran.h
REM seed -718769881 -1910445102 534172603 455968962 852584985 -1072751760 -121866604 644600206 307624888 -692837311 1792162754 449152389 -1267627855 1815307228 -1303415306 -1183129320 1024045242 1886187167 1408421682 -877493904 748149001 -2130584056 1550281318 -1118905918 2111287241 -871428148 496744850 191859146 120459046 -1923711808 -289333060 646869463 443304257
REM
CELL 1.54180   50.00000   50.00000   50.00000   90.00000   90.00000   90.00000
LATT -1
SFAC C  
C      1  0.4819830000000  0.4511850000000  0.4898250000000 1.0
C      1  0.5370100000000  0.5580300000000  0.5294260000000 1.0
C      1  0.5053930000000  0.5657640000000  0.5311080000000 1.0
C      1  0.4976860000000  0.4240330000000  0.4766910000000 1.0
C      1  0.5023820000000  0.4427020000000  0.4334640000000 1.0
C      1  0.4886610000000  0.5588680000000  0.5603470000000 1.0
C      1  0.5624340000000  0.4828990000000  0.4501280000000 1.0
C      1  0.4255660000000  0.5242780000000  0.5323680000000 1.0
C      1  0.4846900000000  0.5388640000000  0.5331290000000 1.0
C      1  0.5099460000000  0.4505700000000  0.4613620000000 1.0
C      1  0.4462340000000  0.5380510000000  0.4633990000000 1.0
C      1  0.5517500000000  0.4608890000000  0.5307980000000 1.0
C      1  0.4571190000000  0.5451010000000  0.5142260000000 1.0
C      1  0.5342960000000  0.4561420000000  0.4844560000000 1.0
C      1  0.5054920000000  0.4386610000000  0.5212950000000 1.0
C      1  0.4891650000000  0.5621160000000  0.4813900000000 1.0
C      1  0.4997460000000  0.5106900000000  0.5246550000000 1.0
C      1  0.5011170000000  0.4776570000000  0.4803520000000 1.0
C      1  0.5086860000000  0.4768520000000  0.5630230000000 1.0
C      1  0.5105140000000  0.5267050000000  0.4361010000000 1.0
C      1  0.4669390000000  0.4307970000000  0.5149620000000 1.0
C      1  0.5314670000000  0.5681850000000  0.5011570000000 1.0
C      1  0.4693620000000  0.4947610000000  0.5248650000000 1.0
C      1  0.5159140000000  0.5044820000000  0.4953740000000 1.0
C      1  0.4732660000000  0.4852040000000  0.4528650000000 1.0
C      1  0.5452420000000  0.5124590000000  0.5469970000000 1.0
C      1  0.5355150000000  0.5509510000000  0.4732760000000 1.0
C      1  0.4662050000000  0.4455140000000  0.5395650000000 1.0
C      1  0.5074400000000  0.4893280000000  0.4496070000000 1.0
C      1  0.5158850000000  0.5083890000000  0.5525310000000 1.0
C      1  0.4398140000000  0.4726630000000  0.4866300000000 1.0
C      1  0.5636960000000  0.5292010000000  0.5061100000000 1.0
C      1  0.5010410000000  0.5034330000000  0.5827970000000 1.0
C      1  0.5101800000000  0.5024730000000  0.4183580000000 1.0
C      1  0.4610270000000  0.4648720000000  0.4700350000000 1.0
C      1  0.5519170000000  0.5347650000000  0.5310750000000 1.0
C      1  0.5355160000000  0.4702680000000  0.4529230000000 1.0
C      1  0.4559800000000  0.5220460000000  0.5401310000000 1.0
C      1  0.4919190000000  0.4156470000000  0.5050630000000 1.0
C      1  0.5030790000000  0.5795490000000  0.5015200000000 1.0
C      1  0.4901790000000  0.4688290000000  0.5177170000000 1.0
C      1  0.4932650000000  0.5291750000000  0.4895180000000 1.0
C      1  0.5334310000000  0.4460790000000  0.5088970000000 1.0
C      1  0.4598490000000  0.5528590000000  0.4873180000000 1.0
C      1  0.5220300000000  0.5204660000000  0.4659730000000 1.0
C      1  0.4501380000000  0.4686710000000  0.5351510000000 1.0
C      1  0.5695350000000  0.4966810000000  0.4706340000000 1.0
C      1  0.4219130000000  0.5133580000000  0.5095980000000 1.0
C      1  0.4304520000000  0.4646420000000  0.5139630000000 1.0
C      1  0.5643320000000  0.5503180000000  0.4871620000000 1.0
C      1  0.4851900000000  0.5311950000000  0.4565500000000 1.0
C      1  0.5177660000000  0.4744490000000  0.5322630000000 1.0
C      1  0.4479300000000  0.4995350000000  0.4988810000000 1.0
C      1  0.5530750000000  0.5060510000000  0.4932050000000 1.0
C      1  0.5086650000000  0.5556920000000  0.4543540000000 1.0
C      1  0.4940810000000  0.4490850000000  0.5519130000000 1.0
C      1  0.4537760000000  0.5091640000000  0.4471050000000 1.0
C      1  0.5594150000000  0.4890240000000  0.5457800000000 1.0
C      1  0.5390900000000  0.4855630000000  0.5115510000000 1.0
C      1  0.4646150000000  0.5141240000000  0.4790860000000 1.0
END
