TITL C-1154824-75-280 -0.000466586359107582 125000 -364.927622509055 0 0 60 (C1) n - 1
REM
REM in /home/nfs/bkarasulu/CARBON/AIRSS/Generating-Clusters/AIREBO/Higher-Symm/Only-C60
REM
REM
REM
REM
REM
REM ./C.cell (28575a23ae977d3b5fae324c64b13b57)
REM
REM compiler GCC version 9.2.1 20190827 (Red Hat 9.2.1-1)
REM options -cpp -mtune=generic -march=x86-64 -g -O0 -fpre-include=/usr/include/finclude/math-vector-fortran.h
REM seed -28444412 898822443 301040378 -1601713073 -1559026157 1726404139 -1302901204 -1870189631 -446811194 1265689191 -783472837 1093326277 1602174155 -1379255536 545319949 -1626751438 1427796979 12076482 1230615009 -1419948701 2060563390 734013163 -403655437 508378072 -644486336 -1767048362 785969959 1770397634 -865437101 340465459 -1651590246 -1628523861 1201680741
REM
CELL 1.54180   50.00000   50.00000   50.00000   90.00000   90.00000   90.00000
LATT -1
SFAC C  
C      1  0.5669020000000  0.5478200000000  0.4756510000000 1.0
C      1  0.5395390000000  0.5026560000000  0.5450520000000 1.0
C      1  0.5631880000000  0.4607980000000  0.4799260000000 1.0
C      1  0.4269680000000  0.4586890000000  0.4773240000000 1.0
C      1  0.4610970000000  0.4956670000000  0.5428490000000 1.0
C      1  0.4453080000000  0.5406480000000  0.4761640000000 1.0
C      1  0.4418600000000  0.4554680000000  0.5221010000000 1.0
C      1  0.4278610000000  0.5030850000000  0.4536600000000 1.0
C      1  0.4558130000000  0.5433710000000  0.5323430000000 1.0
C      1  0.5546220000000  0.5533690000000  0.5211040000000 1.0
C      1  0.5647370000000  0.5016830000000  0.4561020000000 1.0
C      1  0.5566370000000  0.4607800000000  0.5307300000000 1.0
C      1  0.4913730000000  0.5350650000000  0.4568580000000 1.0
C      1  0.4908410000000  0.5007410000000  0.5787140000000 1.0
C      1  0.4858190000000  0.4547810000000  0.4720690000000 1.0
C      1  0.5100020000000  0.4581690000000  0.4732700000000 1.0
C      1  0.5102440000000  0.4858770000000  0.5655390000000 1.0
C      1  0.5143450000000  0.5439360000000  0.4580100000000 1.0
C      1  0.5121720000000  0.4390650000000  0.5163160000000 1.0
C      1  0.5104780000000  0.5004140000000  0.4510200000000 1.0
C      1  0.5040430000000  0.5531590000000  0.5140340000000 1.0
C      1  0.4797530000000  0.5398970000000  0.5166930000000 1.0
C      1  0.4866470000000  0.4966670000000  0.4468270000000 1.0
C      1  0.4883710000000  0.4396360000000  0.5089930000000 1.0
C      1  0.4225430000000  0.4322820000000  0.4870710000000 1.0
C      1  0.4347810000000  0.5487160000000  0.4508460000000 1.0
C      1  0.4692890000000  0.5116300000000  0.5646710000000 1.0
C      1  0.5712720000000  0.5749600000000  0.4836440000000 1.0
C      1  0.5691380000000  0.4558750000000  0.4525870000000 1.0
C      1  0.5403690000000  0.4816520000000  0.5691500000000 1.0
C      1  0.5665150000000  0.5778260000000  0.5112660000000 1.0
C      1  0.5539450000000  0.4585930000000  0.5589980000000 1.0
C      1  0.5692940000000  0.4799120000000  0.4384060000000 1.0
C      1  0.4308610000000  0.4304880000000  0.5137290000000 1.0
C      1  0.4606980000000  0.5384680000000  0.5603450000000 1.0
C      1  0.4249750000000  0.5262640000000  0.4372790000000 1.0
C      1  0.4822560000000  0.4900840000000  0.5198050000000 1.0
C      1  0.4567550000000  0.4676050000000  0.4755770000000 1.0
C      1  0.4695300000000  0.5211220000000  0.4734360000000 1.0
C      1  0.5119340000000  0.4872870000000  0.5316100000000 1.0
C      1  0.5371550000000  0.5366030000000  0.4780920000000 1.0
C      1  0.5348330000000  0.4718990000000  0.4855020000000 1.0
C      1  0.5357320000000  0.5040060000000  0.4685220000000 1.0
C      1  0.5302300000000  0.5477000000000  0.5069630000000 1.0
C      1  0.5295200000000  0.4646370000000  0.5162140000000 1.0
C      1  0.4572200000000  0.4940170000000  0.4594130000000 1.0
C      1  0.4685820000000  0.4631990000000  0.5071610000000 1.0
C      1  0.4787840000000  0.5154300000000  0.5018690000000 1.0
C      1  0.5831040000000  0.5032930000000  0.4786760000000 1.0
C      1  0.5723460000000  0.5302460000000  0.5188610000000 1.0
C      1  0.5743700000000  0.4813280000000  0.5215120000000 1.0
C      1  0.4152240000000  0.5051740000000  0.4801120000000 1.0
C      1  0.4239460000000  0.4780290000000  0.5201400000000 1.0
C      1  0.4335030000000  0.5272180000000  0.5215680000000 1.0
C      1  0.4351930000000  0.5007420000000  0.5321910000000 1.0
C      1  0.4142430000000  0.4799280000000  0.4930320000000 1.0
C      1  0.4262400000000  0.5285120000000  0.4940530000000 1.0
C      1  0.5639910000000  0.5064300000000  0.5309190000000 1.0
C      1  0.5819070000000  0.5284160000000  0.4914610000000 1.0
C      1  0.5811040000000  0.4789900000000  0.4939700000000 1.0
END
