TITL C-1154808-8168-421 -0.00410743838327766 125000 -346.351546538299 0 0 60 (C1) n - 1
REM
REM in /home/nfs/bkarasulu/CARBON/AIRSS/Generating-Clusters/AIREBO/Higher-Symm/Only-C60
REM
REM
REM
REM
REM
REM ./C.cell (28575a23ae977d3b5fae324c64b13b57)
REM
REM compiler GCC version 9.2.1 20190827 (Red Hat 9.2.1-1)
REM options -cpp -mtune=generic -march=x86-64 -g -O0 -fpre-include=/usr/include/finclude/math-vector-fortran.h
REM seed -793243661 -144329248 -68531849 -1688344791 1458237599 385850579 602808690 -199144080 -987309918 720298257 530422884 1993969376 2000091472 -53748059 1987108415 -1246170402 -1035989895 -2045382748 1067663623 -1477355846 1978200084 -346735990 -1439770971 -1617322552 1447624507 -1574151275 1549944923 -1808836952 -930792393 1142879874 -878400616 -1520436782 291782834
REM
CELL 1.54180   50.00000   50.00000   50.00000   90.00000   90.00000   90.00000
LATT -1
SFAC C  
C      1  0.5258350000000  0.5751950000000  0.5160940000000 1.0
C      1  0.4225480000000  0.4859350000000  0.5099520000000 1.0
C      1  0.5501380000000  0.4456760000000  0.5107270000000 1.0
C      1  0.4450700000000  0.4594980000000  0.4764730000000 1.0
C      1  0.5577290000000  0.4754320000000  0.4724210000000 1.0
C      1  0.4932750000000  0.5700200000000  0.4779310000000 1.0
C      1  0.5289950000000  0.4992480000000  0.5255960000000 1.0
C      1  0.4834810000000  0.5221450000000  0.5214000000000 1.0
C      1  0.4873130000000  0.4744650000000  0.5233340000000 1.0
C      1  0.4584940000000  0.5515570000000  0.5039190000000 1.0
C      1  0.4735320000000  0.4324900000000  0.5064750000000 1.0
C      1  0.5672680000000  0.5160630000000  0.4971610000000 1.0
C      1  0.4146360000000  0.4940110000000  0.4621580000000 1.0
C      1  0.5476910000000  0.4275950000000  0.4655450000000 1.0
C      1  0.5389760000000  0.5818290000000  0.4700560000000 1.0
C      1  0.4688330000000  0.5165800000000  0.5512720000000 1.0
C      1  0.5011700000000  0.4750550000000  0.5536270000000 1.0
C      1  0.5271890000000  0.5135920000000  0.5562970000000 1.0
C      1  0.4529370000000  0.4941660000000  0.5534570000000 1.0
C      1  0.5293260000000  0.4709080000000  0.5537560000000 1.0
C      1  0.5169260000000  0.5403320000000  0.5549870000000 1.0
C      1  0.5569510000000  0.5062160000000  0.4713030000000 1.0
C      1  0.4726490000000  0.5491550000000  0.4757910000000 1.0
C      1  0.4702300000000  0.4416640000000  0.4760710000000 1.0
C      1  0.5301200000000  0.4654240000000  0.4353880000000 1.0
C      1  0.5183740000000  0.5430200000000  0.4503660000000 1.0
C      1  0.4593670000000  0.4827050000000  0.4373580000000 1.0
C      1  0.4344440000000  0.4763280000000  0.4525420000000 1.0
C      1  0.5518690000000  0.4519640000000  0.4517600000000 1.0
C      1  0.5154560000000  0.5690030000000  0.4602430000000 1.0
C      1  0.4984900000000  0.5757080000000  0.5063480000000 1.0
C      1  0.4367840000000  0.4622460000000  0.5053300000000 1.0
C      1  0.5636800000000  0.4688710000000  0.5017570000000 1.0
C      1  0.4681110000000  0.4670510000000  0.5489960000000 1.0
C      1  0.5537240000000  0.4937880000000  0.5476240000000 1.0
C      1  0.4873410000000  0.5433550000000  0.5477020000000 1.0
C      1  0.4432950000000  0.5255690000000  0.4881160000000 1.0
C      1  0.5047290000000  0.4345120000000  0.4930860000000 1.0
C      1  0.5567950000000  0.5451570000000  0.4970510000000 1.0
C      1  0.4697650000000  0.4820530000000  0.4703100000000 1.0
C      1  0.5243580000000  0.4761410000000  0.4673570000000 1.0
C      1  0.5017060000000  0.5212880000000  0.4695300000000 1.0
C      1  0.4295970000000  0.4983140000000  0.5359400000000 1.0
C      1  0.5339130000000  0.4500410000000  0.5349270000000 1.0
C      1  0.5296250000000  0.5524480000000  0.5329550000000 1.0
C      1  0.5119960000000  0.4574080000000  0.5132730000000 1.0
C      1  0.5328710000000  0.5291290000000  0.5123690000000 1.0
C      1  0.4532490000000  0.5110180000000  0.5148560000000 1.0
C      1  0.5159080000000  0.4854080000000  0.4977480000000 1.0
C      1  0.5044520000000  0.5173380000000  0.5005670000000 1.0
C      1  0.4723880000000  0.4886550000000  0.5030360000000 1.0
C      1  0.4782860000000  0.5617810000000  0.5218590000000 1.0
C      1  0.4561720000000  0.4495770000000  0.5223480000000 1.0
C      1  0.5672750000000  0.4934820000000  0.5163990000000 1.0
C      1  0.4968230000000  0.4611390000000  0.4723660000000 1.0
C      1  0.5347420000000  0.5185430000000  0.4612760000000 1.0
C      1  0.4696070000000  0.5160210000000  0.4684380000000 1.0
C      1  0.5470850000000  0.5724220000000  0.4958120000000 1.0
C      1  0.4202970000000  0.5044580000000  0.4879030000000 1.0
C      1  0.5361140000000  0.4298040000000  0.4912600000000 1.0
END
