TITL C-1154816-9297-317 -0.000944981200913797 125000 -307.903072551385 0 0 60 (C1) n - 1
REM
REM in /home/nfs/bkarasulu/CARBON/AIRSS/Generating-Clusters/AIREBO/Higher-Symm/Only-C60
REM
REM
REM
REM
REM
REM ./C.cell (28575a23ae977d3b5fae324c64b13b57)
REM
REM compiler GCC version 9.2.1 20190827 (Red Hat 9.2.1-1)
REM options -cpp -mtune=generic -march=x86-64 -g -O0 -fpre-include=/usr/include/finclude/math-vector-fortran.h
REM seed 1068408446 675522859 -157770043 -1476053872 1960233484 1263700113 2012357747 -1219113984 -1396296168 1606019669 1991890661 1888816125 -51014188 1691481426 451241176 1680267742 -1906165785 1588887534 1729224918 -1627962652 -1543917915 -1967612724 -1627247250 1399224028 -840799100 -1917106611 -301443449 1471193212 -1165097314 2004539714 -1220196889 1120601272 40958419
REM
CELL 1.54180   50.00000   50.00000   50.00000   90.00000   90.00000   90.00000
LATT -1
SFAC C  
C      1  0.4984720000000  0.5574290000000  0.5293010000000 1.0
C      1  0.5305740000000  0.5491320000000  0.5216830000000 1.0
C      1  0.5294570000000  0.5574100000000  0.4881250000000 1.0
C      1  0.5144370000000  0.5470650000000  0.4607980000000 1.0
C      1  0.4812470000000  0.5435400000000  0.4622850000000 1.0
C      1  0.4602890000000  0.5493040000000  0.4891880000000 1.0
C      1  0.4672810000000  0.5464750000000  0.5213000000000 1.0
C      1  0.5027730000000  0.4493860000000  0.4414190000000 1.0
C      1  0.4578750000000  0.4547520000000  0.4619540000000 1.0
C      1  0.4479300000000  0.4575140000000  0.5084770000000 1.0
C      1  0.4760920000000  0.4521890000000  0.5477650000000 1.0
C      1  0.5219080000000  0.4503580000000  0.5483870000000 1.0
C      1  0.5511370000000  0.4500860000000  0.5166320000000 1.0
C      1  0.5413510000000  0.4546220000000  0.4709080000000 1.0
C      1  0.4797900000000  0.5184240000000  0.5359350000000 1.0
C      1  0.5119380000000  0.5107760000000  0.5321510000000 1.0
C      1  0.5384970000000  0.5175280000000  0.5119130000000 1.0
C      1  0.5260940000000  0.5052730000000  0.4843910000000 1.0
C      1  0.5084930000000  0.5143380000000  0.4610940000000 1.0
C      1  0.4683380000000  0.5147020000000  0.4727990000000 1.0
C      1  0.4658950000000  0.5091270000000  0.5062500000000 1.0
C      1  0.5700770000000  0.5117200000000  0.5033670000000 1.0
C      1  0.5321470000000  0.5262270000000  0.4401400000000 1.0
C      1  0.4745890000000  0.5178740000000  0.4403570000000 1.0
C      1  0.4370960000000  0.5266660000000  0.4788840000000 1.0
C      1  0.4467280000000  0.5255870000000  0.5394380000000 1.0
C      1  0.4844230000000  0.5106870000000  0.5687250000000 1.0
C      1  0.5488310000000  0.5284120000000  0.5424320000000 1.0
C      1  0.4734960000000  0.4785400000000  0.5308490000000 1.0
C      1  0.5050260000000  0.4790620000000  0.5414520000000 1.0
C      1  0.5324600000000  0.4779820000000  0.5220380000000 1.0
C      1  0.5398910000000  0.4802770000000  0.4929950000000 1.0
C      1  0.5071360000000  0.4819930000000  0.4506940000000 1.0
C      1  0.4835100000000  0.4736950000000  0.4737070000000 1.0
C      1  0.4554620000000  0.4816670000000  0.4912250000000 1.0
C      1  0.5735830000000  0.4819450000000  0.4887360000000 1.0
C      1  0.5389650000000  0.4940740000000  0.4452900000000 1.0
C      1  0.4836630000000  0.4940220000000  0.4292330000000 1.0
C      1  0.4328090000000  0.4968290000000  0.4742800000000 1.0
C      1  0.4465760000000  0.4955000000000  0.5384530000000 1.0
C      1  0.5033230000000  0.4842190000000  0.5750190000000 1.0
C      1  0.5518460000000  0.4945510000000  0.5437850000000 1.0
C      1  0.4924040000000  0.4665180000000  0.4170980000000 1.0
C      1  0.4342980000000  0.4703000000000  0.4592570000000 1.0
C      1  0.4348280000000  0.4685530000000  0.5312430000000 1.0
C      1  0.4846780000000  0.4576140000000  0.5730620000000 1.0
C      1  0.5353140000000  0.4755670000000  0.5668820000000 1.0
C      1  0.5716610000000  0.4766110000000  0.5222870000000 1.0
C      1  0.5587210000000  0.4780800000000  0.4582300000000 1.0
C      1  0.4751860000000  0.4347640000000  0.4774730000000 1.0
C      1  0.4666670000000  0.4353200000000  0.5051610000000 1.0
C      1  0.4829990000000  0.4316090000000  0.5288700000000 1.0
C      1  0.5116860000000  0.4288850000000  0.5315710000000 1.0
C      1  0.5304940000000  0.4301220000000  0.5088340000000 1.0
C      1  0.5253480000000  0.4334250000000  0.4806500000000 1.0
C      1  0.5010500000000  0.4322950000000  0.4648260000000 1.0
C      1  0.4992950000000  0.5449370000000  0.4976890000000 1.0
C      1  0.4933200000000  0.4807570000000  0.5033130000000 1.0
C      1  0.4991440000000  0.5141920000000  0.5012160000000 1.0
C      1  0.5090260000000  0.5781650000000  0.5047540000000 1.0
END
