TITL C-1154828-9214-665 0.00122041659402872 125000 -302.385620053781 0 0 60 (C1) n - 1
REM
REM in /home/nfs/bkarasulu/CARBON/AIRSS/Generating-Clusters/AIREBO/Higher-Symm/Only-C60
REM
REM
REM
REM
REM
REM ./C.cell (28575a23ae977d3b5fae324c64b13b57)
REM
REM compiler GCC version 9.2.1 20190827 (Red Hat 9.2.1-1)
REM options -cpp -mtune=generic -march=x86-64 -g -O0 -fpre-include=/usr/include/finclude/math-vector-fortran.h
REM seed 1599004705 1467757013 457908298 1560377760 -2092219817 1733247514 -1596762084 -1703755028 -981783883 1887788067 1309587143 -737924418 1305293180 1682046783 -1813316019 2034486803 -2108265511 -1004169344 1903510241 1926251938 2053391410 255673646 -102517639 1483170210 -1559443613 1500643663 -1366027852 -371496594 -225263945 -879719217 1374700913 205385112 -1380781611
REM
CELL 1.54180   50.00000   50.00000   50.00000   90.00000   90.00000   90.00000
LATT -1
SFAC C  
C      1  0.5305880000000  0.4397580000000  0.5221220000000 1.0
C      1  0.4886560000000  0.4982660000000  0.5733630000000 1.0
C      1  0.5608850000000  0.4597820000000  0.4879580000000 1.0
C      1  0.4980300000000  0.5070830000000  0.4283280000000 1.0
C      1  0.5282000000000  0.5458630000000  0.4539750000000 1.0
C      1  0.5084260000000  0.4755640000000  0.5280890000000 1.0
C      1  0.4657760000000  0.4738210000000  0.5426960000000 1.0
C      1  0.4406210000000  0.5031580000000  0.4727020000000 1.0
C      1  0.5050160000000  0.6122660000000  0.4674180000000 1.0
C      1  0.5356720000000  0.5733980000000  0.4928570000000 1.0
C      1  0.4861140000000  0.4382060000000  0.4365160000000 1.0
C      1  0.5416710000000  0.5227280000000  0.4965140000000 1.0
C      1  0.4496540000000  0.4965840000000  0.5049270000000 1.0
C      1  0.4602370000000  0.4359470000000  0.4552070000000 1.0
C      1  0.4607500000000  0.4419170000000  0.5035500000000 1.0
C      1  0.5059160000000  0.5204100000000  0.5355610000000 1.0
C      1  0.5298050000000  0.4158640000000  0.5334930000000 1.0
C      1  0.5199020000000  0.5705440000000  0.5205140000000 1.0
C      1  0.5445070000000  0.5360030000000  0.5490920000000 1.0
C      1  0.5123520000000  0.5211910000000  0.4810930000000 1.0
C      1  0.5170690000000  0.5515960000000  0.5440230000000 1.0
C      1  0.4214940000000  0.5015240000000  0.5468470000000 1.0
C      1  0.5417000000000  0.4941400000000  0.4785860000000 1.0
C      1  0.4722290000000  0.4974690000000  0.4264620000000 1.0
C      1  0.4560680000000  0.5356330000000  0.5055020000000 1.0
C      1  0.4682360000000  0.5440430000000  0.4476500000000 1.0
C      1  0.5340710000000  0.4610950000000  0.5002890000000 1.0
C      1  0.5650460000000  0.5478890000000  0.5626440000000 1.0
C      1  0.5401590000000  0.5495930000000  0.4786370000000 1.0
C      1  0.4532300000000  0.5333510000000  0.4749650000000 1.0
C      1  0.4497440000000  0.5036160000000  0.5386310000000 1.0
C      1  0.5440680000000  0.5089890000000  0.5391760000000 1.0
C      1  0.5326080000000  0.4704490000000  0.5712830000000 1.0
C      1  0.4581320000000  0.5362570000000  0.5339920000000 1.0
C      1  0.5320720000000  0.4932460000000  0.5112030000000 1.0
C      1  0.4902550000000  0.4836050000000  0.4701400000000 1.0
C      1  0.5910510000000  0.4594330000000  0.4771670000000 1.0
C      1  0.4788200000000  0.4631550000000  0.5167930000000 1.0
C      1  0.4971500000000  0.5124940000000  0.5081400000000 1.0
C      1  0.5125740000000  0.4592370000000  0.4782580000000 1.0
C      1  0.4357720000000  0.4495520000000  0.4943620000000 1.0
C      1  0.4666020000000  0.5131620000000  0.5665900000000 1.0
C      1  0.5165940000000  0.4958490000000  0.5541310000000 1.0
C      1  0.4843160000000  0.4704680000000  0.5639220000000 1.0
C      1  0.5707010000000  0.4844590000000  0.4704550000000 1.0
C      1  0.5230040000000  0.4503680000000  0.4538860000000 1.0
C      1  0.4737270000000  0.4653360000000  0.4500780000000 1.0
C      1  0.5105500000000  0.5913950000000  0.4824330000000 1.0
C      1  0.4874450000000  0.5409650000000  0.4940790000000 1.0
C      1  0.4303460000000  0.4753960000000  0.4894270000000 1.0
C      1  0.4844110000000  0.5433720000000  0.5393420000000 1.0
C      1  0.5100800000000  0.4566440000000  0.5562960000000 1.0
C      1  0.4799500000000  0.4895360000000  0.5002910000000 1.0
C      1  0.4784130000000  0.5144760000000  0.4620950000000 1.0
C      1  0.5006090000000  0.5342280000000  0.4452210000000 1.0
C      1  0.4489880000000  0.4961060000000  0.4417810000000 1.0
C      1  0.5167750000000  0.4991460000000  0.4555750000000 1.0
C      1  0.5267730000000  0.3928950000000  0.5457460000000 1.0
C      1  0.4968370000000  0.5687310000000  0.4995620000000 1.0
C      1  0.5295540000000  0.4727460000000  0.4383690000000 1.0
END
