TITL C-1154827-9204-241 0.00876379974990387 125000 -308.006567799281 0 0 60 (C1) n - 1
REM
REM in /home/nfs/bkarasulu/CARBON/AIRSS/Generating-Clusters/AIREBO/Higher-Symm/Only-C60
REM
REM
REM
REM
REM
REM ./C.cell (28575a23ae977d3b5fae324c64b13b57)
REM
REM compiler GCC version 9.2.1 20190827 (Red Hat 9.2.1-1)
REM options -cpp -mtune=generic -march=x86-64 -g -O0 -fpre-include=/usr/include/finclude/math-vector-fortran.h
REM seed -369153645 -1547955968 -390119609 963325530 1837735500 365517131 -649931670 -806547975 -1992968132 1116167639 7915265 222067437 -1526304267 172165203 759912042 -771520782 -1982560710 938196670 -1940827467 843477220 -2111258910 -1459355063 -1978322515 -1403577695 -2107466396 -75876671 543379660 -1227622182 1964511669 -962387040 -382775825 156567493 1228358579
REM
CELL 1.54180   50.00000   50.00000   50.00000   90.00000   90.00000   90.00000
LATT -1
SFAC C  
C      1  0.5054230000000  0.5384500000000  0.5775090000000 1.0
C      1  0.5109440000000  0.5079710000000  0.4340700000000 1.0
C      1  0.5077140000000  0.4343580000000  0.5167740000000 1.0
C      1  0.5042310000000  0.4639630000000  0.5543810000000 1.0
C      1  0.5044300000000  0.4763710000000  0.4325160000000 1.0
C      1  0.4997450000000  0.5729210000000  0.5154170000000 1.0
C      1  0.4612610000000  0.5427940000000  0.5113000000000 1.0
C      1  0.4624110000000  0.4921880000000  0.4690470000000 1.0
C      1  0.4518930000000  0.4882710000000  0.5226270000000 1.0
C      1  0.4623040000000  0.4741810000000  0.4974010000000 1.0
C      1  0.4537290000000  0.5190650000000  0.4558260000000 1.0
C      1  0.4595130000000  0.5198890000000  0.5325480000000 1.0
C      1  0.5513760000000  0.4811520000000  0.5452910000000 1.0
C      1  0.5387280000000  0.5552360000000  0.4847090000000 1.0
C      1  0.5496250000000  0.4657990000000  0.4561650000000 1.0
C      1  0.5407620000000  0.5128450000000  0.5515830000000 1.0
C      1  0.5421270000000  0.4528430000000  0.4855050000000 1.0
C      1  0.5451250000000  0.5417200000000  0.4544720000000 1.0
C      1  0.4768270000000  0.4325140000000  0.5250240000000 1.0
C      1  0.4855440000000  0.5417780000000  0.5557730000000 1.0
C      1  0.4769850000000  0.5062700000000  0.4345780000000 1.0
C      1  0.4829700000000  0.5555330000000  0.5315880000000 1.0
C      1  0.4756330000000  0.4466180000000  0.5513340000000 1.0
C      1  0.4709080000000  0.4726590000000  0.4354230000000 1.0
C      1  0.4266340000000  0.4984940000000  0.5396610000000 1.0
C      1  0.4373970000000  0.5469310000000  0.4924910000000 1.0
C      1  0.4419920000000  0.4670750000000  0.4638430000000 1.0
C      1  0.4315810000000  0.5228450000000  0.5518620000000 1.0
C      1  0.4382280000000  0.4523290000000  0.4871190000000 1.0
C      1  0.4360930000000  0.5346070000000  0.4680040000000 1.0
C      1  0.5205740000000  0.5170290000000  0.5245040000000 1.0
C      1  0.5297730000000  0.5185370000000  0.4721020000000 1.0
C      1  0.5216300000000  0.4746240000000  0.4989990000000 1.0
C      1  0.5346520000000  0.4901360000000  0.5197060000000 1.0
C      1  0.5284020000000  0.4875690000000  0.4713900000000 1.0
C      1  0.5182000000000  0.5328440000000  0.5000030000000 1.0
C      1  0.5622950000000  0.4470140000000  0.5087170000000 1.0
C      1  0.5532460000000  0.5376600000000  0.5346300000000 1.0
C      1  0.5666300000000  0.5179490000000  0.4518800000000 1.0
C      1  0.5541170000000  0.5480840000000  0.5122960000000 1.0
C      1  0.5681140000000  0.4597010000000  0.5296370000000 1.0
C      1  0.5652470000000  0.4938610000000  0.4572320000000 1.0
C      1  0.4844510000000  0.5082720000000  0.5624520000000 1.0
C      1  0.4864790000000  0.5378960000000  0.4427290000000 1.0
C      1  0.4793850000000  0.4367290000000  0.4897540000000 1.0
C      1  0.4684300000000  0.4780350000000  0.5634670000000 1.0
C      1  0.4848180000000  0.4538830000000  0.4608840000000 1.0
C      1  0.4899920000000  0.5593070000000  0.4679650000000 1.0
C      1  0.5180390000000  0.4534620000000  0.4536420000000 1.0
C      1  0.5256810000000  0.4784130000000  0.5644180000000 1.0
C      1  0.5104300000000  0.5703140000000  0.4885910000000 1.0
C      1  0.5200420000000  0.5357570000000  0.4359150000000 1.0
C      1  0.5162200000000  0.5075960000000  0.5746030000000 1.0
C      1  0.5128430000000  0.4366680000000  0.4832410000000 1.0
C      1  0.4954820000000  0.4862750000000  0.4637980000000 1.0
C      1  0.4837360000000  0.4809800000000  0.5332330000000 1.0
C      1  0.4868090000000  0.5388130000000  0.4946850000000 1.0
C      1  0.4963310000000  0.5199850000000  0.4692230000000 1.0
C      1  0.4924620000000  0.5117340000000  0.5305720000000 1.0
C      1  0.4933580000000  0.4632060000000  0.5058860000000 1.0
END
