TITL C-1154803-8277-54 -0.000282166852647517 125000 -324.328463964903 0 0 60 (C1) n - 1
REM
REM in /home/nfs/bkarasulu/CARBON/AIRSS/Generating-Clusters/AIREBO/Higher-Symm/Only-C60
REM
REM
REM
REM
REM
REM ./C.cell (28575a23ae977d3b5fae324c64b13b57)
REM
REM compiler GCC version 9.2.1 20190827 (Red Hat 9.2.1-1)
REM options -cpp -mtune=generic -march=x86-64 -g -O0 -fpre-include=/usr/include/finclude/math-vector-fortran.h
REM seed 1481697279 -1198178748 -1034571390 -864142077 1888319642 -1179815018 66709802 1757545760 -1708506345 -1733565006 628687311 -418145550 -1242286146 123781084 -1015978580 1813221562 -2037994661 -569528898 1915972321 -1348510443 -103683154 518239094 -1465933292 69618323 -1723630008 794024157 910845768 1402772062 1857122231 1396529810 1402359774 -717227114 -264546804
REM
CELL 1.54180   50.00000   50.00000   50.00000   90.00000   90.00000   90.00000
LATT -1
SFAC C  
C      1  0.5158680000000  0.5204720000000  0.5094500000000 1.0
C      1  0.5191730000000  0.4814020000000  0.5169170000000 1.0
C      1  0.5581860000000  0.5423910000000  0.4833300000000 1.0
C      1  0.5568080000000  0.4578000000000  0.4846700000000 1.0
C      1  0.5029950000000  0.4429310000000  0.5351270000000 1.0
C      1  0.4997510000000  0.5536470000000  0.5294850000000 1.0
C      1  0.5257850000000  0.4872340000000  0.4853460000000 1.0
C      1  0.5124870000000  0.5135730000000  0.4763170000000 1.0
C      1  0.5154320000000  0.4352720000000  0.4889710000000 1.0
C      1  0.5173080000000  0.5656500000000  0.4953750000000 1.0
C      1  0.4897940000000  0.4837140000000  0.5024190000000 1.0
C      1  0.4841070000000  0.5172720000000  0.5039760000000 1.0
C      1  0.5234860000000  0.5276880000000  0.4369710000000 1.0
C      1  0.5195270000000  0.4718120000000  0.4332440000000 1.0
C      1  0.4925200000000  0.5459000000000  0.4876190000000 1.0
C      1  0.4948020000000  0.4604040000000  0.4781130000000 1.0
C      1  0.5176260000000  0.5278850000000  0.5426440000000 1.0
C      1  0.5175960000000  0.4699780000000  0.5488350000000 1.0
C      1  0.4732680000000  0.5685700000000  0.5136140000000 1.0
C      1  0.4737720000000  0.4340760000000  0.5199460000000 1.0
C      1  0.4796530000000  0.5367000000000  0.5511630000000 1.0
C      1  0.4784160000000  0.4635500000000  0.5465090000000 1.0
C      1  0.5144650000000  0.5443450000000  0.4620020000000 1.0
C      1  0.5242070000000  0.4634950000000  0.4622520000000 1.0
C      1  0.5318490000000  0.5581700000000  0.5204310000000 1.0
C      1  0.5254580000000  0.4397610000000  0.5148340000000 1.0
C      1  0.5490130000000  0.4552790000000  0.5121160000000 1.0
C      1  0.5524640000000  0.5401540000000  0.5114170000000 1.0
C      1  0.5467460000000  0.5119830000000  0.5209510000000 1.0
C      1  0.5507800000000  0.4805420000000  0.5294620000000 1.0
C      1  0.5386070000000  0.5613550000000  0.4731780000000 1.0
C      1  0.5405760000000  0.4362370000000  0.4691890000000 1.0
C      1  0.4336400000000  0.5160060000000  0.5367840000000 1.0
C      1  0.4345020000000  0.4880770000000  0.5370200000000 1.0
C      1  0.4679410000000  0.4315620000000  0.5504680000000 1.0
C      1  0.4628730000000  0.5634080000000  0.5409210000000 1.0
C      1  0.5463000000000  0.4845370000000  0.4365570000000 1.0
C      1  0.5471310000000  0.5137230000000  0.4417330000000 1.0
C      1  0.4762750000000  0.4342460000000  0.4667320000000 1.0
C      1  0.4526170000000  0.5803370000000  0.4668640000000 1.0
C      1  0.5556940000000  0.4867670000000  0.4698570000000 1.0
C      1  0.5633900000000  0.5197890000000  0.4670890000000 1.0
C      1  0.4433280000000  0.4856220000000  0.4984270000000 1.0
C      1  0.4446620000000  0.5163380000000  0.4985800000000 1.0
C      1  0.4922900000000  0.4737740000000  0.4296740000000 1.0
C      1  0.4951160000000  0.5219340000000  0.4351970000000 1.0
C      1  0.4176200000000  0.5297380000000  0.5147190000000 1.0
C      1  0.4169830000000  0.4740550000000  0.5165470000000 1.0
C      1  0.4553570000000  0.4658800000000  0.4793370000000 1.0
C      1  0.4590680000000  0.5286650000000  0.4750760000000 1.0
C      1  0.5452490000000  0.4804350000000  0.5624910000000 1.0
C      1  0.5446870000000  0.5110470000000  0.5544960000000 1.0
C      1  0.4643580000000  0.4407860000000  0.4950140000000 1.0
C      1  0.4645460000000  0.5610160000000  0.4822340000000 1.0
C      1  0.4759200000000  0.4797550000000  0.4574810000000 1.0
C      1  0.4814660000000  0.5106800000000  0.4626480000000 1.0
C      1  0.4642930000000  0.4778120000000  0.5242470000000 1.0
C      1  0.4623650000000  0.5263820000000  0.5258280000000 1.0
C      1  0.4958460000000  0.5134030000000  0.5635880000000 1.0
C      1  0.4939600000000  0.4849810000000  0.5645170000000 1.0
END
