TITL C-1154829-9094-459 0.00126228134046365 125000 -358.499721164588 0 0 60 (C1) n - 1
REM
REM in /home/nfs/bkarasulu/CARBON/AIRSS/Generating-Clusters/AIREBO/Higher-Symm/Only-C60
REM
REM
REM
REM
REM
REM ./C.cell (28575a23ae977d3b5fae324c64b13b57)
REM
REM compiler GCC version 9.2.1 20190827 (Red Hat 9.2.1-1)
REM options -cpp -mtune=generic -march=x86-64 -g -O0 -fpre-include=/usr/include/finclude/math-vector-fortran.h
REM seed 637560800 1181389236 -1636272469 645952037 1959173807 -280707543 -614921522 219519225 1529572622 1672957033 -385564019 -96831369 -2069913720 1968991239 1226311923 -1211361673 -2098545860 -1099107755 215498673 -1400257706 -576351593 1792971228 2126372111 257770637 1583622143 -462595116 -64980444 -1491745192 -2054169209 1348629853 -1014631828 -1544958453 -202773071
REM
CELL 1.54180   50.00000   50.00000   50.00000   90.00000   90.00000   90.00000
LATT -1
SFAC C  
C      1  0.4292070000000  0.4823550000000  0.5278240000000 1.0
C      1  0.4358170000000  0.5150460000000  0.5281660000000 1.0
C      1  0.4365780000000  0.5309040000000  0.4997990000000 1.0
C      1  0.4282130000000  0.5177330000000  0.4708420000000 1.0
C      1  0.4362950000000  0.4860430000000  0.4718500000000 1.0
C      1  0.4355510000000  0.4676950000000  0.4987570000000 1.0
C      1  0.5512540000000  0.4756840000000  0.4742650000000 1.0
C      1  0.5678540000000  0.5210990000000  0.4689570000000 1.0
C      1  0.5683450000000  0.5378380000000  0.4983820000000 1.0
C      1  0.5498270000000  0.5198090000000  0.5180190000000 1.0
C      1  0.5604770000000  0.4876240000000  0.5212510000000 1.0
C      1  0.5691030000000  0.4632560000000  0.5000810000000 1.0
C      1  0.4853590000000  0.5758510000000  0.4591670000000 1.0
C      1  0.4894200000000  0.5015350000000  0.4168990000000 1.0
C      1  0.4824630000000  0.4232300000000  0.4566510000000 1.0
C      1  0.4872460000000  0.4264530000000  0.5415030000000 1.0
C      1  0.4863390000000  0.4995070000000  0.5844300000000 1.0
C      1  0.4868350000000  0.5729600000000  0.5441430000000 1.0
C      1  0.5139610000000  0.5751440000000  0.5390900000000 1.0
C      1  0.5143620000000  0.4985210000000  0.5835140000000 1.0
C      1  0.5147790000000  0.4277120000000  0.5460600000000 1.0
C      1  0.5069910000000  0.4153120000000  0.4664470000000 1.0
C      1  0.5174160000000  0.5033560000000  0.4195210000000 1.0
C      1  0.5127740000000  0.5742200000000  0.4545020000000 1.0
C      1  0.5281230000000  0.4308970000000  0.4745800000000 1.0
C      1  0.5320100000000  0.4459730000000  0.5332720000000 1.0
C      1  0.5281100000000  0.4968380000000  0.5586710000000 1.0
C      1  0.5328190000000  0.5580000000000  0.5274970000000 1.0
C      1  0.5299350000000  0.5560130000000  0.4674350000000 1.0
C      1  0.5296540000000  0.5059550000000  0.4451560000000 1.0
C      1  0.4723390000000  0.4440240000000  0.5248010000000 1.0
C      1  0.4694850000000  0.4464700000000  0.4653260000000 1.0
C      1  0.4723030000000  0.4994920000000  0.4396870000000 1.0
C      1  0.4708750000000  0.5575270000000  0.4752560000000 1.0
C      1  0.4706660000000  0.5527190000000  0.5331600000000 1.0
C      1  0.4707010000000  0.4999050000000  0.5606530000000 1.0
C      1  0.4442580000000  0.4972120000000  0.5539170000000 1.0
C      1  0.4434370000000  0.5469530000000  0.5283390000000 1.0
C      1  0.4458520000000  0.5467650000000  0.4732500000000 1.0
C      1  0.4457250000000  0.5026590000000  0.4457280000000 1.0
C      1  0.4427600000000  0.4534610000000  0.4701790000000 1.0
C      1  0.4466520000000  0.4534700000000  0.5258810000000 1.0
C      1  0.5539000000000  0.4999180000000  0.4584610000000 1.0
C      1  0.5568160000000  0.5506800000000  0.4692250000000 1.0
C      1  0.5595060000000  0.5584330000000  0.5217980000000 1.0
C      1  0.5523190000000  0.5051610000000  0.5478970000000 1.0
C      1  0.5585490000000  0.4551700000000  0.5306160000000 1.0
C      1  0.5553330000000  0.4424860000000  0.4776400000000 1.0
C      1  0.5099280000000  0.5110770000000  0.4647150000000 1.0
C      1  0.5218340000000  0.4624400000000  0.4856370000000 1.0
C      1  0.5156600000000  0.4669960000000  0.5187680000000 1.0
C      1  0.5104030000000  0.4890920000000  0.5378780000000 1.0
C      1  0.5199980000000  0.5332930000000  0.5129770000000 1.0
C      1  0.5140990000000  0.5346870000000  0.4813810000000 1.0
C      1  0.4871170000000  0.5039330000000  0.5379460000000 1.0
C      1  0.4886830000000  0.4570700000000  0.5063590000000 1.0
C      1  0.4897300000000  0.4679130000000  0.4756270000000 1.0
C      1  0.4878840000000  0.4945790000000  0.4628760000000 1.0
C      1  0.4870890000000  0.5447480000000  0.4939340000000 1.0
C      1  0.4889860000000  0.5291050000000  0.5233610000000 1.0
END
