TITL C-1154802-8274-646 0.000653061928451063 125000 -310.478348944799 0 0 60 (C1) n - 1
REM
REM in /home/nfs/bkarasulu/CARBON/AIRSS/Generating-Clusters/AIREBO/Higher-Symm/Only-C60
REM
REM
REM
REM
REM
REM ./C.cell (28575a23ae977d3b5fae324c64b13b57)
REM
REM compiler GCC version 9.2.1 20190827 (Red Hat 9.2.1-1)
REM options -cpp -mtune=generic -march=x86-64 -g -O0 -fpre-include=/usr/include/finclude/math-vector-fortran.h
REM seed -201356561 -25201916 -1105124581 -1906501538 -560647468 -915344903 -2106467130 -1165989689 1455221620 446443899 -1502037960 865732756 1021812904 1137440023 1121757560 -1194779805 1572948096 -845389788 377274756 1299038434 -1855125663 -986358729 -966258146 -1671044892 -1712771561 1505469635 1204651538 533960179 478368327 995001351 -680709635 -235549310 2014834022
REM
CELL 1.54180   50.00000   50.00000   50.00000   90.00000   90.00000   90.00000
LATT -1
SFAC C  
C      1  0.4835180000000  0.4599620000000  0.5595650000000 1.0
C      1  0.4891940000000  0.4506360000000  0.4607600000000 1.0
C      1  0.5025840000000  0.4706240000000  0.4447980000000 1.0
C      1  0.4780830000000  0.5430140000000  0.4410000000000 1.0
C      1  0.4818080000000  0.5641820000000  0.4973370000000 1.0
C      1  0.4947330000000  0.5684270000000  0.5427840000000 1.0
C      1  0.4991080000000  0.5089200000000  0.5731570000000 1.0
C      1  0.5361160000000  0.5447010000000  0.5495120000000 1.0
C      1  0.5147500000000  0.4892390000000  0.5693570000000 1.0
C      1  0.5264610000000  0.4497090000000  0.5355160000000 1.0
C      1  0.5518010000000  0.4360740000000  0.4785180000000 1.0
C      1  0.5232930000000  0.4805770000000  0.4298370000000 1.0
C      1  0.5463860000000  0.5366210000000  0.4403010000000 1.0
C      1  0.5344400000000  0.5665400000000  0.4795050000000 1.0
C      1  0.5675770000000  0.5141080000000  0.4477820000000 1.0
C      1  0.5604740000000  0.5347840000000  0.5150710000000 1.0
C      1  0.5516350000000  0.5155030000000  0.5415950000000 1.0
C      1  0.5644630000000  0.4864950000000  0.5362190000000 1.0
C      1  0.5505580000000  0.4647280000000  0.5190880000000 1.0
C      1  0.5694510000000  0.4515800000000  0.4962850000000 1.0
C      1  0.5421790000000  0.4972030000000  0.4406200000000 1.0
C      1  0.5821270000000  0.5249630000000  0.4915050000000 1.0
C      1  0.5915520000000  0.5207640000000  0.5211930000000 1.0
C      1  0.5914400000000  0.4936580000000  0.5301710000000 1.0
C      1  0.6062270000000  0.4735780000000  0.5168820000000 1.0
C      1  0.5940490000000  0.4648980000000  0.4926340000000 1.0
C      1  0.5966630000000  0.4837570000000  0.4715930000000 1.0
C      1  0.5844550000000  0.5091730000000  0.4691610000000 1.0
C      1  0.4684110000000  0.4421450000000  0.5031600000000 1.0
C      1  0.4609850000000  0.4495620000000  0.4575340000000 1.0
C      1  0.4526080000000  0.4998450000000  0.4479160000000 1.0
C      1  0.4575800000000  0.5452240000000  0.4718260000000 1.0
C      1  0.4633200000000  0.5545610000000  0.5227450000000 1.0
C      1  0.4522570000000  0.5216740000000  0.5554500000000 1.0
C      1  0.4503300000000  0.4763970000000  0.5428420000000 1.0
C      1  0.4431810000000  0.5270270000000  0.4519120000000 1.0
C      1  0.4436820000000  0.5526220000000  0.4966200000000 1.0
C      1  0.4473230000000  0.5475290000000  0.5483420000000 1.0
C      1  0.4377190000000  0.4975170000000  0.5560170000000 1.0
C      1  0.4583020000000  0.4532610000000  0.5263740000000 1.0
C      1  0.4511770000000  0.4364650000000  0.4809160000000 1.0
C      1  0.4504940000000  0.4725060000000  0.4446850000000 1.0
C      1  0.4976900000000  0.4542580000000  0.4912570000000 1.0
C      1  0.4921150000000  0.4889670000000  0.4715020000000 1.0
C      1  0.4803780000000  0.5148240000000  0.4598720000000 1.0
C      1  0.4906510000000  0.5412320000000  0.4786780000000 1.0
C      1  0.4927790000000  0.5387930000000  0.5292220000000 1.0
C      1  0.4812590000000  0.5153710000000  0.5480800000000 1.0
C      1  0.4826620000000  0.4837000000000  0.5352290000000 1.0
C      1  0.5158390000000  0.4801410000000  0.5389900000000 1.0
C      1  0.5303270000000  0.4584930000000  0.4923890000000 1.0
C      1  0.5233080000000  0.4867570000000  0.4748250000000 1.0
C      1  0.5315420000000  0.5182850000000  0.4650860000000 1.0
C      1  0.5205110000000  0.5392420000000  0.4852250000000 1.0
C      1  0.5249940000000  0.5344330000000  0.5187030000000 1.0
C      1  0.5296040000000  0.5010300000000  0.5230840000000 1.0
C      1  0.4477780000000  0.4863130000000  0.5014840000000 1.0
C      1  0.4253730000000  0.4988560000000  0.4996900000000 1.0
C      1  0.4790240000000  0.4806630000000  0.5017640000000 1.0
C      1  0.5409290000000  0.4966320000000  0.4971400000000 1.0
END
