TITL C-1154802-8274-95 6.7494896347925e-05 125000 -323.013938442904 0 0 60 (C1) n - 1
REM
REM in /home/nfs/bkarasulu/CARBON/AIRSS/Generating-Clusters/AIREBO/Higher-Symm/Only-C60
REM
REM
REM
REM
REM
REM ./C.cell (28575a23ae977d3b5fae324c64b13b57)
REM
REM compiler GCC version 9.2.1 20190827 (Red Hat 9.2.1-1)
REM options -cpp -mtune=generic -march=x86-64 -g -O0 -fpre-include=/usr/include/finclude/math-vector-fortran.h
REM seed 1395549019 216535364 732234901 -1209649555 1493237977 -1533754602 -654657047 -1895307668 1873242924 -848013491 -1164230673 1514935730 -1398968335 909951047 -1331977860 -266241324 1640182795 1701142139 -1841558959 -1830213383 -1992536954 647643627 -473470738 -142910755 1781164478 2010657333 -2002937282 -183533892 -485854093 -263009046 -1110553260 -754445217 1046699635
REM
CELL 1.54180   50.00000   50.00000   50.00000   90.00000   90.00000   90.00000
LATT -1
SFAC C  
C      1  0.4901990000000  0.4690650000000  0.4704790000000 1.0
C      1  0.4664660000000  0.5274090000000  0.5095460000000 1.0
C      1  0.4907170000000  0.4640060000000  0.5223130000000 1.0
C      1  0.5125060000000  0.5140850000000  0.5240610000000 1.0
C      1  0.5352200000000  0.4712020000000  0.4947200000000 1.0
C      1  0.5061700000000  0.5286830000000  0.4775930000000 1.0
C      1  0.5030560000000  0.5587580000000  0.4713960000000 1.0
C      1  0.4910440000000  0.4381280000000  0.4779630000000 1.0
C      1  0.4731640000000  0.5605810000000  0.5130720000000 1.0
C      1  0.5016820000000  0.4321090000000  0.5267020000000 1.0
C      1  0.5236040000000  0.5846240000000  0.5039760000000 1.0
C      1  0.5370130000000  0.4392630000000  0.4903980000000 1.0
C      1  0.5612810000000  0.4871580000000  0.4956750000000 1.0
C      1  0.5172430000000  0.5098340000000  0.4566060000000 1.0
C      1  0.4707300000000  0.4922670000000  0.4631940000000 1.0
C      1  0.4373420000000  0.5197950000000  0.5123380000000 1.0
C      1  0.4781250000000  0.4838830000000  0.5417060000000 1.0
C      1  0.5316690000000  0.4996180000000  0.5442040000000 1.0
C      1  0.5170760000000  0.4282250000000  0.4726720000000 1.0
C      1  0.4806170000000  0.5700150000000  0.4832320000000 1.0
C      1  0.4812350000000  0.4290360000000  0.5020960000000 1.0
C      1  0.4995130000000  0.5806300000000  0.5168030000000 1.0
C      1  0.5327910000000  0.4274350000000  0.5156960000000 1.0
C      1  0.5259770000000  0.5742370000000  0.4781410000000 1.0
C      1  0.5216550000000  0.4752900000000  0.5224590000000 1.0
C      1  0.5231710000000  0.5216620000000  0.5015480000000 1.0
C      1  0.5191880000000  0.4804030000000  0.4660910000000 1.0
C      1  0.4755870000000  0.5187380000000  0.4807360000000 1.0
C      1  0.4731160000000  0.4679280000000  0.4976630000000 1.0
C      1  0.4837140000000  0.5122680000000  0.5327810000000 1.0
C      1  0.4382070000000  0.4855610000000  0.4222900000000 1.0
C      1  0.3993640000000  0.5569940000000  0.5185190000000 1.0
C      1  0.4437510000000  0.4708420000000  0.5791850000000 1.0
C      1  0.5473250000000  0.5441690000000  0.5760620000000 1.0
C      1  0.6028870000000  0.4645320000000  0.5248580000000 1.0
C      1  0.5286820000000  0.5249100000000  0.4075510000000 1.0
C      1  0.4789950000000  0.5286020000000  0.5804160000000 1.0
C      1  0.5530570000000  0.4786200000000  0.5602680000000 1.0
C      1  0.5699350000000  0.5082560000000  0.4708580000000 1.0
C      1  0.5346500000000  0.4765660000000  0.4165000000000 1.0
C      1  0.4327490000000  0.5217260000000  0.4487810000000 1.0
C      1  0.4333590000000  0.4923410000000  0.5100680000000 1.0
C      1  0.4289650000000  0.4502720000000  0.4877960000000 1.0
C      1  0.4617760000000  0.5533760000000  0.5417430000000 1.0
C      1  0.5201390000000  0.4370590000000  0.5523890000000 1.0
C      1  0.5674840000000  0.5396610000000  0.5121110000000 1.0
C      1  0.5475170000000  0.4448300000000  0.4527730000000 1.0
C      1  0.4712840000000  0.5530480000000  0.4482500000000 1.0
C      1  0.5532620000000  0.5201060000000  0.4981510000000 1.0
C      1  0.5361210000000  0.4674940000000  0.4420980000000 1.0
C      1  0.4575380000000  0.5302240000000  0.4560010000000 1.0
C      1  0.4447610000000  0.4695510000000  0.4981860000000 1.0
C      1  0.4736910000000  0.5323520000000  0.5539240000000 1.0
C      1  0.5338910000000  0.4601820000000  0.5485780000000 1.0
C      1  0.4552800000000  0.4894300000000  0.4418520000000 1.0
C      1  0.4180580000000  0.5387060000000  0.5168080000000 1.0
C      1  0.4618480000000  0.4773000000000  0.5613610000000 1.0
C      1  0.5392080000000  0.5240410000000  0.5626350000000 1.0
C      1  0.5835810000000  0.4757690000000  0.5125150000000 1.0
C      1  0.5217680000000  0.5171450000000  0.4316120000000 1.0
END
