TITL C-1154821-8623-122 0.000218217439454403 125000 -311.12068273867 0 0 60 (C1) n - 1
REM
REM in /home/nfs/bkarasulu/CARBON/AIRSS/Generating-Clusters/AIREBO/Higher-Symm/Only-C60
REM
REM
REM
REM
REM
REM ./C.cell (28575a23ae977d3b5fae324c64b13b57)
REM
REM compiler GCC version 9.2.1 20190827 (Red Hat 9.2.1-1)
REM options -cpp -mtune=generic -march=x86-64 -g -O0 -fpre-include=/usr/include/finclude/math-vector-fortran.h
REM seed 122693923 905858578 -1923158520 -310246777 1728306390 -1118099366 1850619187 139963309 -70968061 108202196 1549443066 677180202 -1820058199 -946757493 -582330948 608147416 978728105 -1468931080 -41872706 -819372340 -1683096399 -721291627 -287198079 1832559461 1404179564 622478004 968593183 -679810839 -490790963 -1774839266 1562061199 709872078 1289308136
REM
CELL 1.54180   50.00000   50.00000   50.00000   90.00000   90.00000   90.00000
LATT -1
SFAC C  
C      1  0.4740360000000  0.5576770000000  0.5164600000000 1.0
C      1  0.4421820000000  0.4737780000000  0.4833350000000 1.0
C      1  0.5261700000000  0.4419070000000  0.5161890000000 1.0
C      1  0.5570170000000  0.5252920000000  0.4846790000000 1.0
C      1  0.4956490000000  0.4867490000000  0.4264960000000 1.0
C      1  0.5139360000000  0.4962960000000  0.5715170000000 1.0
C      1  0.5046790000000  0.5138850000000  0.4268450000000 1.0
C      1  0.4867080000000  0.5047050000000  0.5723370000000 1.0
C      1  0.5504090000000  0.5312840000000  0.5851380000000 1.0
C      1  0.4718770000000  0.5539220000000  0.4192850000000 1.0
C      1  0.4481540000000  0.4712370000000  0.5839010000000 1.0
C      1  0.5288760000000  0.4474920000000  0.4164900000000 1.0
C      1  0.5559260000000  0.5506260000000  0.5074090000000 1.0
C      1  0.4507900000000  0.5564470000000  0.4915650000000 1.0
C      1  0.4424930000000  0.4500480000000  0.5079660000000 1.0
C      1  0.5495910000000  0.4433130000000  0.4913420000000 1.0
C      1  0.4797010000000  0.5325880000000  0.4342250000000 1.0
C      1  0.4680890000000  0.4791480000000  0.5671840000000 1.0
C      1  0.5209110000000  0.4679030000000  0.4325940000000 1.0
C      1  0.5318570000000  0.5226130000000  0.5672370000000 1.0
C      1  0.5182500000000  0.4708080000000  0.5594010000000 1.0
C      1  0.5293440000000  0.5179240000000  0.4406770000000 1.0
C      1  0.4820130000000  0.5298330000000  0.5595820000000 1.0
C      1  0.4711700000000  0.4822310000000  0.4405430000000 1.0
C      1  0.4968960000000  0.4813540000000  0.5159830000000 1.0
C      1  0.5155600000000  0.4964920000000  0.4840530000000 1.0
C      1  0.5032160000000  0.5130710000000  0.5180990000000 1.0
C      1  0.4836480000000  0.5024210000000  0.4849660000000 1.0
C      1  0.5660750000000  0.4956170000000  0.4707560000000 1.0
C      1  0.5039170000000  0.5678320000000  0.5291290000000 1.0
C      1  0.4341800000000  0.5045340000000  0.4712250000000 1.0
C      1  0.4954400000000  0.4339540000000  0.5283990000000 1.0
C      1  0.5349350000000  0.5367710000000  0.4615010000000 1.0
C      1  0.4626900000000  0.5348940000000  0.5390170000000 1.0
C      1  0.4653360000000  0.4628620000000  0.4609390000000 1.0
C      1  0.5372090000000  0.4650580000000  0.5385270000000 1.0
C      1  0.5175730000000  0.5560910000000  0.4746260000000 1.0
C      1  0.4438640000000  0.5170230000000  0.5258240000000 1.0
C      1  0.4829520000000  0.4434510000000  0.4738400000000 1.0
C      1  0.5562460000000  0.4824890000000  0.5256420000000 1.0
C      1  0.5418440000000  0.4895610000000  0.4480050000000 1.0
C      1  0.5106440000000  0.5424070000000  0.5506780000000 1.0
C      1  0.4585830000000  0.5103080000000  0.4484760000000 1.0
C      1  0.4895780000000  0.4580090000000  0.5514550000000 1.0
C      1  0.4387660000000  0.5014190000000  0.5047760000000 1.0
C      1  0.4986360000000  0.4376570000000  0.4947470000000 1.0
C      1  0.5606560000000  0.4979550000000  0.5045900000000 1.0
C      1  0.5023460000000  0.5616070000000  0.4957340000000 1.0
C      1  0.5075210000000  0.4758390000000  0.4628250000000 1.0
C      1  0.5275910000000  0.5093040000000  0.5364080000000 1.0
C      1  0.4931600000000  0.5227230000000  0.4638530000000 1.0
C      1  0.4751590000000  0.4919340000000  0.5364820000000 1.0
C      1  0.5268580000000  0.5221790000000  0.4980740000000 1.0
C      1  0.4794620000000  0.5292830000000  0.5008490000000 1.0
C      1  0.4703280000000  0.4774670000000  0.4995920000000 1.0
C      1  0.5212200000000  0.4701130000000  0.4999490000000 1.0
C      1  0.4558490000000  0.5297550000000  0.4763870000000 1.0
C      1  0.4688270000000  0.4543360000000  0.5244700000000 1.0
C      1  0.5448620000000  0.4701020000000  0.4758720000000 1.0
C      1  0.5285440000000  0.5464230000000  0.5218530000000 1.0
END
