TITL C-1154824-75-116 -0.00171651664520536 125000 -368.829476997255 0 0 60 (C1) n - 1
REM
REM in /home/nfs/bkarasulu/CARBON/AIRSS/Generating-Clusters/AIREBO/Higher-Symm/Only-C60
REM
REM
REM
REM
REM
REM ./C.cell (28575a23ae977d3b5fae324c64b13b57)
REM
REM compiler GCC version 9.2.1 20190827 (Red Hat 9.2.1-1)
REM options -cpp -mtune=generic -march=x86-64 -g -O0 -fpre-include=/usr/include/finclude/math-vector-fortran.h
REM seed -571485210 563539423 -799470624 -583237416 -144890793 534652313 905629764 1780741802 1017022914 1777412557 -2043118979 -193314073 -862233907 1684465395 1538472834 -1149579629 -1130109565 -81768532 2143193537 878496328 -821122590 2058948814 2051695708 346454821 -1013758685 412237429 1398801851 165641121 -984736262 1132296638 -1665351623 1137601450 1685588241
REM
CELL 1.54180   50.00000   50.00000   50.00000   90.00000   90.00000   90.00000
LATT -1
SFAC C  
C      1  0.4057910000000  0.4846230000000  0.5518950000000 1.0
C      1  0.5140380000000  0.4316050000000  0.4731620000000 1.0
C      1  0.5974630000000  0.4774150000000  0.5474600000000 1.0
C      1  0.5563770000000  0.5490870000000  0.4396140000000 1.0
C      1  0.4996150000000  0.5639840000000  0.5373410000000 1.0
C      1  0.4357900000000  0.5224330000000  0.4319030000000 1.0
C      1  0.4101660000000  0.5152950000000  0.4707860000000 1.0
C      1  0.4110420000000  0.4510820000000  0.5180390000000 1.0
C      1  0.5584470000000  0.4553420000000  0.4743670000000 1.0
C      1  0.5679740000000  0.5094290000000  0.5246330000000 1.0
C      1  0.5500210000000  0.5661750000000  0.4830920000000 1.0
C      1  0.4639300000000  0.5434110000000  0.5083700000000 1.0
C      1  0.6115510000000  0.4345790000000  0.5230820000000 1.0
C      1  0.5671530000000  0.5000940000000  0.4530030000000 1.0
C      1  0.5478460000000  0.5480290000000  0.5480370000000 1.0
C      1  0.4634350000000  0.5647130000000  0.4465740000000 1.0
C      1  0.4251310000000  0.5302430000000  0.5350420000000 1.0
C      1  0.4619340000000  0.4408930000000  0.4741910000000 1.0
C      1  0.5639240000000  0.4965070000000  0.5001270000000 1.0
C      1  0.5618890000000  0.5534400000000  0.5037190000000 1.0
C      1  0.4789910000000  0.5394400000000  0.4837940000000 1.0
C      1  0.4194420000000  0.5336440000000  0.4885880000000 1.0
C      1  0.4197720000000  0.4542670000000  0.4927540000000 1.0
C      1  0.5757770000000  0.4403700000000  0.4899450000000 1.0
C      1  0.5105590000000  0.4647870000000  0.4241760000000 1.0
C      1  0.5348030000000  0.4803810000000  0.5811300000000 1.0
C      1  0.5095090000000  0.5355550000000  0.4340570000000 1.0
C      1  0.4717780000000  0.5192090000000  0.5750950000000 1.0
C      1  0.4709980000000  0.4888360000000  0.4562940000000 1.0
C      1  0.4554480000000  0.4541410000000  0.5676170000000 1.0
C      1  0.4853250000000  0.5606020000000  0.4645350000000 1.0
C      1  0.4362070000000  0.5376660000000  0.5103740000000 1.0
C      1  0.4397860000000  0.4583590000000  0.4738460000000 1.0
C      1  0.5945500000000  0.4263760000000  0.5033300000000 1.0
C      1  0.5626230000000  0.4837010000000  0.4751950000000 1.0
C      1  0.5615970000000  0.5369440000000  0.5262780000000 1.0
C      1  0.4482060000000  0.5468470000000  0.4323190000000 1.0
C      1  0.4170550000000  0.5091020000000  0.5496310000000 1.0
C      1  0.4877670000000  0.4345890000000  0.4789620000000 1.0
C      1  0.6083910000000  0.4532190000000  0.5425810000000 1.0
C      1  0.5608820000000  0.5221350000000  0.4387200000000 1.0
C      1  0.5243990000000  0.5616570000000  0.5476670000000 1.0
C      1  0.5115950000000  0.5577030000000  0.4519890000000 1.0
C      1  0.4659290000000  0.5370390000000  0.5558480000000 1.0
C      1  0.4437050000000  0.4822950000000  0.4592890000000 1.0
C      1  0.4306100000000  0.4449800000000  0.5621300000000 1.0
C      1  0.5318730000000  0.4506890000000  0.4338340000000 1.0
C      1  0.5558080000000  0.4901590000000  0.5675510000000 1.0
C      1  0.4265670000000  0.5036610000000  0.4511560000000 1.0
C      1  0.4124660000000  0.4582250000000  0.5450090000000 1.0
C      1  0.5360840000000  0.4440410000000  0.4609380000000 1.0
C      1  0.5748570000000  0.4937700000000  0.5475890000000 1.0
C      1  0.5388890000000  0.5623980000000  0.4578080000000 1.0
C      1  0.4762280000000  0.5496360000000  0.5330480000000 1.0
C      1  0.5080330000000  0.4768990000000  0.5824000000000 1.0
C      1  0.5016160000000  0.5115490000000  0.4455180000000 1.0
C      1  0.4821570000000  0.4952900000000  0.5820600000000 1.0
C      1  0.4828460000000  0.5138540000000  0.4716680000000 1.0
C      1  0.4793680000000  0.4641510000000  0.5753110000000 1.0
C      1  0.4939880000000  0.4834520000000  0.4355300000000 1.0
END
