TITL C-1154830-9999-72 -0.000434007013928113 125000 -335.246070180955 0 0 60 (C1) n - 1
REM
REM in /home/nfs/bkarasulu/CARBON/AIRSS/Generating-Clusters/AIREBO/Higher-Symm/Only-C60
REM
REM
REM
REM
REM
REM ./C.cell (28575a23ae977d3b5fae324c64b13b57)
REM
REM compiler GCC version 9.2.1 20190827 (Red Hat 9.2.1-1)
REM options -cpp -mtune=generic -march=x86-64 -g -O0 -fpre-include=/usr/include/finclude/math-vector-fortran.h
REM seed 1293968641 1802929325 -756160544 -712145422 908234348 1118978441 691270498 -2043348782 -362404887 946108361 395627210 -1715956638 2135984230 -700058647 -292118764 681500885 -392884744 -366685381 53878668 -484996111 1991136831 -606111830 -665646772 -1139024 1434779318 -1758723017 1034772928 76583404 999230851 -296759941 -660298447 1301336488 543672801
REM
CELL 1.54180   50.00000   50.00000   50.00000   90.00000   90.00000   90.00000
LATT -1
SFAC C  
C      1  0.5656680000000  0.5141820000000  0.4908470000000 1.0
C      1  0.4219060000000  0.5150440000000  0.5009100000000 1.0
C      1  0.5544010000000  0.4940910000000  0.5118610000000 1.0
C      1  0.4430050000000  0.4903820000000  0.4954670000000 1.0
C      1  0.4852430000000  0.4428990000000  0.5335980000000 1.0
C      1  0.5218390000000  0.4456440000000  0.4730990000000 1.0
C      1  0.4749670000000  0.5602090000000  0.5408440000000 1.0
C      1  0.5218890000000  0.5561550000000  0.4633630000000 1.0
C      1  0.4703190000000  0.5216600000000  0.4572570000000 1.0
C      1  0.5276640000000  0.5173440000000  0.5504830000000 1.0
C      1  0.4618830000000  0.4916320000000  0.4672150000000 1.0
C      1  0.5331340000000  0.4871770000000  0.5377370000000 1.0
C      1  0.5109400000000  0.4345100000000  0.5381600000000 1.0
C      1  0.4938880000000  0.4395270000000  0.4642760000000 1.0
C      1  0.5039880000000  0.5534400000000  0.5260130000000 1.0
C      1  0.4965720000000  0.5669890000000  0.4628780000000 1.0
C      1  0.5352760000000  0.4534540000000  0.5339700000000 1.0
C      1  0.4685600000000  0.4582520000000  0.4672390000000 1.0
C      1  0.5314240000000  0.5395760000000  0.5302690000000 1.0
C      1  0.4715700000000  0.5492710000000  0.4732520000000 1.0
C      1  0.4892570000000  0.4880970000000  0.4476270000000 1.0
C      1  0.5039860000000  0.4862430000000  0.5528310000000 1.0
C      1  0.4957320000000  0.5172710000000  0.4421300000000 1.0
C      1  0.4983340000000  0.5156750000000  0.5596570000000 1.0
C      1  0.5667780000000  0.5020470000000  0.4639830000000 1.0
C      1  0.4262920000000  0.5026430000000  0.5295680000000 1.0
C      1  0.5639440000000  0.4706300000000  0.4591270000000 1.0
C      1  0.4289080000000  0.4690510000000  0.5315700000000 1.0
C      1  0.4292380000000  0.4583750000000  0.4998520000000 1.0
C      1  0.5749680000000  0.4488800000000  0.5067350000000 1.0
C      1  0.4303060000000  0.5469550000000  0.5029460000000 1.0
C      1  0.5720880000000  0.5467400000000  0.4997000000000 1.0
C      1  0.4348330000000  0.4624500000000  0.4683020000000 1.0
C      1  0.5671420000000  0.4612280000000  0.5304660000000 1.0
C      1  0.4392040000000  0.5392880000000  0.4744800000000 1.0
C      1  0.5643440000000  0.5402060000000  0.5279970000000 1.0
C      1  0.4890760000000  0.5182190000000  0.5105350000000 1.0
C      1  0.5138030000000  0.5135450000000  0.4891720000000 1.0
C      1  0.4906310000000  0.4868820000000  0.5076560000000 1.0
C      1  0.5152820000000  0.4812750000000  0.4897170000000 1.0
C      1  0.5439350000000  0.5117800000000  0.4460160000000 1.0
C      1  0.4515830000000  0.5122620000000  0.5448830000000 1.0
C      1  0.5392410000000  0.4817500000000  0.4439510000000 1.0
C      1  0.4557140000000  0.4819970000000  0.5453830000000 1.0
C      1  0.5731520000000  0.4909980000000  0.5372160000000 1.0
C      1  0.4235890000000  0.4856480000000  0.4575150000000 1.0
C      1  0.5780790000000  0.5191350000000  0.5430870000000 1.0
C      1  0.4258620000000  0.5124320000000  0.4672180000000 1.0
C      1  0.5385450000000  0.4678120000000  0.5033080000000 1.0
C      1  0.4676180000000  0.4686690000000  0.4990520000000 1.0
C      1  0.5370380000000  0.5284380000000  0.5012840000000 1.0
C      1  0.4786990000000  0.5473220000000  0.5036960000000 1.0
C      1  0.4511630000000  0.5533400000000  0.5198380000000 1.0
C      1  0.5454290000000  0.5521710000000  0.4805470000000 1.0
C      1  0.4543460000000  0.4485870000000  0.5205950000000 1.0
C      1  0.5545870000000  0.4506660000000  0.4807920000000 1.0
C      1  0.5199030000000  0.5252320000000  0.4582390000000 1.0
C      1  0.4775720000000  0.5270040000000  0.5401990000000 1.0
C      1  0.5131990000000  0.4740200000000  0.4585530000000 1.0
C      1  0.4824620000000  0.4735990000000  0.5358420000000 1.0
END
