TITL C-1154801-8518-451 -0.0126265834571185 125000 -313.753195284206 0 0 60 (C1) n - 1
REM
REM in /home/nfs/bkarasulu/CARBON/AIRSS/Generating-Clusters/AIREBO/Higher-Symm/Only-C60
REM
REM
REM
REM
REM
REM ./C.cell (28575a23ae977d3b5fae324c64b13b57)
REM
REM compiler GCC version 9.2.1 20190827 (Red Hat 9.2.1-1)
REM options -cpp -mtune=generic -march=x86-64 -g -O0 -fpre-include=/usr/include/finclude/math-vector-fortran.h
REM seed -2051198743 -1971648643 -1221817208 -2014162411 -553822845 547064298 97742127 -1567618000 1948199009 1547246443 1878560301 765258761 70867808 -1613712760 -1950697258 -451661859 -175104497 767464421 165245763 -173090966 -894415299 1896295374 298289242 199875123 -1512759281 -1680719521 1528517570 -193885817 2040529029 2095013657 438624399 1211170565 1080674737
REM
CELL 1.54180   50.00000   50.00000   50.00000   90.00000   90.00000   90.00000
LATT -1
SFAC C  
C      1  0.4459130000000  0.5168820000000  0.4573040000000 1.0
C      1  0.4480080000000  0.4662860000000  0.4727060000000 1.0
C      1  0.4450410000000  0.4656230000000  0.5266030000000 1.0
C      1  0.4441220000000  0.5141360000000  0.5453280000000 1.0
C      1  0.4458950000000  0.5447530000000  0.5028690000000 1.0
C      1  0.5122200000000  0.4801730000000  0.5173460000000 1.0
C      1  0.5011850000000  0.5117530000000  0.5234690000000 1.0
C      1  0.5104190000000  0.5299640000000  0.4970850000000 1.0
C      1  0.5018450000000  0.5061840000000  0.4741330000000 1.0
C      1  0.5080120000000  0.4754850000000  0.4839270000000 1.0
C      1  0.5420470000000  0.5641880000000  0.5073850000000 1.0
C      1  0.5257070000000  0.5297330000000  0.4390390000000 1.0
C      1  0.5320330000000  0.4518470000000  0.4584480000000 1.0
C      1  0.5451680000000  0.4465880000000  0.5417620000000 1.0
C      1  0.5276320000000  0.5161760000000  0.5619190000000 1.0
C      1  0.4790950000000  0.5559550000000  0.4368660000000 1.0
C      1  0.4888620000000  0.4579760000000  0.4333880000000 1.0
C      1  0.4912720000000  0.4275890000000  0.5262960000000 1.0
C      1  0.4816650000000  0.4965510000000  0.5843440000000 1.0
C      1  0.4913070000000  0.5722390000000  0.5272060000000 1.0
C      1  0.5561940000000  0.5348880000000  0.4945710000000 1.0
C      1  0.5504920000000  0.5085040000000  0.4476080000000 1.0
C      1  0.5503800000000  0.4541310000000  0.4808770000000 1.0
C      1  0.5540910000000  0.4782970000000  0.5293660000000 1.0
C      1  0.5543640000000  0.5158410000000  0.5429250000000 1.0
C      1  0.4542360000000  0.4879370000000  0.4513330000000 1.0
C      1  0.4552660000000  0.4535910000000  0.5007370000000 1.0
C      1  0.4508570000000  0.4848870000000  0.5487480000000 1.0
C      1  0.4530060000000  0.5389430000000  0.5312160000000 1.0
C      1  0.4527200000000  0.5413540000000  0.4741670000000 1.0
C      1  0.5124870000000  0.4421460000000  0.5397370000000 1.0
C      1  0.4991530000000  0.5165870000000  0.5804900000000 1.0
C      1  0.5114470000000  0.5699800000000  0.5072990000000 1.0
C      1  0.4950740000000  0.5370140000000  0.4267830000000 1.0
C      1  0.5051800000000  0.4422980000000  0.4503270000000 1.0
C      1  0.5434280000000  0.4876230000000  0.5591380000000 1.0
C      1  0.5345360000000  0.5338420000000  0.5207680000000 1.0
C      1  0.5462590000000  0.5361360000000  0.4658310000000 1.0
C      1  0.5319070000000  0.4835050000000  0.4609920000000 1.0
C      1  0.5357970000000  0.4565860000000  0.5106440000000 1.0
C      1  0.5279590000000  0.4914480000000  0.4281690000000 1.0
C      1  0.5210100000000  0.4279450000000  0.4998180000000 1.0
C      1  0.5238950000000  0.4683190000000  0.5676060000000 1.0
C      1  0.5243520000000  0.5541290000000  0.5460930000000 1.0
C      1  0.5277230000000  0.5607900000000  0.4636980000000 1.0
C      1  0.4749560000000  0.4803350000000  0.5622810000000 1.0
C      1  0.4772930000000  0.5505650000000  0.5400500000000 1.0
C      1  0.4750850000000  0.5560010000000  0.4647400000000 1.0
C      1  0.4787410000000  0.4843360000000  0.4372250000000 1.0
C      1  0.4786610000000  0.4378450000000  0.5025250000000 1.0
C      1  0.4999030000000  0.5306240000000  0.5485560000000 1.0
C      1  0.5004580000000  0.5571020000000  0.4807440000000 1.0
C      1  0.5010500000000  0.5065520000000  0.4424660000000 1.0
C      1  0.4997940000000  0.4454870000000  0.4812120000000 1.0
C      1  0.4987010000000  0.4701630000000  0.5471730000000 1.0
C      1  0.4572670000000  0.4933220000000  0.5005810000000 1.0
C      1  0.4316410000000  0.5020610000000  0.5006910000000 1.0
C      1  0.5629930000000  0.5069220000000  0.5126850000000 1.0
C      1  0.5352760000000  0.4991060000000  0.5010940000000 1.0
C      1  0.4820080000000  0.5025310000000  0.4996010000000 1.0
END
