TITL C-1154816-9297-712 0.000558080839516988 125000 -331.187761392524 0 0 60 (C1) n - 1
REM
REM in /home/nfs/bkarasulu/CARBON/AIRSS/Generating-Clusters/AIREBO/Higher-Symm/Only-C60
REM
REM
REM
REM
REM
REM ./C.cell (28575a23ae977d3b5fae324c64b13b57)
REM
REM compiler GCC version 9.2.1 20190827 (Red Hat 9.2.1-1)
REM options -cpp -mtune=generic -march=x86-64 -g -O0 -fpre-include=/usr/include/finclude/math-vector-fortran.h
REM seed -2080815948 -746696550 2005060532 -1721574156 -480704951 1815809282 -1862420683 -776388122 -304537722 -409651619 1588680405 397166796 -285751513 834102219 -1584166680 251459158 -550755008 -2071517482 -1782163999 1513343085 -1559900707 -172835258 -17479519 -1881795744 1561015974 -387992784 -1071611664 -965252842 56501705 934259091 353219053 1777806758 1861221304
REM
CELL 1.54180   50.00000   50.00000   50.00000   90.00000   90.00000   90.00000
LATT -1
SFAC C  
C      1  0.4798310000000  0.5015090000000  0.5662740000000 1.0
C      1  0.5558450000000  0.4619660000000  0.4747850000000 1.0
C      1  0.4787870000000  0.4414650000000  0.5286640000000 1.0
C      1  0.4438580000000  0.4647110000000  0.5743710000000 1.0
C      1  0.5099180000000  0.5533260000000  0.4420870000000 1.0
C      1  0.5314360000000  0.5515170000000  0.4859550000000 1.0
C      1  0.4214910000000  0.5238660000000  0.5666220000000 1.0
C      1  0.5705300000000  0.5004930000000  0.5326750000000 1.0
C      1  0.5007860000000  0.4918940000000  0.5454230000000 1.0
C      1  0.5045080000000  0.4288190000000  0.5383880000000 1.0
C      1  0.4863290000000  0.5668260000000  0.5204970000000 1.0
C      1  0.4764920000000  0.4735090000000  0.5373570000000 1.0
C      1  0.5378750000000  0.4642720000000  0.5223090000000 1.0
C      1  0.5307260000000  0.5735430000000  0.4599830000000 1.0
C      1  0.5390390000000  0.5339080000000  0.5105640000000 1.0
C      1  0.4281980000000  0.4481100000000  0.5230160000000 1.0
C      1  0.5318580000000  0.4940540000000  0.5069720000000 1.0
C      1  0.5491790000000  0.4865070000000  0.5421850000000 1.0
C      1  0.4994780000000  0.5867150000000  0.5069650000000 1.0
C      1  0.4610300000000  0.4511700000000  0.4535410000000 1.0
C      1  0.5648440000000  0.5010070000000  0.4493190000000 1.0
C      1  0.4740300000000  0.4995640000000  0.4417970000000 1.0
C      1  0.3983410000000  0.5342850000000  0.5692400000000 1.0
C      1  0.4989520000000  0.5410620000000  0.5480580000000 1.0
C      1  0.5146530000000  0.5138730000000  0.5234890000000 1.0
C      1  0.5260650000000  0.4745570000000  0.4396160000000 1.0
C      1  0.4792470000000  0.4971350000000  0.4745830000000 1.0
C      1  0.5293420000000  0.4987070000000  0.5572540000000 1.0
C      1  0.4560800000000  0.4534860000000  0.4827770000000 1.0
C      1  0.5316350000000  0.4576020000000  0.4915400000000 1.0
C      1  0.5394210000000  0.5437760000000  0.4477800000000 1.0
C      1  0.4537640000000  0.4851750000000  0.4878970000000 1.0
C      1  0.5075000000000  0.4579640000000  0.4533650000000 1.0
C      1  0.5138740000000  0.5287250000000  0.4756670000000 1.0
C      1  0.4790280000000  0.5054370000000  0.4116470000000 1.0
C      1  0.5457520000000  0.5190280000000  0.4385450000000 1.0
C      1  0.5642130000000  0.5175040000000  0.5060470000000 1.0
C      1  0.5269510000000  0.4398390000000  0.5378440000000 1.0
C      1  0.4489840000000  0.4810580000000  0.5516960000000 1.0
C      1  0.4863970000000  0.4408000000000  0.4474480000000 1.0
C      1  0.5256110000000  0.5000790000000  0.4750190000000 1.0
C      1  0.5533400000000  0.4738650000000  0.4490380000000 1.0
C      1  0.4753950000000  0.5328220000000  0.5642540000000 1.0
C      1  0.4821410000000  0.4616550000000  0.5030290000000 1.0
C      1  0.5163580000000  0.5048460000000  0.4426470000000 1.0
C      1  0.5629310000000  0.4848330000000  0.4967000000000 1.0
C      1  0.4648650000000  0.5314280000000  0.4601890000000 1.0
C      1  0.4851040000000  0.5278190000000  0.4866240000000 1.0
C      1  0.4509040000000  0.4385640000000  0.5108140000000 1.0
C      1  0.4545760000000  0.4738090000000  0.4394300000000 1.0
C      1  0.5307020000000  0.5475580000000  0.5377720000000 1.0
C      1  0.4930620000000  0.5277510000000  0.4415390000000 1.0
C      1  0.5275190000000  0.5267560000000  0.5611470000000 1.0
C      1  0.4342630000000  0.4919350000000  0.5054610000000 1.0
C      1  0.5749260000000  0.5075090000000  0.4752490000000 1.0
C      1  0.5186420000000  0.5817270000000  0.4894860000000 1.0
C      1  0.4483640000000  0.5124720000000  0.5607140000000 1.0
C      1  0.4297940000000  0.4760040000000  0.5285960000000 1.0
C      1  0.4913760000000  0.5347680000000  0.5155070000000 1.0
C      1  0.5038610000000  0.4750390000000  0.4825410000000 1.0
END
