TITL C-1154803-8277-571 0.00120854577000958 125000 -339.896271237614 0 0 60 (C3) n - 1
REM
REM in /home/nfs/bkarasulu/CARBON/AIRSS/Generating-Clusters/AIREBO/Higher-Symm/Only-C60
REM
REM
REM
REM
REM
REM ./C.cell (28575a23ae977d3b5fae324c64b13b57)
REM
REM compiler GCC version 9.2.1 20190827 (Red Hat 9.2.1-1)
REM options -cpp -mtune=generic -march=x86-64 -g -O0 -fpre-include=/usr/include/finclude/math-vector-fortran.h
REM seed -2024659156 -1104051551 -2007053544 -1461813803 1938435217 456089914 -1774691346 1397753576 -1855794400 1333645836 -1862610350 -179460183 1626410379 1327020904 -2084393119 -173686288 143135617 940870954 -2032133852 1108636348 -851039848 -670490938 -349278757 1277061729 -1831955842 -367840021 335625102 -294612241 -1993108885 1985292983 -1720197178 709952034 84025517
REM
CELL 1.54180   50.00000   50.00000   50.00000   90.00000   90.00000   90.00000
LATT -1
SFAC C  
C      1  0.5333690000000  0.5182310000000  0.4432760000000 1.0
C      1  0.5182560000000  0.4432790000000  0.5333850000000 1.0
C      1  0.4431800000000  0.5333440000000  0.5180360000000 1.0
C      1  0.5337160000000  0.4816530000000  0.5672820000000 1.0
C      1  0.4638050000000  0.5278950000000  0.5518410000000 1.0
C      1  0.4725990000000  0.4856350000000  0.4475330000000 1.0
C      1  0.5278810000000  0.5520310000000  0.4638740000000 1.0
C      1  0.4856400000000  0.4475240000000  0.4726370000000 1.0
C      1  0.4816520000000  0.5672950000000  0.5337360000000 1.0
C      1  0.4475270000000  0.4726080000000  0.4856590000000 1.0
C      1  0.5672940000000  0.5337090000000  0.4816560000000 1.0
C      1  0.5520190000000  0.4639210000000  0.5278200000000 1.0
C      1  0.4659250000000  0.5256610000000  0.4448020000000 1.0
C      1  0.4849490000000  0.4338220000000  0.5325750000000 1.0
C      1  0.5527210000000  0.5273310000000  0.5106700000000 1.0
C      1  0.4717640000000  0.4810280000000  0.5508310000000 1.0
C      1  0.5272870000000  0.5106520000000  0.5526940000000 1.0
C      1  0.5325760000000  0.4849190000000  0.4338340000000 1.0
C      1  0.4810690000000  0.5508130000000  0.4717650000000 1.0
C      1  0.5255570000000  0.4447730000000  0.4661400000000 1.0
C      1  0.5106420000000  0.5526870000000  0.5273120000000 1.0
C      1  0.5508630000000  0.4717520000000  0.4810020000000 1.0
C      1  0.4337680000000  0.5325860000000  0.4853680000000 1.0
C      1  0.4448010000000  0.4660890000000  0.5255520000000 1.0
C      1  0.5559720000000  0.4837190000000  0.5467400000000 1.0
C      1  0.4836600000000  0.5467390000000  0.5559550000000 1.0
C      1  0.5467780000000  0.5559930000000  0.4837080000000 1.0
C      1  0.5629650000000  0.5172160000000  0.4600490000000 1.0
C      1  0.4451460000000  0.4872390000000  0.4618310000000 1.0
C      1  0.4360500000000  0.5156560000000  0.5444000000000 1.0
C      1  0.4871680000000  0.4617700000000  0.4451450000000 1.0
C      1  0.5156810000000  0.5445690000000  0.4360590000000 1.0
C      1  0.5172210000000  0.4600440000000  0.5629820000000 1.0
C      1  0.5445840000000  0.4360810000000  0.5157040000000 1.0
C      1  0.4600350000000  0.5629490000000  0.5172700000000 1.0
C      1  0.4617600000000  0.4451040000000  0.4871790000000 1.0
C      1  0.4400910000000  0.4873290000000  0.5464150000000 1.0
C      1  0.5125760000000  0.5362960000000  0.5573310000000 1.0
C      1  0.4597160000000  0.5543330000000  0.4885050000000 1.0
C      1  0.4401390000000  0.5159350000000  0.4587720000000 1.0
C      1  0.5543110000000  0.4885170000000  0.4596090000000 1.0
C      1  0.5573210000000  0.5126480000000  0.5363400000000 1.0
C      1  0.5158770000000  0.4584910000000  0.4402480000000 1.0
C      1  0.4873260000000  0.5464640000000  0.4401120000000 1.0
C      1  0.4885280000000  0.4596280000000  0.5542950000000 1.0
C      1  0.4585110000000  0.4402040000000  0.5158890000000 1.0
C      1  0.5363130000000  0.5573320000000  0.5126290000000 1.0
C      1  0.5464720000000  0.4400900000000  0.4873490000000 1.0
C      1  0.4609040000000  0.5150790000000  0.4960690000000 1.0
C      1  0.5272680000000  0.4706120000000  0.5054850000000 1.0
C      1  0.4961700000000  0.4607200000000  0.5150640000000 1.0
C      1  0.5055910000000  0.5272580000000  0.4706300000000 1.0
C      1  0.4722650000000  0.4769760000000  0.5087430000000 1.0
C      1  0.5087410000000  0.4722430000000  0.4770220000000 1.0
C      1  0.5211010000000  0.5232050000000  0.4988430000000 1.0
C      1  0.4706570000000  0.5054830000000  0.5272050000000 1.0
C      1  0.5150760000000  0.4961300000000  0.4607440000000 1.0
C      1  0.4988730000000  0.5210440000000  0.5231920000000 1.0
C      1  0.4770580000000  0.5088310000000  0.4721500000000 1.0
C      1  0.5232360000000  0.4988350000000  0.5210600000000 1.0
END
