TITL C-1154801-8518-175 -0.000791931979878503 125000 -333.666861130039 0 0 60 (C1) n - 1
REM
REM in /home/nfs/bkarasulu/CARBON/AIRSS/Generating-Clusters/AIREBO/Higher-Symm/Only-C60
REM
REM
REM
REM
REM
REM ./C.cell (28575a23ae977d3b5fae324c64b13b57)
REM
REM compiler GCC version 9.2.1 20190827 (Red Hat 9.2.1-1)
REM options -cpp -mtune=generic -march=x86-64 -g -O0 -fpre-include=/usr/include/finclude/math-vector-fortran.h
REM seed 565540158 1251568766 -347560411 -1729329365 1058860673 -1287445345 656233644 1688512158 -232082071 2116055170 86635992 312186898 -90301775 389197976 -286704719 -1887018155 -1345134908 -166234355 1004006726 -1006741806 1705684437 -223338440 984459494 617906043 1030883444 -1184746829 -1826411909 632728223 -1961795761 1148726580 1304516528 634035712 -1913924435
REM
CELL 1.54180   50.00000   50.00000   50.00000   90.00000   90.00000   90.00000
LATT -1
SFAC C  
C      1  0.5318260000000  0.4726340000000  0.5109460000000 1.0
C      1  0.4965050000000  0.4753510000000  0.4734620000000 1.0
C      1  0.4787210000000  0.4765910000000  0.5227710000000 1.0
C      1  0.5334160000000  0.5214110000000  0.5158350000000 1.0
C      1  0.4929970000000  0.5257770000000  0.4752130000000 1.0
C      1  0.4588340000000  0.5287630000000  0.5154890000000 1.0
C      1  0.4437660000000  0.4853450000000  0.4388660000000 1.0
C      1  0.4896660000000  0.4870360000000  0.5804350000000 1.0
C      1  0.5688190000000  0.4840290000000  0.4613840000000 1.0
C      1  0.4410560000000  0.5159690000000  0.4382830000000 1.0
C      1  0.4920020000000  0.5173990000000  0.5760150000000 1.0
C      1  0.5782720000000  0.5119620000000  0.4553660000000 1.0
C      1  0.4622510000000  0.4794780000000  0.5678680000000 1.0
C      1  0.5767470000000  0.4750220000000  0.4900760000000 1.0
C      1  0.4695880000000  0.4764910000000  0.4310500000000 1.0
C      1  0.4701010000000  0.5290980000000  0.5641820000000 1.0
C      1  0.6032390000000  0.5152050000000  0.4445250000000 1.0
C      1  0.4712950000000  0.5263210000000  0.4314680000000 1.0
C      1  0.5406420000000  0.5180960000000  0.5814400000000 1.0
C      1  0.5617000000000  0.5319510000000  0.4616700000000 1.0
C      1  0.4185550000000  0.5264190000000  0.4258780000000 1.0
C      1  0.5135590000000  0.4702400000000  0.5973770000000 1.0
C      1  0.5594880000000  0.4686340000000  0.4328590000000 1.0
C      1  0.4326640000000  0.4709900000000  0.4589700000000 1.0
C      1  0.5084230000000  0.4814300000000  0.5335230000000 1.0
C      1  0.5233990000000  0.4871480000000  0.4837620000000 1.0
C      1  0.4725950000000  0.4840240000000  0.4924360000000 1.0
C      1  0.5180040000000  0.5110240000000  0.5370010000000 1.0
C      1  0.5199390000000  0.5177710000000  0.4871170000000 1.0
C      1  0.4678690000000  0.5141070000000  0.4904570000000 1.0
C      1  0.5600000000000  0.5112360000000  0.5162720000000 1.0
C      1  0.4906230000000  0.5150760000000  0.4471520000000 1.0
C      1  0.4592700000000  0.5174190000000  0.5405390000000 1.0
C      1  0.5609570000000  0.4833980000000  0.5105820000000 1.0
C      1  0.4906890000000  0.4869010000000  0.4470050000000 1.0
C      1  0.4598610000000  0.4893130000000  0.5423200000000 1.0
C      1  0.4871700000000  0.4298110000000  0.5263620000000 1.0
C      1  0.5180260000000  0.4262770000000  0.5012040000000 1.0
C      1  0.4765390000000  0.4419930000000  0.4828170000000 1.0
C      1  0.4650930000000  0.5778660000000  0.5230300000000 1.0
C      1  0.5427230000000  0.5624150000000  0.5059790000000 1.0
C      1  0.4630460000000  0.5524680000000  0.4802320000000 1.0
C      1  0.5129580000000  0.4687720000000  0.5634120000000 1.0
C      1  0.5372800000000  0.4710850000000  0.4584890000000 1.0
C      1  0.4497300000000  0.4629620000000  0.4829800000000 1.0
C      1  0.5189990000000  0.5250140000000  0.5647290000000 1.0
C      1  0.5407500000000  0.5425420000000  0.4807270000000 1.0
C      1  0.4508090000000  0.5285380000000  0.4656250000000 1.0
C      1  0.5213120000000  0.5548310000000  0.5546390000000 1.0
C      1  0.5174060000000  0.5661100000000  0.4753730000000 1.0
C      1  0.4228920000000  0.5627490000000  0.5081790000000 1.0
C      1  0.5304850000000  0.4458690000000  0.5498580000000 1.0
C      1  0.5206300000000  0.4438520000000  0.4571400000000 1.0
C      1  0.4355840000000  0.4471370000000  0.5093670000000 1.0
C      1  0.5032880000000  0.4362080000000  0.4780600000000 1.0
C      1  0.4689460000000  0.4473600000000  0.5141990000000 1.0
C      1  0.5254120000000  0.4431890000000  0.5229990000000 1.0
C      1  0.4920110000000  0.5566580000000  0.4764840000000 1.0
C      1  0.4506920000000  0.5582910000000  0.5087590000000 1.0
C      1  0.5308800000000  0.5589450000000  0.5297670000000 1.0
END
