TITL C-1154825-9328-554 0.00373669611185519 125000 -310.084062814507 0 0 60 (C1) n - 1
REM
REM in /home/nfs/bkarasulu/CARBON/AIRSS/Generating-Clusters/AIREBO/Higher-Symm/Only-C60
REM
REM
REM
REM
REM
REM ./C.cell (28575a23ae977d3b5fae324c64b13b57)
REM
REM compiler GCC version 9.2.1 20190827 (Red Hat 9.2.1-1)
REM options -cpp -mtune=generic -march=x86-64 -g -O0 -fpre-include=/usr/include/finclude/math-vector-fortran.h
REM seed -1300194955 -1937800383 1492500380 149751695 -1320446204 2096152924 -1278110143 1915899851 -64330184 -660569715 1900233146 -249294805 -818246574 2106091067 30579932 197410753 1790106587 8121919 2141271349 -1377939266 -1333920564 -654804279 -1535739595 1323790293 199261543 -1611006683 -474782744 1159201448 1384894849 -208271484 1201194156 1115590931 -1915074291
REM
CELL 1.54180   50.00000   50.00000   50.00000   90.00000   90.00000   90.00000
LATT -1
SFAC C  
C      1  0.4756790000000  0.4985530000000  0.5304010000000 1.0
C      1  0.5250790000000  0.5037670000000  0.5321350000000 1.0
C      1  0.4726970000000  0.4975890000000  0.4632790000000 1.0
C      1  0.5267960000000  0.4983260000000  0.4707050000000 1.0
C      1  0.4962520000000  0.4765320000000  0.5300500000000 1.0
C      1  0.5041140000000  0.5265720000000  0.5302420000000 1.0
C      1  0.5064770000000  0.4774120000000  0.4767950000000 1.0
C      1  0.4931570000000  0.5191050000000  0.4660160000000 1.0
C      1  0.5030420000000  0.5427100000000  0.5665720000000 1.0
C      1  0.5010210000000  0.4581070000000  0.5649830000000 1.0
C      1  0.4905580000000  0.4582610000000  0.4335740000000 1.0
C      1  0.5028340000000  0.5453420000000  0.4377400000000 1.0
C      1  0.5443600000000  0.4988020000000  0.5665590000000 1.0
C      1  0.4543290000000  0.5042690000000  0.5633540000000 1.0
C      1  0.4499970000000  0.4951650000000  0.4307270000000 1.0
C      1  0.5475640000000  0.5029080000000  0.4372200000000 1.0
C      1  0.4262920000000  0.5556910000000  0.4857740000000 1.0
C      1  0.5737890000000  0.4457720000000  0.4861480000000 1.0
C      1  0.4257430000000  0.4428370000000  0.5135170000000 1.0
C      1  0.5813950000000  0.5578650000000  0.5120130000000 1.0
C      1  0.5534080000000  0.4311340000000  0.4825440000000 1.0
C      1  0.4442580000000  0.5732960000000  0.4880430000000 1.0
C      1  0.4443660000000  0.4257600000000  0.5134710000000 1.0
C      1  0.5568550000000  0.5697050000000  0.5064640000000 1.0
C      1  0.4541930000000  0.5179870000000  0.5125930000000 1.0
C      1  0.5459940000000  0.4823420000000  0.5160060000000 1.0
C      1  0.4546790000000  0.4788340000000  0.4851930000000 1.0
C      1  0.5458640000000  0.5205560000000  0.4879950000000 1.0
C      1  0.5214930000000  0.4621830000000  0.5122490000000 1.0
C      1  0.4769120000000  0.5387580000000  0.5137170000000 1.0
C      1  0.4802300000000  0.4590400000000  0.4882070000000 1.0
C      1  0.5167710000000  0.5350100000000  0.4846840000000 1.0
C      1  0.5766740000000  0.4968300000000  0.5199830000000 1.0
C      1  0.4235240000000  0.5029770000000  0.5154520000000 1.0
C      1  0.5771610000000  0.5082280000000  0.4881550000000 1.0
C      1  0.4238330000000  0.4948450000000  0.4824360000000 1.0
C      1  0.4977260000000  0.5641920000000  0.5190350000000 1.0
C      1  0.5051080000000  0.4324560000000  0.5143180000000 1.0
C      1  0.5068870000000  0.5674370000000  0.4873190000000 1.0
C      1  0.4946170000000  0.4282320000000  0.4822490000000 1.0
C      1  0.4351250000000  0.4712940000000  0.5120800000000 1.0
C      1  0.5607980000000  0.5313020000000  0.5164340000000 1.0
C      1  0.4349560000000  0.5268370000000  0.4859240000000 1.0
C      1  0.5677840000000  0.4749160000000  0.4902670000000 1.0
C      1  0.4719160000000  0.4374070000000  0.5132300000000 1.0
C      1  0.5319690000000  0.5489260000000  0.5122410000000 1.0
C      1  0.5275680000000  0.4443710000000  0.4838870000000 1.0
C      1  0.4726730000000  0.5635920000000  0.4903800000000 1.0
C      1  0.5600050000000  0.4928720000000  0.4631350000000 1.0
C      1  0.4411540000000  0.5092640000000  0.4583030000000 1.0
C      1  0.5569700000000  0.5111870000000  0.5412990000000 1.0
C      1  0.4439280000000  0.4896610000000  0.5386970000000 1.0
C      1  0.4882020000000  0.5526070000000  0.4632350000000 1.0
C      1  0.5053760000000  0.4496030000000  0.4586650000000 1.0
C      1  0.5174320000000  0.5554500000000  0.5422770000000 1.0
C      1  0.4892250000000  0.4454390000000  0.5406370000000 1.0
C      1  0.5191800000000  0.5177080000000  0.4438250000000 1.0
C      1  0.5193820000000  0.4815420000000  0.5577990000000 1.0
C      1  0.4807550000000  0.5216960000000  0.5549130000000 1.0
C      1  0.4738750000000  0.4789400000000  0.4348550000000 1.0
END
