TITL C-1154803-8277-1 -0.00366477999350605 125000 -348.637190247551 0 0 60 (C1) n - 1
REM
REM in /home/nfs/bkarasulu/CARBON/AIRSS/Generating-Clusters/AIREBO/Higher-Symm/Only-C60
REM
REM
REM
REM
REM
REM ./C.cell (28575a23ae977d3b5fae324c64b13b57)
REM
REM compiler GCC version 9.2.1 20190827 (Red Hat 9.2.1-1)
REM options -cpp -mtune=generic -march=x86-64 -g -O0 -fpre-include=/usr/include/finclude/math-vector-fortran.h
REM seed 866769847 543741955 422197517 218153749 87175776 1210193505 -1675782188 -1871684083 1176273505 1716470274 754065453 -24001964 2043914210 -1588308311 -384593803 917870068 -1573851615 1284088407 -354117403 1105747047 -2029196924 -1794032912 -1729148335 955378569 1887215280 1414736362 -738597470 -2085415449 -1416176001 -823695317 -969974704 1642428723 -1740211329
REM
CELL 1.54180   50.00000   50.00000   50.00000   90.00000   90.00000   90.00000
LATT -1
SFAC C  
C      1  0.5057230000000  0.5623560000000  0.4750670000000 1.0
C      1  0.5590310000000  0.4752930000000  0.5049630000000 1.0
C      1  0.4726540000000  0.5078150000000  0.5612090000000 1.0
C      1  0.4935410000000  0.4430070000000  0.4740950000000 1.0
C      1  0.5053270000000  0.4372510000000  0.5249880000000 1.0
C      1  0.4932060000000  0.5582830000000  0.5265290000000 1.0
C      1  0.4397410000000  0.5268570000000  0.5076350000000 1.0
C      1  0.5593270000000  0.5277800000000  0.4926880000000 1.0
C      1  0.4387750000000  0.4758410000000  0.4940520000000 1.0
C      1  0.5232030000000  0.4949590000000  0.5577720000000 1.0
C      1  0.4722050000000  0.4920310000000  0.4390110000000 1.0
C      1  0.5234810000000  0.5048040000000  0.4426940000000 1.0
C      1  0.5613230000000  0.5059990000000  0.4758050000000 1.0
C      1  0.4766910000000  0.5581380000000  0.5049540000000 1.0
C      1  0.5065660000000  0.4735200000000  0.5578460000000 1.0
C      1  0.4407670000000  0.4927380000000  0.4723250000000 1.0
C      1  0.4408330000000  0.5049760000000  0.5248120000000 1.0
C      1  0.5600280000000  0.4924360000000  0.5268230000000 1.0
C      1  0.5273040000000  0.4387220000000  0.5078260000000 1.0
C      1  0.5278810000000  0.5609770000000  0.4920140000000 1.0
C      1  0.4766530000000  0.4429690000000  0.4951200000000 1.0
C      1  0.4946530000000  0.5249420000000  0.5625330000000 1.0
C      1  0.4942970000000  0.4750370000000  0.4374760000000 1.0
C      1  0.5067420000000  0.5259720000000  0.4427200000000 1.0
C      1  0.5631900000000  0.5211390000000  0.5419660000000 1.0
C      1  0.5216780000000  0.5446890000000  0.5641380000000 1.0
C      1  0.5419950000000  0.5639240000000  0.5208360000000 1.0
C      1  0.4375620000000  0.4788790000000  0.5417530000000 1.0
C      1  0.5637810000000  0.4785700000000  0.4558580000000 1.0
C      1  0.4373930000000  0.5208000000000  0.4580030000000 1.0
C      1  0.4794520000000  0.4587350000000  0.5633410000000 1.0
C      1  0.5213370000000  0.4554910000000  0.4356600000000 1.0
C      1  0.4797890000000  0.5409040000000  0.4369000000000 1.0
C      1  0.4594940000000  0.4372740000000  0.5205580000000 1.0
C      1  0.5422900000000  0.4359590000000  0.4790470000000 1.0
C      1  0.4589830000000  0.5622520000000  0.4791110000000 1.0
C      1  0.5205270000000  0.5636490000000  0.5411760000000 1.0
C      1  0.5409280000000  0.5207740000000  0.5622080000000 1.0
C      1  0.5626430000000  0.5420110000000  0.5208380000000 1.0
C      1  0.4784260000000  0.4355190000000  0.5447160000000 1.0
C      1  0.4786290000000  0.5639920000000  0.4556140000000 1.0
C      1  0.5203220000000  0.4370290000000  0.4590000000000 1.0
C      1  0.4576940000000  0.4790030000000  0.5641210000000 1.0
C      1  0.4580720000000  0.5208430000000  0.4361100000000 1.0
C      1  0.5405760000000  0.4793270000000  0.4372260000000 1.0
C      1  0.4362970000000  0.4559030000000  0.5213740000000 1.0
C      1  0.4367220000000  0.5420120000000  0.4788000000000 1.0
C      1  0.5623750000000  0.4583310000000  0.4789540000000 1.0
C      1  0.5273690000000  0.4693780000000  0.4945750000000 1.0
C      1  0.4934130000000  0.4679470000000  0.5271900000000 1.0
C      1  0.5064980000000  0.4732950000000  0.4680020000000 1.0
C      1  0.4939530000000  0.5316220000000  0.4729570000000 1.0
C      1  0.4725250000000  0.4945730000000  0.5306840000000 1.0
C      1  0.4721860000000  0.5056030000000  0.4700640000000 1.0
C      1  0.5316200000000  0.4943480000000  0.4730640000000 1.0
C      1  0.5299030000000  0.5051930000000  0.5272150000000 1.0
C      1  0.5061430000000  0.5277650000000  0.5316510000000 1.0
C      1  0.5278890000000  0.5299950000000  0.5055220000000 1.0
C      1  0.4684970000000  0.4731850000000  0.5057500000000 1.0
C      1  0.4699000000000  0.5273840000000  0.4950620000000 1.0
END
