TITL C-1154829-9094-243 -0.182986318798826 125000 -334.991417726997 0 0 60 (C1) n - 1
REM
REM in /home/nfs/bkarasulu/CARBON/AIRSS/Generating-Clusters/AIREBO/Higher-Symm/Only-C60
REM
REM
REM
REM
REM
REM ./C.cell (28575a23ae977d3b5fae324c64b13b57)
REM
REM compiler GCC version 9.2.1 20190827 (Red Hat 9.2.1-1)
REM options -cpp -mtune=generic -march=x86-64 -g -O0 -fpre-include=/usr/include/finclude/math-vector-fortran.h
REM seed -66696285 -612602937 1371697816 -1009477954 432014460 412482830 -436211178 -1514817702 1942193989 -644543492 -1376612225 660168762 -210636473 -1702922401 808338477 -2131709018 1454066632 -990781111 -238675133 1659521059 -1511555963 376225794 885496607 942983890 -1625557900 447837327 -742697698 -1866974811 -1899931684 -56324250 -140075516 966081855 -1722695022
REM
CELL 1.54180   50.00000   50.00000   50.00000   90.00000   90.00000   90.00000
LATT -1
SFAC C  
C      1  0.5288350000000  0.4865080000000  0.4392520000000 1.0
C      1  0.4762440000000  0.5910850000000  0.4568640000000 1.0
C      1  0.4776850000000  0.4636950000000  0.5196710000000 1.0
C      1  0.5045930000000  0.4682620000000  0.4296050000000 1.0
C      1  0.5237760000000  0.5337840000000  0.5057780000000 1.0
C      1  0.4312060000000  0.4962540000000  0.4800630000000 1.0
C      1  0.4824960000000  0.4561040000000  0.4527360000000 1.0
C      1  0.4487610000000  0.5369850000000  0.5242000000000 1.0
C      1  0.4252690000000  0.5197430000000  0.4405750000000 1.0
C      1  0.4438330000000  0.5230610000000  0.4956990000000 1.0
C      1  0.4947490000000  0.4964770000000  0.4821420000000 1.0
C      1  0.5431410000000  0.5648440000000  0.4707560000000 1.0
C      1  0.5420340000000  0.4577750000000  0.4784500000000 1.0
C      1  0.5405890000000  0.4606170000000  0.5312280000000 1.0
C      1  0.5316790000000  0.5109550000000  0.5839730000000 1.0
C      1  0.5224670000000  0.4971300000000  0.5542970000000 1.0
C      1  0.4609420000000  0.5176270000000  0.5432140000000 1.0
C      1  0.5230280000000  0.5124680000000  0.4586330000000 1.0
C      1  0.5437900000000  0.5082940000000  0.5087560000000 1.0
C      1  0.4579760000000  0.4861430000000  0.5311490000000 1.0
C      1  0.5024190000000  0.4712740000000  0.5030370000000 1.0
C      1  0.5711190000000  0.5204050000000  0.4917230000000 1.0
C      1  0.4937520000000  0.4326820000000  0.5580870000000 1.0
C      1  0.5361150000000  0.4578960000000  0.4506550000000 1.0
C      1  0.5262980000000  0.4672100000000  0.5534430000000 1.0
C      1  0.4590310000000  0.5371700000000  0.4714290000000 1.0
C      1  0.4715410000000  0.5059590000000  0.4388060000000 1.0
C      1  0.5100230000000  0.4380910000000  0.4441260000000 1.0
C      1  0.4572850000000  0.4856810000000  0.4911660000000 1.0
C      1  0.4929140000000  0.5475850000000  0.5596770000000 1.0
C      1  0.5179030000000  0.4481180000000  0.5968580000000 1.0
C      1  0.5130800000000  0.4490660000000  0.5703570000000 1.0
C      1  0.5178920000000  0.4454450000000  0.4912890000000 1.0
C      1  0.5454330000000  0.5281310000000  0.5642100000000 1.0
C      1  0.4652700000000  0.4585050000000  0.4820250000000 1.0
C      1  0.5099150000000  0.5391910000000  0.5320260000000 1.0
C      1  0.4525130000000  0.5256250000000  0.4460230000000 1.0
C      1  0.4764930000000  0.4267990000000  0.4792520000000 1.0
C      1  0.5407320000000  0.5579810000000  0.5009040000000 1.0
C      1  0.4855570000000  0.5470280000000  0.4730370000000 1.0
C      1  0.5736160000000  0.5075830000000  0.4638850000000 1.0
C      1  0.5680230000000  0.5508050000000  0.4871190000000 1.0
C      1  0.4827090000000  0.4881990000000  0.4559820000000 1.0
C      1  0.4322140000000  0.5012950000000  0.5192160000000 1.0
C      1  0.4147150000000  0.5011410000000  0.4582550000000 1.0
C      1  0.4939940000000  0.5713460000000  0.4619630000000 1.0
C      1  0.5315170000000  0.5494650000000  0.5543460000000 1.0
C      1  0.4075940000000  0.4989170000000  0.5273090000000 1.0
C      1  0.5530510000000  0.5086110000000  0.5412500000000 1.0
C      1  0.4804780000000  0.4354810000000  0.5357620000000 1.0
C      1  0.5805160000000  0.5111300000000  0.5225420000000 1.0
C      1  0.5527630000000  0.5075420000000  0.4470470000000 1.0
C      1  0.5037280000000  0.4289270000000  0.4736240000000 1.0
C      1  0.5217690000000  0.5757200000000  0.4573160000000 1.0
C      1  0.4791400000000  0.5025670000000  0.5110200000000 1.0
C      1  0.5358730000000  0.4781330000000  0.5049390000000 1.0
C      1  0.4970300000000  0.5106430000000  0.5387510000000 1.0
C      1  0.4627250000000  0.4359080000000  0.5074680000000 1.0
C      1  0.5067190000000  0.5267620000000  0.4810230000000 1.0
C      1  0.4734490000000  0.5321690000000  0.5660130000000 1.0
END
