TITL C-1154823-9327-157 -3.62885152026724e-05 125000 -316.451993864107 0 0 60 (C1) n - 1
REM
REM in /home/nfs/bkarasulu/CARBON/AIRSS/Generating-Clusters/AIREBO/Higher-Symm/Only-C60
REM
REM
REM
REM
REM
REM ./C.cell (28575a23ae977d3b5fae324c64b13b57)
REM
REM compiler GCC version 9.2.1 20190827 (Red Hat 9.2.1-1)
REM options -cpp -mtune=generic -march=x86-64 -g -O0 -fpre-include=/usr/include/finclude/math-vector-fortran.h
REM seed 1255644506 -756599471 -1734067588 -1318903762 -1856398711 -1497781153 -1268223235 -1139814668 -923771656 1012209040 941538217 2106495940 2053854951 -835624014 1759911577 1459679175 -514828024 1019549087 97499277 -342084999 -679297827 -741733151 2111412600 885483503 1828939950 -290542338 1898402156 -183918403 -9080828 766046632 -968275452 -518238549 -202548104
REM
CELL 1.54180   50.00000   50.00000   50.00000   90.00000   90.00000   90.00000
LATT -1
SFAC C  
C      1  0.4564440000000  0.4768340000000  0.4618820000000 1.0
C      1  0.4569270000000  0.4582470000000  0.5100540000000 1.0
C      1  0.4639650000000  0.4970380000000  0.5432500000000 1.0
C      1  0.4558820000000  0.5390640000000  0.5129510000000 1.0
C      1  0.4509620000000  0.5288600000000  0.4629820000000 1.0
C      1  0.5398440000000  0.4725880000000  0.4673040000000 1.0
C      1  0.5404070000000  0.4582770000000  0.5175210000000 1.0
C      1  0.5492780000000  0.4994820000000  0.5497040000000 1.0
C      1  0.5442240000000  0.5399530000000  0.5172730000000 1.0
C      1  0.5404450000000  0.5243610000000  0.4674530000000 1.0
C      1  0.4720260000000  0.5398890000000  0.4862660000000 1.0
C      1  0.4690750000000  0.5045480000000  0.4553660000000 1.0
C      1  0.4746050000000  0.4625590000000  0.4826500000000 1.0
C      1  0.4735190000000  0.4734100000000  0.5307910000000 1.0
C      1  0.4758360000000  0.5235330000000  0.5336040000000 1.0
C      1  0.5266410000000  0.5383140000000  0.4916950000000 1.0
C      1  0.5231130000000  0.5005090000000  0.4572560000000 1.0
C      1  0.5234260000000  0.4581650000000  0.4913450000000 1.0
C      1  0.5269320000000  0.4777540000000  0.5391620000000 1.0
C      1  0.5310170000000  0.5230570000000  0.5394250000000 1.0
C      1  0.4294910000000  0.4976590000000  0.5230430000000 1.0
C      1  0.4316130000000  0.5217820000000  0.5075630000000 1.0
C      1  0.4303780000000  0.5142630000000  0.4803150000000 1.0
C      1  0.4324190000000  0.4861710000000  0.4786820000000 1.0
C      1  0.4325030000000  0.4755020000000  0.5048700000000 1.0
C      1  0.5685940000000  0.4980520000000  0.5257350000000 1.0
C      1  0.5669700000000  0.5208700000000  0.5089820000000 1.0
C      1  0.5642130000000  0.5119100000000  0.4823690000000 1.0
C      1  0.5636180000000  0.4838470000000  0.4825960000000 1.0
C      1  0.5649610000000  0.4751550000000  0.5094730000000 1.0
C      1  0.4492150000000  0.4612030000000  0.4396650000000 1.0
C      1  0.4508380000000  0.4315560000000  0.5161960000000 1.0
C      1  0.4518300000000  0.4964910000000  0.5679430000000 1.0
C      1  0.4478020000000  0.5665840000000  0.5235560000000 1.0
C      1  0.4411890000000  0.5466740000000  0.4440960000000 1.0
C      1  0.5478110000000  0.4543020000000  0.4443040000000 1.0
C      1  0.5477840000000  0.4306920000000  0.5279990000000 1.0
C      1  0.5601430000000  0.4978970000000  0.5750680000000 1.0
C      1  0.5525190000000  0.5656740000000  0.5246980000000 1.0
C      1  0.5483270000000  0.5420810000000  0.4469610000000 1.0
C      1  0.5009950000000  0.5535700000000  0.4938460000000 1.0
C      1  0.5005410000000  0.4593170000000  0.5360610000000 1.0
C      1  0.4968750000000  0.5125120000000  0.4436770000000 1.0
C      1  0.5013190000000  0.4540000000000  0.4666640000000 1.0
C      1  0.5024780000000  0.5253110000000  0.5519570000000 1.0
C      1  0.4951910000000  0.4476680000000  0.5055130000000 1.0
C      1  0.5072190000000  0.4739290000000  0.4446420000000 1.0
C      1  0.4917840000000  0.5520740000000  0.5243070000000 1.0
C      1  0.4888160000000  0.5402800000000  0.4576040000000 1.0
C      1  0.5110760000000  0.4958140000000  0.5607930000000 1.0
C      1  0.4996400000000  0.4375860000000  0.5574750000000 1.0
C      1  0.4980740000000  0.5127990000000  0.4156020000000 1.0
C      1  0.5002540000000  0.5441970000000  0.5726560000000 1.0
C      1  0.5010890000000  0.4251950000000  0.4564950000000 1.0
C      1  0.5028290000000  0.5799110000000  0.4837550000000 1.0
C      1  0.4942250000000  0.5632120000000  0.4459900000000 1.0
C      1  0.4939170000000  0.5723290000000  0.5407780000000 1.0
C      1  0.5021820000000  0.4710610000000  0.4192120000000 1.0
C      1  0.4912140000000  0.4173520000000  0.5057270000000 1.0
C      1  0.5071120000000  0.4870740000000  0.5852030000000 1.0
END
