TITL C-1154829-9094-408 0.000875109277671919 125000 -337.283888734995 0 0 60 (C1) n - 1
REM
REM in /home/nfs/bkarasulu/CARBON/AIRSS/Generating-Clusters/AIREBO/Higher-Symm/Only-C60
REM
REM
REM
REM
REM
REM ./C.cell (28575a23ae977d3b5fae324c64b13b57)
REM
REM compiler GCC version 9.2.1 20190827 (Red Hat 9.2.1-1)
REM options -cpp -mtune=generic -march=x86-64 -g -O0 -fpre-include=/usr/include/finclude/math-vector-fortran.h
REM seed 2005391219 -102857796 -183346726 1510244752 288831461 147625595 1649053822 715503227 -1217653633 -576013510 -1937945879 -1583598315 -146765594 812027605 1216714435 1863798306 -1996464268 -962469472 -82985569 1384610190 -85163270 -1009651519 -5195693 -1176256728 -1272255150 1103900968 1331594884 969890562 -687529802 -1744942141 -1623307464 -553999028 -751691899
REM
CELL 1.54180   50.00000   50.00000   50.00000   90.00000   90.00000   90.00000
LATT -1
SFAC C  
C      1  0.5332030000000  0.5101720000000  0.5155430000000 1.0
C      1  0.4833350000000  0.5126080000000  0.5360860000000 1.0
C      1  0.4602260000000  0.5165010000000  0.4905220000000 1.0
C      1  0.5136300000000  0.5119180000000  0.4695330000000 1.0
C      1  0.5409300000000  0.5108440000000  0.4838540000000 1.0
C      1  0.4967530000000  0.5716050000000  0.5206670000000 1.0
C      1  0.4941370000000  0.5810670000000  0.4909840000000 1.0
C      1  0.5115260000000  0.5633680000000  0.4734330000000 1.0
C      1  0.5347340000000  0.5668330000000  0.4913660000000 1.0
C      1  0.5256450000000  0.5796260000000  0.5154890000000 1.0
C      1  0.5871610000000  0.5309740000000  0.4346190000000 1.0
C      1  0.5150380000000  0.5226840000000  0.5809840000000 1.0
C      1  0.4457080000000  0.5333110000000  0.5579820000000 1.0
C      1  0.4213650000000  0.5289340000000  0.4638000000000 1.0
C      1  0.4790120000000  0.5163180000000  0.4267170000000 1.0
C      1  0.4837820000000  0.4425670000000  0.4898040000000 1.0
C      1  0.5032070000000  0.4558680000000  0.4680770000000 1.0
C      1  0.5267460000000  0.4469010000000  0.4858430000000 1.0
C      1  0.5198370000000  0.4428340000000  0.5117730000000 1.0
C      1  0.4914020000000  0.4530080000000  0.5185720000000 1.0
C      1  0.4572590000000  0.4874920000000  0.5689930000000 1.0
C      1  0.4253910000000  0.4854680000000  0.4857720000000 1.0
C      1  0.4674970000000  0.4700640000000  0.4250480000000 1.0
C      1  0.5947280000000  0.4805050000000  0.4533110000000 1.0
C      1  0.5368500000000  0.4767760000000  0.5767090000000 1.0
C      1  0.5233570000000  0.5392050000000  0.5177380000000 1.0
C      1  0.4916180000000  0.5394180000000  0.5217440000000 1.0
C      1  0.4796870000000  0.5358600000000  0.4933220000000 1.0
C      1  0.5001680000000  0.5369140000000  0.4733860000000 1.0
C      1  0.5504100000000  0.5406920000000  0.4970940000000 1.0
C      1  0.4485000000000  0.4714770000000  0.4867410000000 1.0
C      1  0.4835110000000  0.4471200000000  0.4225500000000 1.0
C      1  0.5705700000000  0.4690620000000  0.4698310000000 1.0
C      1  0.5347810000000  0.4681620000000  0.5482510000000 1.0
C      1  0.4600830000000  0.4630000000000  0.5559300000000 1.0
C      1  0.4505130000000  0.4889410000000  0.5950920000000 1.0
C      1  0.4000470000000  0.4755030000000  0.4833930000000 1.0
C      1  0.4425930000000  0.4715680000000  0.4148970000000 1.0
C      1  0.6187730000000  0.4703230000000  0.4481430000000 1.0
C      1  0.5485160000000  0.4693560000000  0.5991710000000 1.0
C      1  0.5374430000000  0.4451860000000  0.5331740000000 1.0
C      1  0.4744390000000  0.4441860000000  0.5426530000000 1.0
C      1  0.4570900000000  0.4449960000000  0.4845450000000 1.0
C      1  0.5031540000000  0.4419100000000  0.4406710000000 1.0
C      1  0.5520890000000  0.4498640000000  0.4756130000000 1.0
C      1  0.5770320000000  0.5429690000000  0.5044880000000 1.0
C      1  0.5114710000000  0.5447810000000  0.5946200000000 1.0
C      1  0.4288130000000  0.5532560000000  0.5598760000000 1.0
C      1  0.4170240000000  0.5265680000000  0.5108650000000 1.0
C      1  0.4761460000000  0.5401720000000  0.4162040000000 1.0
C      1  0.5211610000000  0.5006950000000  0.5661380000000 1.0
C      1  0.4620090000000  0.5112330000000  0.5539600000000 1.0
C      1  0.4295840000000  0.5160370000000  0.4877070000000 1.0
C      1  0.4795030000000  0.4914860000000  0.4387590000000 1.0
C      1  0.5835730000000  0.5099570000000  0.4501280000000 1.0
C      1  0.4734180000000  0.4892610000000  0.4907540000000 1.0
C      1  0.4938760000000  0.4869880000000  0.4662160000000 1.0
C      1  0.5629290000000  0.4983340000000  0.4689850000000 1.0
C      1  0.5177900000000  0.4924940000000  0.5333100000000 1.0
C      1  0.4892270000000  0.4847830000000  0.5185670000000 1.0
END
