TITL C-1154829-9094-77 -4.40721808618076e-05 125000 -325.343814404465 0 0 60 (C1) n - 1
REM
REM in /home/nfs/bkarasulu/CARBON/AIRSS/Generating-Clusters/AIREBO/Higher-Symm/Only-C60
REM
REM
REM
REM
REM
REM ./C.cell (28575a23ae977d3b5fae324c64b13b57)
REM
REM compiler GCC version 9.2.1 20190827 (Red Hat 9.2.1-1)
REM options -cpp -mtune=generic -march=x86-64 -g -O0 -fpre-include=/usr/include/finclude/math-vector-fortran.h
REM seed 276513692 1746962429 -2116680601 1261724570 169503678 -602900741 1321016735 292885957 -1360561688 1265880602 79472657 -1345597629 -71131919 732920721 -653511545 -1233976133 1838411498 -1628809935 -1592510872 2126142488 651909404 -550968266 -101569486 -357291132 -808742740 224618365 1581864683 1519701577 1981987431 1584625007 1212938952 565363875 -1401206337
REM
CELL 1.54180   50.00000   50.00000   50.00000   90.00000   90.00000   90.00000
LATT -1
SFAC C  
C      1  0.4623030000000  0.5577510000000  0.4869830000000 1.0
C      1  0.5488510000000  0.4568660000000  0.5210150000000 1.0
C      1  0.4832750000000  0.4838610000000  0.4349750000000 1.0
C      1  0.5253780000000  0.5184580000000  0.5553960000000 1.0
C      1  0.5061750000000  0.4427610000000  0.5479090000000 1.0
C      1  0.5006790000000  0.5572390000000  0.4534450000000 1.0
C      1  0.5535410000000  0.4643890000000  0.4439250000000 1.0
C      1  0.4461820000000  0.5391020000000  0.5727720000000 1.0
C      1  0.4821910000000  0.4867140000000  0.5352350000000 1.0
C      1  0.5172650000000  0.5113380000000  0.4754480000000 1.0
C      1  0.4425450000000  0.4922760000000  0.4779620000000 1.0
C      1  0.5637660000000  0.5189690000000  0.5238350000000 1.0
C      1  0.5524830000000  0.4829430000000  0.5592070000000 1.0
C      1  0.4431180000000  0.5081100000000  0.4487850000000 1.0
C      1  0.4600310000000  0.4810040000000  0.4508770000000 1.0
C      1  0.5528590000000  0.5100310000000  0.5480150000000 1.0
C      1  0.5004920000000  0.4147480000000  0.4870840000000 1.0
C      1  0.4767340000000  0.5651110000000  0.5098690000000 1.0
C      1  0.5086500000000  0.5254540000000  0.4479250000000 1.0
C      1  0.4822170000000  0.4543850000000  0.5457760000000 1.0
C      1  0.5192270000000  0.4379260000000  0.4746270000000 1.0
C      1  0.4823570000000  0.5528800000000  0.5387230000000 1.0
C      1  0.4316780000000  0.4710010000000  0.5507540000000 1.0
C      1  0.5531250000000  0.5269180000000  0.4352520000000 1.0
C      1  0.5180560000000  0.5421140000000  0.5655920000000 1.0
C      1  0.4962890000000  0.4648710000000  0.4213350000000 1.0
C      1  0.4938770000000  0.4458020000000  0.4919970000000 1.0
C      1  0.5017760000000  0.5468250000000  0.5139300000000 1.0
C      1  0.4367610000000  0.4969420000000  0.5556390000000 1.0
C      1  0.5563870000000  0.4979090000000  0.4449540000000 1.0
C      1  0.5924710000000  0.4626320000000  0.4992640000000 1.0
C      1  0.4149160000000  0.5487050000000  0.4902880000000 1.0
C      1  0.5350470000000  0.4560410000000  0.4642790000000 1.0
C      1  0.4634680000000  0.5371020000000  0.5503590000000 1.0
C      1  0.4370380000000  0.4604010000000  0.4805510000000 1.0
C      1  0.5669480000000  0.5464940000000  0.5174870000000 1.0
C      1  0.4769510000000  0.5639070000000  0.4634820000000 1.0
C      1  0.5314490000000  0.4438740000000  0.5373240000000 1.0
C      1  0.4783580000000  0.4661850000000  0.5080370000000 1.0
C      1  0.5227640000000  0.5370700000000  0.4975550000000 1.0
C      1  0.5256010000000  0.4745630000000  0.5622870000000 1.0
C      1  0.4612840000000  0.5248520000000  0.4337720000000 1.0
C      1  0.5341340000000  0.5468290000000  0.4552290000000 1.0
C      1  0.4525290000000  0.4523010000000  0.5351520000000 1.0
C      1  0.5471780000000  0.5246050000000  0.4774190000000 1.0
C      1  0.4478350000000  0.4793830000000  0.5151390000000 1.0
C      1  0.4543220000000  0.4454600000000  0.4957900000000 1.0
C      1  0.5481480000000  0.5576670000000  0.4996010000000 1.0
C      1  0.4585620000000  0.5100840000000  0.5359720000000 1.0
C      1  0.5403470000000  0.4863480000000  0.4744260000000 1.0
C      1  0.4408790000000  0.5397610000000  0.4928480000000 1.0
C      1  0.5675800000000  0.4716130000000  0.5064010000000 1.0
C      1  0.4448790000000  0.5114620000000  0.5048420000000 1.0
C      1  0.5593120000000  0.5012000000000  0.4988920000000 1.0
C      1  0.4303950000000  0.5161520000000  0.5755750000000 1.0
C      1  0.5804290000000  0.4766640000000  0.4333060000000 1.0
C      1  0.5070170000000  0.4953670000000  0.5525360000000 1.0
C      1  0.4874430000000  0.5123250000000  0.4323480000000 1.0
C      1  0.4466630000000  0.4259040000000  0.5163300000000 1.0
C      1  0.5477850000000  0.5703500000000  0.4742690000000 1.0
END
