TITL C-1154804-8633-680 -718.962934909831 125000 -309.539623055943 0 0 60 (C1) n - 1
REM
REM in /home/nfs/bkarasulu/CARBON/AIRSS/Generating-Clusters/AIREBO/Higher-Symm/Only-C60
REM
REM
REM
REM
REM
REM ./C.cell (28575a23ae977d3b5fae324c64b13b57)
REM
REM compiler GCC version 9.2.1 20190827 (Red Hat 9.2.1-1)
REM options -cpp -mtune=generic -march=x86-64 -g -O0 -fpre-include=/usr/include/finclude/math-vector-fortran.h
REM seed -1340626417 349764997 -1083856204 55437516 1460712246 -241382501 -1760411631 -1500044648 -428619477 894057099 765316152 854325969 759197079 1732980201 -236854045 -1343215727 1678021078 391969128 -1396389323 -398613440 926620345 -481278581 1908322557 -237870597 -1719706504 -1988569104 882930838 -207038434 -2024335023 -907985626 -1730920758 -1684726075 -1615092555
REM
CELL 1.54180   50.00000   50.00000   50.00000   90.00000   90.00000   90.00000
LATT -1
SFAC C  
C      1  0.5613940000000  0.4567780000000  0.4799060000000 1.0
C      1  0.4473770000000  0.4735440000000  0.5691470000000 1.0
C      1  0.4853810000000  0.5585680000000  0.4440570000000 1.0
C      1  0.5492560000000  0.5520270000000  0.5225120000000 1.0
C      1  0.4567510000000  0.4487000000000  0.5204780000000 1.0
C      1  0.4406050000000  0.5491720000000  0.4763430000000 1.0
C      1  0.4707550000000  0.5076200000000  0.4781560000000 1.0
C      1  0.5671310000000  0.4763900000000  0.4576640000000 1.0
C      1  0.5457070000000  0.5310060000000  0.5592300000000 1.0
C      1  0.4798870000000  0.4430420000000  0.5386180000000 1.0
C      1  0.5167680000000  0.5592490000000  0.5479020000000 1.0
C      1  0.5180840000000  0.4452160000000  0.4362820000000 1.0
C      1  0.4383790000000  0.4507530000000  0.4853240000000 1.0
C      1  0.5457840000000  0.4773940000000  0.5594870000000 1.0
C      1  0.5192810000000  0.5446060000000  0.4594520000000 1.0
C      1  0.4599090000000  0.5693560000000  0.5115670000000 1.0
C      1  0.5525410000000  0.4514650000000  0.5178400000000 1.0
C      1  0.5625050000000  0.5502960000000  0.4802710000000 1.0
C      1  0.5451480000000  0.5143550000000  0.4426790000000 1.0
C      1  0.4471960000000  0.4882290000000  0.4523050000000 1.0
C      1  0.4383790000000  0.5180610000000  0.5524420000000 1.0
C      1  0.5192220000000  0.4488980000000  0.5394340000000 1.0
C      1  0.4879540000000  0.5608000000000  0.5629070000000 1.0
C      1  0.4710330000000  0.4346270000000  0.4380310000000 1.0
C      1  0.5239280000000  0.5224040000000  0.5345740000000 1.0
C      1  0.5101430000000  0.5474470000000  0.5161460000000 1.0
C      1  0.5537330000000  0.5196590000000  0.5180820000000 1.0
C      1  0.5342730000000  0.4816450000000  0.4646900000000 1.0
C      1  0.4847200000000  0.5016660000000  0.4541410000000 1.0
C      1  0.4687040000000  0.4874020000000  0.5465730000000 1.0
C      1  0.5201640000000  0.4537200000000  0.4674070000000 1.0
C      1  0.4857030000000  0.5670700000000  0.4703070000000 1.0
C      1  0.4889910000000  0.4275360000000  0.5118560000000 1.0
C      1  0.5510700000000  0.4899690000000  0.4915740000000 1.0
C      1  0.4405270000000  0.5279560000000  0.4942600000000 1.0
C      1  0.4411730000000  0.4750890000000  0.5276460000000 1.0
C      1  0.4708170000000  0.5191880000000  0.5455690000000 1.0
C      1  0.4817450000000  0.5551770000000  0.5299540000000 1.0
C      1  0.4548630000000  0.5363840000000  0.5209980000000 1.0
C      1  0.4744970000000  0.4738640000000  0.4447300000000 1.0
C      1  0.5165170000000  0.5052590000000  0.4536230000000 1.0
C      1  0.5217110000000  0.4887550000000  0.5392740000000 1.0
C      1  0.4864550000000  0.4491320000000  0.4646430000000 1.0
C      1  0.5137700000000  0.5603110000000  0.4874660000000 1.0
C      1  0.5167590000000  0.4338210000000  0.5164250000000 1.0
C      1  0.4322540000000  0.4748710000000  0.4983490000000 1.0
C      1  0.5667070000000  0.5187010000000  0.4870710000000 1.0
C      1  0.5472160000000  0.4799770000000  0.5197950000000 1.0
C      1  0.4607650000000  0.5688500000000  0.4831010000000 1.0
C      1  0.5657690000000  0.5055600000000  0.4579550000000 1.0
C      1  0.4949660000000  0.4724190000000  0.5425730000000 1.0
C      1  0.5355340000000  0.4381300000000  0.4915820000000 1.0
C      1  0.5581630000000  0.5034750000000  0.5459400000000 1.0
C      1  0.4294810000000  0.4920750000000  0.5522630000000 1.0
C      1  0.4394170000000  0.4988430000000  0.4827330000000 1.0
C      1  0.4971830000000  0.5287310000000  0.4391960000000 1.0
C      1  0.4979000000000  0.5291640000000  0.5553910000000 1.0
C      1  0.4936870000000  0.4503640000000  0.4254030000000 1.0
C      1  0.4701900000000  0.4428140000000  0.4894400000000 1.0
C      1  0.5440770000000  0.5624220000000  0.4972350000000 1.0
END
