TITL C-1154808-8168-259 0.000725258571152154 125000 -346.195251973973 0 0 60 (C1) n - 1
REM
REM in /home/nfs/bkarasulu/CARBON/AIRSS/Generating-Clusters/AIREBO/Higher-Symm/Only-C60
REM
REM
REM
REM
REM
REM ./C.cell (28575a23ae977d3b5fae324c64b13b57)
REM
REM compiler GCC version 9.2.1 20190827 (Red Hat 9.2.1-1)
REM options -cpp -mtune=generic -march=x86-64 -g -O0 -fpre-include=/usr/include/finclude/math-vector-fortran.h
REM seed -83978564 1172373417 1228171511 -103951009 1074143935 -1759328398 -1985168813 1856834111 499909401 -1510830341 1961905449 1444099589 -1835191225 -2015696798 -1483993403 -209862608 409897622 -129046751 -1039423517 298399529 626170278 -1693885735 373820932 -838355742 -2073497886 1231993397 -1562155694 1873268896 -205245198 -137093218 -1117403718 -846175809 -296794321
REM
CELL 1.54180   50.00000   50.00000   50.00000   90.00000   90.00000   90.00000
LATT -1
SFAC C  
C      1  0.5136500000000  0.4703260000000  0.4300510000000 1.0
C      1  0.4386950000000  0.4706800000000  0.4635650000000 1.0
C      1  0.4434480000000  0.4688750000000  0.5485740000000 1.0
C      1  0.5259130000000  0.4810440000000  0.5597520000000 1.0
C      1  0.5723730000000  0.4705270000000  0.4921660000000 1.0
C      1  0.4834370000000  0.4664350000000  0.4315440000000 1.0
C      1  0.5539010000000  0.4753340000000  0.4687800000000 1.0
C      1  0.5509540000000  0.4738670000000  0.5437310000000 1.0
C      1  0.4708210000000  0.4711840000000  0.5622260000000 1.0
C      1  0.4326590000000  0.4707940000000  0.4928030000000 1.0
C      1  0.5525720000000  0.5185360000000  0.5257510000000 1.0
C      1  0.5399930000000  0.5248180000000  0.4712570000000 1.0
C      1  0.4888950000000  0.5246300000000  0.4613170000000 1.0
C      1  0.4534070000000  0.5187460000000  0.4974020000000 1.0
C      1  0.4775120000000  0.5169910000000  0.5464460000000 1.0
C      1  0.4572550000000  0.5098340000000  0.5288180000000 1.0
C      1  0.4654480000000  0.5110740000000  0.4695830000000 1.0
C      1  0.5140850000000  0.5139990000000  0.4557140000000 1.0
C      1  0.5504810000000  0.5319620000000  0.5017530000000 1.0
C      1  0.5338450000000  0.5266270000000  0.5454540000000 1.0
C      1  0.4521020000000  0.4492220000000  0.5032230000000 1.0
C      1  0.4878660000000  0.4526770000000  0.5440600000000 1.0
C      1  0.5401780000000  0.4513850000000  0.5255670000000 1.0
C      1  0.5319360000000  0.4546260000000  0.4732540000000 1.0
C      1  0.4814810000000  0.4462900000000  0.4556210000000 1.0
C      1  0.5489520000000  0.4504790000000  0.4993280000000 1.0
C      1  0.5147230000000  0.4576940000000  0.5421860000000 1.0
C      1  0.4605700000000  0.4516910000000  0.5291890000000 1.0
C      1  0.4603840000000  0.4504200000000  0.4729250000000 1.0
C      1  0.5122610000000  0.4518280000000  0.4546920000000 1.0
C      1  0.5257240000000  0.4973140000000  0.4312740000000 1.0
C      1  0.4477750000000  0.4958270000000  0.4494270000000 1.0
C      1  0.4311290000000  0.4944980000000  0.5383970000000 1.0
C      1  0.5110580000000  0.4954740000000  0.5772770000000 1.0
C      1  0.5865170000000  0.4848080000000  0.5109110000000 1.0
C      1  0.4641330000000  0.4854330000000  0.4256560000000 1.0
C      1  0.5512610000000  0.5003910000000  0.4526870000000 1.0
C      1  0.5703820000000  0.4954380000000  0.5343970000000 1.0
C      1  0.4813750000000  0.4987140000000  0.5707260000000 1.0
C      1  0.4279070000000  0.4976580000000  0.5054660000000 1.0
C      1  0.4875820000000  0.5530110000000  0.4628030000000 1.0
C      1  0.4583190000000  0.5494100000000  0.5008210000000 1.0
C      1  0.4880300000000  0.5421420000000  0.5407610000000 1.0
C      1  0.5269650000000  0.5690380000000  0.5264090000000 1.0
C      1  0.5343260000000  0.5563070000000  0.4748530000000 1.0
C      1  0.5123930000000  0.5662630000000  0.4606760000000 1.0
C      1  0.5415750000000  0.5620380000000  0.5033540000000 1.0
C      1  0.5153780000000  0.5476940000000  0.5411390000000 1.0
C      1  0.4700160000000  0.5574800000000  0.5251410000000 1.0
C      1  0.4652060000000  0.5626310000000  0.4769790000000 1.0
C      1  0.4007030000000  0.5094800000000  0.4978210000000 1.0
C      1  0.4671220000000  0.5083110000000  0.5934230000000 1.0
C      1  0.5878600000000  0.5030940000000  0.5555420000000 1.0
C      1  0.5772270000000  0.5074530000000  0.4381190000000 1.0
C      1  0.4606540000000  0.4969550000000  0.4010410000000 1.0
C      1  0.6124790000000  0.4930010000000  0.5077980000000 1.0
C      1  0.5212290000000  0.5088720000000  0.5989230000000 1.0
C      1  0.4113690000000  0.5062630000000  0.5539770000000 1.0
C      1  0.4259550000000  0.5116680000000  0.4405410000000 1.0
C      1  0.5285540000000  0.5107360000000  0.4069280000000 1.0
END
