TITL C-1154821-8623-38 -0.0015769418757335 125000 -333.82253066839 0 0 60 (C1) n - 1
REM
REM in /home/nfs/bkarasulu/CARBON/AIRSS/Generating-Clusters/AIREBO/Higher-Symm/Only-C60
REM
REM
REM
REM
REM
REM ./C.cell (28575a23ae977d3b5fae324c64b13b57)
REM
REM compiler GCC version 9.2.1 20190827 (Red Hat 9.2.1-1)
REM options -cpp -mtune=generic -march=x86-64 -g -O0 -fpre-include=/usr/include/finclude/math-vector-fortran.h
REM seed -1413751745 -89131234 -1956788415 -1173011631 -2052654027 1893977897 1851076470 1461074534 1452675783 1869088406 -1303044712 1940697385 2015084715 -996746976 61754314 -1170459682 -2094669051 1315339165 -1248404340 -1844715746 285074785 -882033292 -1517199568 1569273300 102646328 -627928796 615570312 -1850182368 -705235894 -1986208552 1253160328 1957880023 -1513998207
REM
CELL 1.54180   50.00000   50.00000   50.00000   90.00000   90.00000   90.00000
LATT -1
SFAC C  
C      1  0.5679090000000  0.5157920000000  0.4633770000000 1.0
C      1  0.5441120000000  0.5451420000000  0.5340100000000 1.0
C      1  0.5179130000000  0.5653150000000  0.4650930000000 1.0
C      1  0.4837760000000  0.5630120000000  0.5374690000000 1.0
C      1  0.4503300000000  0.5552920000000  0.4652140000000 1.0
C      1  0.4352350000000  0.5189720000000  0.5280950000000 1.0
C      1  0.4346000000000  0.4806180000000  0.4664720000000 1.0
C      1  0.4620600000000  0.4661900000000  0.5470770000000 1.0
C      1  0.4779610000000  0.4360600000000  0.4613320000000 1.0
C      1  0.5186350000000  0.4343760000000  0.5292310000000 1.0
C      1  0.5501750000000  0.4535000000000  0.4604010000000 1.0
C      1  0.5597280000000  0.4738980000000  0.5436190000000 1.0
C      1  0.4524030000000  0.5127910000000  0.5501070000000 1.0
C      1  0.4574310000000  0.4768370000000  0.4470170000000 1.0
C      1  0.4527140000000  0.4870960000000  0.5629650000000 1.0
C      1  0.4692480000000  0.4523750000000  0.4396880000000 1.0
C      1  0.5182580000000  0.4515670000000  0.5545150000000 1.0
C      1  0.5374750000000  0.4727310000000  0.4420500000000 1.0
C      1  0.5431660000000  0.4623440000000  0.5636340000000 1.0
C      1  0.5507630000000  0.4999190000000  0.4440380000000 1.0
C      1  0.5273920000000  0.5470440000000  0.5571210000000 1.0
C      1  0.5053140000000  0.5477290000000  0.4450720000000 1.0
C      1  0.4987190000000  0.5482180000000  0.5591390000000 1.0
C      1  0.4750140000000  0.5469450000000  0.4478900000000 1.0
C      1  0.4845580000000  0.4718990000000  0.4772810000000 1.0
C      1  0.4943820000000  0.4656320000000  0.5347910000000 1.0
C      1  0.5144740000000  0.4694670000000  0.4687680000000 1.0
C      1  0.5185160000000  0.4855540000000  0.5214840000000 1.0
C      1  0.5345060000000  0.4965020000000  0.4737080000000 1.0
C      1  0.5238130000000  0.5127110000000  0.5226130000000 1.0
C      1  0.5200420000000  0.5255620000000  0.4683300000000 1.0
C      1  0.5040230000000  0.5316910000000  0.5233470000000 1.0
C      1  0.4862060000000  0.5249800000000  0.4713070000000 1.0
C      1  0.4808430000000  0.5238170000000  0.5447940000000 1.0
C      1  0.4692990000000  0.5000380000000  0.4688770000000 1.0
C      1  0.4795060000000  0.4951070000000  0.5266270000000 1.0
C      1  0.5388090000000  0.5499820000000  0.4828390000000 1.0
C      1  0.5042220000000  0.5640170000000  0.5127270000000 1.0
C      1  0.4755290000000  0.5532610000000  0.4872460000000 1.0
C      1  0.4389990000000  0.5435810000000  0.5132380000000 1.0
C      1  0.4379490000000  0.5089180000000  0.4794760000000 1.0
C      1  0.4542290000000  0.4750010000000  0.5159700000000 1.0
C      1  0.4629200000000  0.4479170000000  0.4879990000000 1.0
C      1  0.4918140000000  0.4386360000000  0.5137150000000 1.0
C      1  0.5293770000000  0.4409270000000  0.4797120000000 1.0
C      1  0.5439520000000  0.4704590000000  0.5161100000000 1.0
C      1  0.5601790000000  0.4872720000000  0.4940590000000 1.0
C      1  0.5545260000000  0.5199610000000  0.5162700000000 1.0
C      1  0.5380860000000  0.4424490000000  0.5091270000000 1.0
C      1  0.5712360000000  0.4652100000000  0.4740480000000 1.0
C      1  0.5728950000000  0.4958150000000  0.5244860000000 1.0
C      1  0.5604060000000  0.5280890000000  0.4862320000000 1.0
C      1  0.5349230000000  0.5611560000000  0.5118550000000 1.0
C      1  0.4980510000000  0.5748380000000  0.4835710000000 1.0
C      1  0.4646610000000  0.5554620000000  0.5161020000000 1.0
C      1  0.4346930000000  0.5386370000000  0.4843620000000 1.0
C      1  0.4338860000000  0.4981020000000  0.5090470000000 1.0
C      1  0.4365640000000  0.4634930000000  0.4892700000000 1.0
C      1  0.4619480000000  0.4262750000000  0.5133060000000 1.0
C      1  0.4996480000000  0.4338180000000  0.4826790000000 1.0
END
