TITL C-1154827-9204-2 5.01942445062709e-05 125000 -336.421408990991 0 0 60 (C2) n - 1
REM
REM in /home/nfs/bkarasulu/CARBON/AIRSS/Generating-Clusters/AIREBO/Higher-Symm/Only-C60
REM
REM
REM
REM
REM
REM ./C.cell (28575a23ae977d3b5fae324c64b13b57)
REM
REM compiler GCC version 9.2.1 20190827 (Red Hat 9.2.1-1)
REM options -cpp -mtune=generic -march=x86-64 -g -O0 -fpre-include=/usr/include/finclude/math-vector-fortran.h
REM seed 1004202827 445605896 -277336194 -1507832602 1344318087 -498329422 2097361656 -1928044978 -151010938 166873195 -651506705 -1108340325 696867732 1560068990 -1864999793 -1040143453 176320650 -816756300 684152526 -789039707 -1161840572 -323869278 1410180879 1640588184 -1137575228 -1782261942 -1372953065 -598533160 -1510099648 -1427381387 -927761554 233755546 -2096796125
REM
CELL 1.54180   50.00000   50.00000   50.00000   90.00000   90.00000   90.00000
LATT -1
SFAC C  
C      1  0.4753310000000  0.5019510000000  0.5060330000000 1.0
C      1  0.4951850000000  0.5017390000000  0.4806140000000 1.0
C      1  0.5246770000000  0.5017990000000  0.4939510000000 1.0
C      1  0.5048230000000  0.5018850000000  0.5193710000000 1.0
C      1  0.4250110000000  0.4974100000000  0.4553250000000 1.0
C      1  0.5444750000000  0.4968100000000  0.4254600000000 1.0
C      1  0.5749790000000  0.4974830000000  0.5446970000000 1.0
C      1  0.4555130000000  0.4976260000000  0.5745630000000 1.0
C      1  0.5174430000000  0.5320530000000  0.4442250000000 1.0
C      1  0.5601360000000  0.5333980000000  0.5169720000000 1.0
C      1  0.4826900000000  0.5325980000000  0.5555000000000 1.0
C      1  0.4400010000000  0.5334990000000  0.4827430000000 1.0
C      1  0.5413940000000  0.5296200000000  0.4923470000000 1.0
C      1  0.5078800000000  0.5294010000000  0.5365190000000 1.0
C      1  0.4587280000000  0.5298540000000  0.5074000000000 1.0
C      1  0.4922400000000  0.5291210000000  0.4632320000000 1.0
C      1  0.4890720000000  0.5796070000000  0.4637900000000 1.0
C      1  0.5395710000000  0.5799940000000  0.4866680000000 1.0
C      1  0.5112550000000  0.5798660000000  0.5355310000000 1.0
C      1  0.4607570000000  0.5802660000000  0.5126500000000 1.0
C      1  0.4691710000000  0.4516960000000  0.5238760000000 1.0
C      1  0.4736320000000  0.4501190000000  0.4692170000000 1.0
C      1  0.5306300000000  0.4513680000000  0.4765360000000 1.0
C      1  0.5261640000000  0.4502750000000  0.5312070000000 1.0
C      1  0.5290240000000  0.4733620000000  0.4290940000000 1.0
C      1  0.5717520000000  0.4738280000000  0.5294810000000 1.0
C      1  0.4708680000000  0.4740860000000  0.5711290000000 1.0
C      1  0.4281400000000  0.4738730000000  0.4707420000000 1.0
C      1  0.5699770000000  0.4938030000000  0.4750770000000 1.0
C      1  0.5242520000000  0.4950510000000  0.5649340000000 1.0
C      1  0.4299980000000  0.4943020000000  0.5249740000000 1.0
C      1  0.4757270000000  0.4945980000000  0.4351100000000 1.0
C      1  0.5422970000000  0.4780890000000  0.4854860000000 1.0
C      1  0.5122120000000  0.4781640000000  0.5386540000000 1.0
C      1  0.4576140000000  0.4783870000000  0.5146990000000 1.0
C      1  0.4876980000000  0.4778860000000  0.4615330000000 1.0
C      1  0.4759030000000  0.5545140000000  0.5070010000000 1.0
C      1  0.4943580000000  0.5544660000000  0.4806460000000 1.0
C      1  0.5243200000000  0.5543530000000  0.4925360000000 1.0
C      1  0.5058660000000  0.5546050000000  0.5188900000000 1.0
C      1  0.5039260000000  0.4416800000000  0.4591770000000 1.0
C      1  0.5277220000000  0.4359000000000  0.5032720000000 1.0
C      1  0.4958350000000  0.4420460000000  0.5413180000000 1.0
C      1  0.4720160000000  0.4359890000000  0.4972740000000 1.0
C      1  0.5393500000000  0.4518350000000  0.4445010000000 1.0
C      1  0.5559560000000  0.4529460000000  0.5403370000000 1.0
C      1  0.4604540000000  0.4524710000000  0.5559070000000 1.0
C      1  0.4438510000000  0.4528350000000  0.4600640000000 1.0
C      1  0.5420990000000  0.5184500000000  0.4435960000000 1.0
C      1  0.5577780000000  0.5197100000000  0.5413290000000 1.0
C      1  0.4579780000000  0.5191020000000  0.5562450000000 1.0
C      1  0.4423020000000  0.5195940000000  0.4585040000000 1.0
C      1  0.4675240000000  0.5192050000000  0.4464240000000 1.0
C      1  0.5567020000000  0.5182880000000  0.4674150000000 1.0
C      1  0.5325560000000  0.5195270000000  0.5534110000000 1.0
C      1  0.4433740000000  0.5187970000000  0.5324270000000 1.0
C      1  0.4289860000000  0.4769880000000  0.4981250000000 1.0
C      1  0.5019540000000  0.4772650000000  0.4316450000000 1.0
C      1  0.5709190000000  0.4767140000000  0.5020720000000 1.0
C      1  0.4979540000000  0.4778550000000  0.5685460000000 1.0
END
