TITL C-1154810-7815-155 -0.203280955561692 125000 -332.931696108864 0 0 60 (C1) n - 1
REM
REM in /home/nfs/bkarasulu/CARBON/AIRSS/Generating-Clusters/AIREBO/Higher-Symm/Only-C60
REM
REM
REM
REM
REM
REM ./C.cell (28575a23ae977d3b5fae324c64b13b57)
REM
REM compiler GCC version 9.2.1 20190827 (Red Hat 9.2.1-1)
REM options -cpp -mtune=generic -march=x86-64 -g -O0 -fpre-include=/usr/include/finclude/math-vector-fortran.h
REM seed -1287682693 1573797805 -1413769915 1091647963 -986164167 -534699379 726305751 1305935413 1616468091 1697821100 -9523357 1512653344 2134075765 43278787 1982443467 198205214 279154594 -131098438 939175701 -790036132 443194303 551409294 -1541694062 -1029055969 1542061878 491536859 -1874880500 -1243798821 1785495437 -759635381 -431808765 -2106740465 2039123349
REM
CELL 1.54180   50.00000   50.00000   50.00000   90.00000   90.00000   90.00000
LATT -1
SFAC C  
C      1  0.4346320000000  0.4712560000000  0.5239610000000 1.0
C      1  0.4604320000000  0.4825400000000  0.4835790000000 1.0
C      1  0.4779970000000  0.4722560000000  0.4382860000000 1.0
C      1  0.5229770000000  0.4761320000000  0.4613790000000 1.0
C      1  0.5588410000000  0.4650690000000  0.4949350000000 1.0
C      1  0.5282400000000  0.4745030000000  0.5385880000000 1.0
C      1  0.4762550000000  0.4657300000000  0.5508510000000 1.0
C      1  0.5145480000000  0.5057090000000  0.4705970000000 1.0
C      1  0.5369100000000  0.5105360000000  0.4950180000000 1.0
C      1  0.5306660000000  0.5047440000000  0.5247940000000 1.0
C      1  0.5062520000000  0.5179620000000  0.5367540000000 1.0
C      1  0.4767000000000  0.5285450000000  0.5268320000000 1.0
C      1  0.4653950000000  0.5123840000000  0.4991370000000 1.0
C      1  0.4684220000000  0.5301780000000  0.4731030000000 1.0
C      1  0.5034990000000  0.4749510000000  0.5540210000000 1.0
C      1  0.4531790000000  0.4807840000000  0.5430110000000 1.0
C      1  0.4344270000000  0.4843110000000  0.4990880000000 1.0
C      1  0.4587650000000  0.4841140000000  0.4534340000000 1.0
C      1  0.5050030000000  0.4812930000000  0.4380820000000 1.0
C      1  0.5502870000000  0.4777790000000  0.4711150000000 1.0
C      1  0.5559930000000  0.4745840000000  0.5215560000000 1.0
C      1  0.4360120000000  0.5535980000000  0.4762830000000 1.0
C      1  0.4890260000000  0.5516270000000  0.4469640000000 1.0
C      1  0.5416830000000  0.5449070000000  0.4556270000000 1.0
C      1  0.5656930000000  0.5523290000000  0.5063030000000 1.0
C      1  0.5389720000000  0.5432690000000  0.5573280000000 1.0
C      1  0.4880980000000  0.5479270000000  0.5658800000000 1.0
C      1  0.4340010000000  0.5521970000000  0.5178760000000 1.0
C      1  0.4600900000000  0.5582960000000  0.5001320000000 1.0
C      1  0.4674010000000  0.5630660000000  0.4672710000000 1.0
C      1  0.5117790000000  0.5379140000000  0.4600490000000 1.0
C      1  0.5416370000000  0.5415040000000  0.4863590000000 1.0
C      1  0.5333530000000  0.5565260000000  0.5159400000000 1.0
C      1  0.5104380000000  0.5507070000000  0.5403920000000 1.0
C      1  0.4830830000000  0.5615670000000  0.5218170000000 1.0
C      1  0.4997900000000  0.5021670000000  0.5638940000000 1.0
C      1  0.4533470000000  0.5121060000000  0.5444530000000 1.0
C      1  0.4254640000000  0.5108370000000  0.4979010000000 1.0
C      1  0.4528440000000  0.5141400000000  0.4493920000000 1.0
C      1  0.5086470000000  0.5094290000000  0.4313340000000 1.0
C      1  0.5577640000000  0.5093650000000  0.4681900000000 1.0
C      1  0.5645770000000  0.5073110000000  0.5235600000000 1.0
C      1  0.4312440000000  0.5252990000000  0.5222300000000 1.0
C      1  0.4292890000000  0.5249910000000  0.4719430000000 1.0
C      1  0.4827380000000  0.5246160000000  0.4361850000000 1.0
C      1  0.5391480000000  0.5170970000000  0.4402820000000 1.0
C      1  0.5749030000000  0.5214820000000  0.4953480000000 1.0
C      1  0.5556830000000  0.5264150000000  0.5489490000000 1.0
C      1  0.4774450000000  0.5219430000000  0.5661630000000 1.0
C      1  0.5307710000000  0.3852030000000  0.5037530000000 1.0
C      1  0.4978380000000  0.5160130000000  0.4956670000000 1.0
C      1  0.5077570000000  0.5791230000000  0.4988720000000 1.0
C      1  0.5121760000000  0.6045320000000  0.4945690000000 1.0
C      1  0.5199140000000  0.4092650000000  0.5002040000000 1.0
C      1  0.5171360000000  0.6301960000000  0.4927030000000 1.0
C      1  0.4905610000000  0.4828280000000  0.4928770000000 1.0
C      1  0.5019110000000  0.4588720000000  0.4932600000000 1.0
C      1  0.5047830000000  0.5453290000000  0.5012830000000 1.0
C      1  0.5110930000000  0.4342950000000  0.4980190000000 1.0
C      1  0.5390900000000  0.3606600000000  0.5076840000000 1.0
END
