TITL C-1154828-9214-520 0.00248534615094033 125000 -321.593732264852 0 0 60 (C1) n - 1
REM
REM in /home/nfs/bkarasulu/CARBON/AIRSS/Generating-Clusters/AIREBO/Higher-Symm/Only-C60
REM
REM
REM
REM
REM
REM ./C.cell (28575a23ae977d3b5fae324c64b13b57)
REM
REM compiler GCC version 9.2.1 20190827 (Red Hat 9.2.1-1)
REM options -cpp -mtune=generic -march=x86-64 -g -O0 -fpre-include=/usr/include/finclude/math-vector-fortran.h
REM seed -1265035694 1764259575 -1119793716 639889206 1666865235 -1493134256 337167489 1076941266 687507614 -1975724512 1129808057 -1691236788 1882426769 -2043386606 87319138 -392083335 -190322376 -265677447 -483310478 -103382497 738927008 -2042069083 425534538 1444951259 2142103970 110925998 -604094919 377389992 1569259043 -322514081 -1585481083 -199148256 -365519857
REM
CELL 1.54180   50.00000   50.00000   50.00000   90.00000   90.00000   90.00000
LATT -1
SFAC C  
C      1  0.5043580000000  0.5096470000000  0.5255410000000 1.0
C      1  0.5093700000000  0.5183930000000  0.4761150000000 1.0
C      1  0.5081360000000  0.4710460000000  0.4954070000000 1.0
C      1  0.4476990000000  0.5136870000000  0.5261410000000 1.0
C      1  0.4509420000000  0.5148230000000  0.4724900000000 1.0
C      1  0.4528960000000  0.4708770000000  0.5019830000000 1.0
C      1  0.4726910000000  0.4863050000000  0.4547880000000 1.0
C      1  0.4698480000000  0.4574490000000  0.5441470000000 1.0
C      1  0.4728770000000  0.5476820000000  0.5108110000000 1.0
C      1  0.5015410000000  0.4607460000000  0.5436800000000 1.0
C      1  0.5037140000000  0.5587260000000  0.5116640000000 1.0
C      1  0.5031350000000  0.4811900000000  0.4437490000000 1.0
C      1  0.5402680000000  0.4917540000000  0.5434440000000 1.0
C      1  0.5368000000000  0.5465640000000  0.4834170000000 1.0
C      1  0.5375200000000  0.4627560000000  0.4695800000000 1.0
C      1  0.4627180000000  0.5531950000000  0.5412130000000 1.0
C      1  0.4618210000000  0.5083240000000  0.4341560000000 1.0
C      1  0.4603600000000  0.4324380000000  0.5277830000000 1.0
C      1  0.4903240000000  0.4506780000000  0.4504030000000 1.0
C      1  0.4911750000000  0.4817270000000  0.5677060000000 1.0
C      1  0.4903330000000  0.5696990000000  0.4823960000000 1.0
C      1  0.5637050000000  0.5491750000000  0.4990860000000 1.0
C      1  0.5644200000000  0.4740580000000  0.4585990000000 1.0
C      1  0.5662770000000  0.4760700000000  0.5401110000000 1.0
C      1  0.4577840000000  0.4806510000000  0.5647400000000 1.0
C      1  0.4570050000000  0.5636180000000  0.4852880000000 1.0
C      1  0.4572580000000  0.4559850000000  0.4542520000000 1.0
C      1  0.4735540000000  0.5108090000000  0.5674350000000 1.0
C      1  0.4741300000000  0.5542930000000  0.4569970000000 1.0
C      1  0.4742880000000  0.4363430000000  0.4767370000000 1.0
C      1  0.5646640000000  0.4969390000000  0.4433680000000 1.0
C      1  0.5652810000000  0.4499690000000  0.5317030000000 1.0
C      1  0.5639980000000  0.5483350000000  0.5265840000000 1.0
C      1  0.5203420000000  0.4995680000000  0.4253350000000 1.0
C      1  0.5197300000000  0.4357000000000  0.5395050000000 1.0
C      1  0.5203860000000  0.5647380000000  0.5371080000000 1.0
C      1  0.4802680000000  0.5236600000000  0.4870080000000 1.0
C      1  0.4803420000000  0.4838940000000  0.4881990000000 1.0
C      1  0.4755530000000  0.5054630000000  0.5128890000000 1.0
C      1  0.4494970000000  0.4815930000000  0.5315260000000 1.0
C      1  0.4438980000000  0.5341900000000  0.4991960000000 1.0
C      1  0.4438280000000  0.4825730000000  0.4723830000000 1.0
C      1  0.5202160000000  0.5741350000000  0.4788640000000 1.0
C      1  0.5201250000000  0.4454230000000  0.4482260000000 1.0
C      1  0.5211470000000  0.4837030000000  0.5698660000000 1.0
C      1  0.5354100000000  0.4419070000000  0.4945350000000 1.0
C      1  0.5319180000000  0.5210970000000  0.5524370000000 1.0
C      1  0.5360200000000  0.5359810000000  0.4523080000000 1.0
C      1  0.5157700000000  0.4799840000000  0.5234790000000 1.0
C      1  0.5167910000000  0.5295850000000  0.5052700000000 1.0
C      1  0.5173100000000  0.4901620000000  0.4711070000000 1.0
C      1  0.4563560000000  0.4403730000000  0.5013440000000 1.0
C      1  0.4535660000000  0.5287770000000  0.5523600000000 1.0
C      1  0.4541810000000  0.5335750000000  0.4462770000000 1.0
C      1  0.5416290000000  0.4386000000000  0.5212550000000 1.0
C      1  0.5408420000000  0.5455430000000  0.5425900000000 1.0
C      1  0.5422350000000  0.5132140000000  0.4377360000000 1.0
C      1  0.5049280000000  0.4407320000000  0.4861210000000 1.0
C      1  0.5020620000000  0.5181540000000  0.5558280000000 1.0
C      1  0.5047620000000  0.5437250000000  0.4557340000000 1.0
END
