TITL C-1154802-8274-4 -2.83680857792659e-05 125000 -339.098413680162 0 0 60 (C2) n - 1
REM
REM in /home/nfs/bkarasulu/CARBON/AIRSS/Generating-Clusters/AIREBO/Higher-Symm/Only-C60
REM
REM
REM
REM
REM
REM ./C.cell (28575a23ae977d3b5fae324c64b13b57)
REM
REM compiler GCC version 9.2.1 20190827 (Red Hat 9.2.1-1)
REM options -cpp -mtune=generic -march=x86-64 -g -O0 -fpre-include=/usr/include/finclude/math-vector-fortran.h
REM seed -1496661707 1450871388 321643732 -1300193083 589439045 1878821534 -2034801760 -1402276186 1558664580 -358825191 -388670333 -2088160909 1928366262 -1930413734 861017749 725280245 1952895280 339289277 -1120888069 -2128631357 -86273194 2147091300 1927950612 -2042448472 -763675904 693998102 -1157193938 1749081790 -2140837519 -865166281 -309588860 1534421850 1130595011
REM
CELL 1.54180   50.00000   50.00000   50.00000   90.00000   90.00000   90.00000
LATT -1
SFAC C  
C      1  0.4943160000000  0.4319080000000  0.4922200000000 1.0
C      1  0.5582030000000  0.4543280000000  0.4947500000000 1.0
C      1  0.5655550000000  0.5257830000000  0.4907000000000 1.0
C      1  0.5056800000000  0.5680970000000  0.4922650000000 1.0
C      1  0.4417950000000  0.5456760000000  0.4948110000000 1.0
C      1  0.4344410000000  0.4742240000000  0.4907140000000 1.0
C      1  0.5654850000000  0.5327310000000  0.4605950000000 1.0
C      1  0.5026450000000  0.5751260000000  0.4621060000000 1.0
C      1  0.4375520000000  0.5396070000000  0.4634490000000 1.0
C      1  0.4344960000000  0.4672960000000  0.4606050000000 1.0
C      1  0.4973360000000  0.4249010000000  0.4620550000000 1.0
C      1  0.5624300000000  0.4604190000000  0.4633900000000 1.0
C      1  0.4859520000000  0.4750030000000  0.5201710000000 1.0
C      1  0.5131070000000  0.4720790000000  0.5364010000000 1.0
C      1  0.5285300000000  0.4960630000000  0.5231230000000 1.0
C      1  0.5140580000000  0.5249830000000  0.5201810000000 1.0
C      1  0.4869110000000  0.5278950000000  0.5364270000000 1.0
C      1  0.4714810000000  0.5039210000000  0.5231400000000 1.0
C      1  0.4849520000000  0.4718170000000  0.4614400000000 1.0
C      1  0.5171030000000  0.4708600000000  0.4560870000000 1.0
C      1  0.5302520000000  0.5012870000000  0.4612230000000 1.0
C      1  0.5150290000000  0.5282100000000  0.4614520000000 1.0
C      1  0.4828760000000  0.5291700000000  0.4561150000000 1.0
C      1  0.4697290000000  0.4987400000000  0.4612380000000 1.0
C      1  0.5273270000000  0.4967200000000  0.5771430000000 1.0
C      1  0.5162310000000  0.5224220000000  0.5767540000000 1.0
C      1  0.4898600000000  0.5231390000000  0.5660880000000 1.0
C      1  0.4727110000000  0.5032270000000  0.5771590000000 1.0
C      1  0.4838070000000  0.4775240000000  0.5767470000000 1.0
C      1  0.5101730000000  0.4768150000000  0.5660670000000 1.0
C      1  0.4244340000000  0.5275680000000  0.5112430000000 1.0
C      1  0.4416840000000  0.4499570000000  0.5062240000000 1.0
C      1  0.5161130000000  0.4229780000000  0.5106360000000 1.0
C      1  0.5755710000000  0.4724240000000  0.5111870000000 1.0
C      1  0.5583190000000  0.5500390000000  0.5062300000000 1.0
C      1  0.4838920000000  0.5770140000000  0.5106970000000 1.0
C      1  0.4990680000000  0.4642810000000  0.4910310000000 1.0
C      1  0.5317410000000  0.4709420000000  0.4867390000000 1.0
C      1  0.5425150000000  0.5019410000000  0.4926830000000 1.0
C      1  0.5009280000000  0.5357250000000  0.4910550000000 1.0
C      1  0.4682530000000  0.5290680000000  0.4867750000000 1.0
C      1  0.4574820000000  0.4980640000000  0.4927030000000 1.0
C      1  0.4929570000000  0.5579290000000  0.4463350000000 1.0
C      1  0.4446690000000  0.5184390000000  0.4518550000000 1.0
C      1  0.4567340000000  0.4627790000000  0.4495320000000 1.0
C      1  0.5070170000000  0.4421090000000  0.4462910000000 1.0
C      1  0.5553070000000  0.4815940000000  0.4518140000000 1.0
C      1  0.5432420000000  0.5372570000000  0.4495360000000 1.0
C      1  0.5594080000000  0.4930570000000  0.5292360000000 1.0
C      1  0.5346580000000  0.5466880000000  0.5267260000000 1.0
C      1  0.4747830000000  0.5551490000000  0.5319600000000 1.0
C      1  0.4406060000000  0.5069230000000  0.5292700000000 1.0
C      1  0.4653550000000  0.4532940000000  0.5267100000000 1.0
C      1  0.5252320000000  0.4448290000000  0.5319090000000 1.0
C      1  0.5795900000000  0.5038130000000  0.5073740000000 1.0
C      1  0.5331890000000  0.5697590000000  0.5049060000000 1.0
C      1  0.4538260000000  0.5673580000000  0.5112560000000 1.0
C      1  0.4204140000000  0.4961820000000  0.5074110000000 1.0
C      1  0.4668140000000  0.4302380000000  0.5048740000000 1.0
C      1  0.5461800000000  0.4326340000000  0.5111860000000 1.0
END
