TITL C-1154810-7815-513 -0.0020172585723481 125000 -317.629581830223 0 0 60 (C1) n - 1
REM
REM in /home/nfs/bkarasulu/CARBON/AIRSS/Generating-Clusters/AIREBO/Higher-Symm/Only-C60
REM
REM
REM
REM
REM
REM ./C.cell (28575a23ae977d3b5fae324c64b13b57)
REM
REM compiler GCC version 9.2.1 20190827 (Red Hat 9.2.1-1)
REM options -cpp -mtune=generic -march=x86-64 -g -O0 -fpre-include=/usr/include/finclude/math-vector-fortran.h
REM seed -1713714272 -415767795 906013355 1673931147 -781745875 1508368019 1999190595 -613998560 1117903162 -2006525084 -795977478 -1484589993 1301112305 -805782637 -707957631 -334909554 365576552 -631650161 1876485498 964487307 1460600259 571804601 671702826 -1724346334 166595105 -959102088 810850468 684040381 512317539 1406848996 -1270298408 2111885715 1612326092
REM
CELL 1.54180   50.00000   50.00000   50.00000   90.00000   90.00000   90.00000
LATT -1
SFAC C  
C      1  0.4496960000000  0.4632900000000  0.5251040000000 1.0
C      1  0.5324690000000  0.4479550000000  0.5289210000000 1.0
C      1  0.5415260000000  0.5312460000000  0.5262410000000 1.0
C      1  0.4583990000000  0.5470820000000  0.5245360000000 1.0
C      1  0.5461610000000  0.4578610000000  0.4783500000000 1.0
C      1  0.4641710000000  0.4486340000000  0.4771410000000 1.0
C      1  0.4478840000000  0.5327380000000  0.4745590000000 1.0
C      1  0.5314290000000  0.5414010000000  0.4768650000000 1.0
C      1  0.4725270000000  0.5016390000000  0.4770100000000 1.0
C      1  0.4931210000000  0.4759670000000  0.4763740000000 1.0
C      1  0.5226660000000  0.4899190000000  0.4788320000000 1.0
C      1  0.5017370000000  0.5149070000000  0.4757690000000 1.0
C      1  0.5147850000000  0.5017770000000  0.5273650000000 1.0
C      1  0.5014660000000  0.4726240000000  0.5255180000000 1.0
C      1  0.4758940000000  0.4933010000000  0.5248430000000 1.0
C      1  0.4899730000000  0.5229350000000  0.5243930000000 1.0
C      1  0.4993330000000  0.5498750000000  0.5329850000000 1.0
C      1  0.4482160000000  0.5018330000000  0.5353980000000 1.0
C      1  0.4914690000000  0.4470630000000  0.5374660000000 1.0
C      1  0.5399300000000  0.4964580000000  0.5457370000000 1.0
C      1  0.4965150000000  0.5401380000000  0.4575700000000 1.0
C      1  0.5496410000000  0.4991010000000  0.4697700000000 1.0
C      1  0.5021730000000  0.4488770000000  0.4648400000000 1.0
C      1  0.4464010000000  0.4907940000000  0.4663090000000 1.0
C      1  0.5068310000000  0.5380220000000  0.4300790000000 1.0
C      1  0.4989700000000  0.5225480000000  0.4036670000000 1.0
C      1  0.5255680000000  0.5238290000000  0.3872300000000 1.0
C      1  0.5335100000000  0.5392750000000  0.4132430000000 1.0
C      1  0.5395660000000  0.5341450000000  0.5895110000000 1.0
C      1  0.5379540000000  0.5072400000000  0.5730670000000 1.0
C      1  0.5223880000000  0.4999730000000  0.5995960000000 1.0
C      1  0.5240310000000  0.5267880000000  0.6156430000000 1.0
C      1  0.5292080000000  0.4469100000000  0.4595140000000 1.0
C      1  0.5502830000000  0.5258480000000  0.4636790000000 1.0
C      1  0.4646180000000  0.5446140000000  0.4560110000000 1.0
C      1  0.4474210000000  0.4638650000000  0.4607650000000 1.0
C      1  0.4644690000000  0.4477120000000  0.5425080000000 1.0
C      1  0.4459400000000  0.5285320000000  0.5418040000000 1.0
C      1  0.5260650000000  0.5503880000000  0.5391810000000 1.0
C      1  0.5441150000000  0.4644710000000  0.5479240000000 1.0
C      1  0.4248680000000  0.4829960000000  0.5223750000000 1.0
C      1  0.5119190000000  0.4230790000000  0.5282930000000 1.0
C      1  0.5647820000000  0.5088780000000  0.5281270000000 1.0
C      1  0.4783610000000  0.5720020000000  0.5209220000000 1.0
C      1  0.5715830000000  0.4778360000000  0.4818180000000 1.0
C      1  0.4862150000000  0.4250410000000  0.4787680000000 1.0
C      1  0.4230090000000  0.5124500000000  0.4749730000000 1.0
C      1  0.5094210000000  0.5648940000000  0.4748670000000 1.0
C      1  0.5089660000000  0.5779290000000  0.5063420000000 1.0
C      1  0.4114330000000  0.5103710000000  0.5068750000000 1.0
C      1  0.4820860000000  0.4179980000000  0.5118950000000 1.0
C      1  0.5793250000000  0.4812040000000  0.5147550000000 1.0
C      1  0.4818770000000  0.5798690000000  0.4880310000000 1.0
C      1  0.5776530000000  0.5083480000000  0.4965770000000 1.0
C      1  0.5099770000000  0.4092690000000  0.4972840000000 1.0
C      1  0.4152210000000  0.4824710000000  0.4897750000000 1.0
C      1  0.4703180000000  0.4698450000000  0.5008600000000 1.0
C      1  0.5262110000000  0.4662890000000  0.5030310000000 1.0
C      1  0.4656550000000  0.5250680000000  0.5007160000000 1.0
C      1  0.5226050000000  0.5225870000000  0.5015660000000 1.0
END
