TITL C-1154824-75-94 -0.000758309039368332 125000 -330.510394538753 0 0 60 (C1) n - 1
REM
REM in /home/nfs/bkarasulu/CARBON/AIRSS/Generating-Clusters/AIREBO/Higher-Symm/Only-C60
REM
REM
REM
REM
REM
REM ./C.cell (28575a23ae977d3b5fae324c64b13b57)
REM
REM compiler GCC version 9.2.1 20190827 (Red Hat 9.2.1-1)
REM options -cpp -mtune=generic -march=x86-64 -g -O0 -fpre-include=/usr/include/finclude/math-vector-fortran.h
REM seed -699374167 107347218 220905855 -23273682 444385044 45407814 531444969 1174556504 620961312 -819209057 -1406873478 1602422804 -1401249196 -391127336 289680778 1358509331 -253220109 -587917727 -1434870269 -212047408 143798290 46761018 -477628632 1066706155 117076909 -549406639 754995921 -104040125 -1022440224 -1283955033 -1576832755 431216382 -2090983756
REM
CELL 1.54180   50.00000   50.00000   50.00000   90.00000   90.00000   90.00000
LATT -1
SFAC C  
C      1  0.5520540000000  0.4600770000000  0.4687930000000 1.0
C      1  0.4541100000000  0.5322030000000  0.4723800000000 1.0
C      1  0.5463780000000  0.5354680000000  0.4703380000000 1.0
C      1  0.4479310000000  0.4625370000000  0.4732260000000 1.0
C      1  0.5367180000000  0.5505490000000  0.4499270000000 1.0
C      1  0.4594080000000  0.4487820000000  0.4528150000000 1.0
C      1  0.5403140000000  0.4458370000000  0.4491490000000 1.0
C      1  0.4641750000000  0.5499240000000  0.4542350000000 1.0
C      1  0.4494270000000  0.5125530000000  0.5179540000000 1.0
C      1  0.5585810000000  0.4914530000000  0.5130360000000 1.0
C      1  0.4457260000000  0.4851680000000  0.5177720000000 1.0
C      1  0.5528280000000  0.5185470000000  0.5145670000000 1.0
C      1  0.5306810000000  0.5292990000000  0.4963600000000 1.0
C      1  0.4607390000000  0.4651130000000  0.5000630000000 1.0
C      1  0.5389090000000  0.4758640000000  0.4957370000000 1.0
C      1  0.4675610000000  0.5272350000000  0.4990810000000 1.0
C      1  0.5278530000000  0.5092740000000  0.4194740000000 1.0
C      1  0.4758870000000  0.4869680000000  0.4222140000000 1.0
C      1  0.5251530000000  0.4882900000000  0.4370200000000 1.0
C      1  0.4706060000000  0.5159290000000  0.4138880000000 1.0
C      1  0.4746910000000  0.4370030000000  0.5088560000000 1.0
C      1  0.5174130000000  0.5564530000000  0.5100880000000 1.0
C      1  0.4850810000000  0.5525730000000  0.5024990000000 1.0
C      1  0.5062240000000  0.4380150000000  0.5070900000000 1.0
C      1  0.4375640000000  0.4742850000000  0.5449900000000 1.0
C      1  0.5537440000000  0.5269730000000  0.5408100000000 1.0
C      1  0.4449230000000  0.5225280000000  0.5438790000000 1.0
C      1  0.5599420000000  0.4807710000000  0.5396360000000 1.0
C      1  0.5681680000000  0.5178320000000  0.4649260000000 1.0
C      1  0.4312190000000  0.4840270000000  0.4663630000000 1.0
C      1  0.5645820000000  0.4888650000000  0.4682000000000 1.0
C      1  0.4436330000000  0.5079500000000  0.4608640000000 1.0
C      1  0.5170230000000  0.5368400000000  0.4285310000000 1.0
C      1  0.4815730000000  0.4589670000000  0.4311620000000 1.0
C      1  0.5143970000000  0.4585190000000  0.4370060000000 1.0
C      1  0.4837060000000  0.5401140000000  0.4301710000000 1.0
C      1  0.5123410000000  0.5510820000000  0.5396860000000 1.0
C      1  0.4870240000000  0.4744080000000  0.5203070000000 1.0
C      1  0.5191600000000  0.4636020000000  0.5175150000000 1.0
C      1  0.4902600000000  0.5347090000000  0.5423550000000 1.0
C      1  0.5340860000000  0.4661520000000  0.5441180000000 1.0
C      1  0.4678500000000  0.5343140000000  0.5588440000000 1.0
C      1  0.5330280000000  0.5414290000000  0.5559440000000 1.0
C      1  0.4679520000000  0.4651530000000  0.5443240000000 1.0
C      1  0.5224370000000  0.5231760000000  0.5778310000000 1.0
C      1  0.4794230000000  0.4749870000000  0.5706650000000 1.0
C      1  0.5203020000000  0.4771990000000  0.5683400000000 1.0
C      1  0.4725090000000  0.5172780000000  0.5845100000000 1.0
C      1  0.4936590000000  0.4672930000000  0.4618760000000 1.0
C      1  0.5017350000000  0.5329730000000  0.4579370000000 1.0
C      1  0.4716610000000  0.5062560000000  0.4475600000000 1.0
C      1  0.5311670000000  0.4941420000000  0.4680630000000 1.0
C      1  0.4545040000000  0.4971050000000  0.5638900000000 1.0
C      1  0.5417050000000  0.5021170000000  0.5595620000000 1.0
C      1  0.5050560000000  0.5539330000000  0.4783950000000 1.0
C      1  0.4903590000000  0.4460530000000  0.4814020000000 1.0
C      1  0.4960690000000  0.5047120000000  0.5315170000000 1.0
C      1  0.4995130000000  0.5154230000000  0.4993130000000 1.0
C      1  0.4978490000000  0.5009080000000  0.4685910000000 1.0
C      1  0.4979190000000  0.5030620000000  0.5655560000000 1.0
END
