TITL C-1154830-9999-361 -0.00160988429484345 125000 -330.923752711803 0 0 60 (C1) n - 1
REM
REM in /home/nfs/bkarasulu/CARBON/AIRSS/Generating-Clusters/AIREBO/Higher-Symm/Only-C60
REM
REM
REM
REM
REM
REM ./C.cell (28575a23ae977d3b5fae324c64b13b57)
REM
REM compiler GCC version 9.2.1 20190827 (Red Hat 9.2.1-1)
REM options -cpp -mtune=generic -march=x86-64 -g -O0 -fpre-include=/usr/include/finclude/math-vector-fortran.h
REM seed -1369580873 -419743009 -1483620637 -542547832 1356862688 857599671 644560202 617898898 -81280309 529031081 1691525467 -1780882711 -327953365 1159163025 1806612682 -1143308333 -1559418872 -768717034 -786958990 1957454836 -1165977479 -1499900849 1878924080 -1106172448 -779280805 -1792301081 1592428951 1597977919 -421695323 -803962343 457775638 1733433769 238878104
REM
CELL 1.54180   50.00000   50.00000   50.00000   90.00000   90.00000   90.00000
LATT -1
SFAC C  
C      1  0.5449170000000  0.4760310000000  0.4607780000000 1.0
C      1  0.5508970000000  0.5064990000000  0.4710400000000 1.0
C      1  0.5502730000000  0.5536570000000  0.4952900000000 1.0
C      1  0.5494510000000  0.5082550000000  0.5293720000000 1.0
C      1  0.5500440000000  0.4796390000000  0.5329960000000 1.0
C      1  0.5529160000000  0.4591450000000  0.5140820000000 1.0
C      1  0.5497540000000  0.4517770000000  0.4831640000000 1.0
C      1  0.4901000000000  0.5175900000000  0.5806510000000 1.0
C      1  0.4783400000000  0.4566980000000  0.5464000000000 1.0
C      1  0.4823230000000  0.4252390000000  0.4963970000000 1.0
C      1  0.4811900000000  0.4525810000000  0.4428650000000 1.0
C      1  0.4867680000000  0.5181710000000  0.4215760000000 1.0
C      1  0.4764030000000  0.5591970000000  0.4753450000000 1.0
C      1  0.4799590000000  0.5633950000000  0.5329880000000 1.0
C      1  0.5106090000000  0.5359140000000  0.5665660000000 1.0
C      1  0.4974170000000  0.4720930000000  0.5646050000000 1.0
C      1  0.5006890000000  0.4247900000000  0.5179160000000 1.0
C      1  0.5006780000000  0.4359130000000  0.4542680000000 1.0
C      1  0.5047170000000  0.4952460000000  0.4232700000000 1.0
C      1  0.4998570000000  0.5466670000000  0.4602640000000 1.0
C      1  0.4951600000000  0.5780190000000  0.5131320000000 1.0
C      1  0.4597080000000  0.4729070000000  0.5228630000000 1.0
C      1  0.4708120000000  0.4550590000000  0.4961130000000 1.0
C      1  0.4612130000000  0.4608420000000  0.4640120000000 1.0
C      1  0.4686660000000  0.5078110000000  0.4459310000000 1.0
C      1  0.4565500000000  0.5410390000000  0.4892990000000 1.0
C      1  0.4646040000000  0.5351360000000  0.5218600000000 1.0
C      1  0.4789860000000  0.5197810000000  0.5485810000000 1.0
C      1  0.5059360000000  0.5006630000000  0.5482580000000 1.0
C      1  0.5109030000000  0.4741200000000  0.5275830000000 1.0
C      1  0.5017750000000  0.4625610000000  0.4997920000000 1.0
C      1  0.5076360000000  0.4829070000000  0.4734920000000 1.0
C      1  0.4997490000000  0.5126240000000  0.4588430000000 1.0
C      1  0.5122680000000  0.5426460000000  0.4979180000000 1.0
C      1  0.4986510000000  0.5299890000000  0.5227870000000 1.0
C      1  0.4969220000000  0.5428210000000  0.4282160000000 1.0
C      1  0.4816580000000  0.5821870000000  0.4887220000000 1.0
C      1  0.4958290000000  0.5587980000000  0.5566050000000 1.0
C      1  0.4920630000000  0.4918790000000  0.5890170000000 1.0
C      1  0.4865900000000  0.4306560000000  0.5420070000000 1.0
C      1  0.4906680000000  0.4159520000000  0.4712640000000 1.0
C      1  0.4914380000000  0.4701730000000  0.4231820000000 1.0
C      1  0.4232970000000  0.5361650000000  0.4828970000000 1.0
C      1  0.4387660000000  0.5186730000000  0.5366260000000 1.0
C      1  0.4394250000000  0.4935180000000  0.5407610000000 1.0
C      1  0.4307110000000  0.4649730000000  0.5069730000000 1.0
C      1  0.4319070000000  0.4666780000000  0.4797020000000 1.0
C      1  0.4454510000000  0.4894610000000  0.4599680000000 1.0
C      1  0.4452690000000  0.5215940000000  0.4649480000000 1.0
C      1  0.5301200000000  0.4699600000000  0.5550060000000 1.0
C      1  0.5256720000000  0.4420610000000  0.5091390000000 1.0
C      1  0.5209870000000  0.4533810000000  0.4659530000000 1.0
C      1  0.5288950000000  0.5013240000000  0.4454160000000 1.0
C      1  0.5273890000000  0.5590470000000  0.4722320000000 1.0
C      1  0.5253200000000  0.5716930000000  0.5093790000000 1.0
C      1  0.5307940000000  0.5207480000000  0.5471390000000 1.0
C      1  0.4928220000000  0.5010510000000  0.4960640000000 1.0
C      1  0.4707630000000  0.5032070000000  0.5118590000000 1.0
C      1  0.5523040000000  0.5227150000000  0.4987320000000 1.0
C      1  0.5213580000000  0.5120010000000  0.4969810000000 1.0
END
