TITL C-1154824-75-308 -0.00257298665278735 125000 -326.936148914472 0 0 60 (C1) n - 1
REM
REM in /home/nfs/bkarasulu/CARBON/AIRSS/Generating-Clusters/AIREBO/Higher-Symm/Only-C60
REM
REM
REM
REM
REM
REM ./C.cell (28575a23ae977d3b5fae324c64b13b57)
REM
REM compiler GCC version 9.2.1 20190827 (Red Hat 9.2.1-1)
REM options -cpp -mtune=generic -march=x86-64 -g -O0 -fpre-include=/usr/include/finclude/math-vector-fortran.h
REM seed -729588532 534132966 497394065 -1238126775 -2140278145 -346123726 -993152274 -75610657 -1568656268 -608846748 -1843743409 -502867537 -1592805799 947402402 1769448298 -1159634532 2064273757 -1646290523 2106459788 -418302114 -1805464071 -481063869 -525328737 1545878474 447313436 218020672 -296074772 1199658607 944269131 -767736940 -12509319 -1855249238 -910783355
REM
CELL 1.54180   50.00000   50.00000   50.00000   90.00000   90.00000   90.00000
LATT -1
SFAC C  
C      1  0.5280130000000  0.5353070000000  0.5577830000000 1.0
C      1  0.5204510000000  0.5723060000000  0.4878410000000 1.0
C      1  0.5230780000000  0.5298600000000  0.4286390000000 1.0
C      1  0.5234190000000  0.4628890000000  0.4407840000000 1.0
C      1  0.5215230000000  0.4307950000000  0.4980360000000 1.0
C      1  0.5284940000000  0.4674770000000  0.5603620000000 1.0
C      1  0.4796320000000  0.5451140000000  0.4373830000000 1.0
C      1  0.4806610000000  0.5732430000000  0.5098800000000 1.0
C      1  0.4734350000000  0.5315620000000  0.5604650000000 1.0
C      1  0.4739170000000  0.4620630000000  0.5550850000000 1.0
C      1  0.4703800000000  0.4315390000000  0.4966920000000 1.0
C      1  0.4714180000000  0.4674580000000  0.4443590000000 1.0
C      1  0.5602070000000  0.4926100000000  0.4767560000000 1.0
C      1  0.5611830000000  0.4765530000000  0.5010030000000 1.0
C      1  0.5666550000000  0.4882310000000  0.5272900000000 1.0
C      1  0.5671810000000  0.5183220000000  0.5282250000000 1.0
C      1  0.5608310000000  0.5342520000000  0.5033900000000 1.0
C      1  0.5584960000000  0.5216900000000  0.4766600000000 1.0
C      1  0.4351900000000  0.4859700000000  0.5239250000000 1.0
C      1  0.4334420000000  0.4710940000000  0.4988160000000 1.0
C      1  0.4339430000000  0.4849510000000  0.4734140000000 1.0
C      1  0.4399210000000  0.5131630000000  0.4721310000000 1.0
C      1  0.4420960000000  0.5296190000000  0.4958390000000 1.0
C      1  0.4369340000000  0.5159740000000  0.5229350000000 1.0
C      1  0.5214140000000  0.4923920000000  0.4670920000000 1.0
C      1  0.5193100000000  0.4696410000000  0.4890790000000 1.0
C      1  0.5171640000000  0.4722280000000  0.5227990000000 1.0
C      1  0.5176860000000  0.5037470000000  0.5356810000000 1.0
C      1  0.5189230000000  0.5257280000000  0.5111520000000 1.0
C      1  0.5143810000000  0.5178330000000  0.4796740000000 1.0
C      1  0.4859000000000  0.4936500000000  0.5343380000000 1.0
C      1  0.4857830000000  0.4699860000000  0.5103190000000 1.0
C      1  0.4872700000000  0.4763650000000  0.4798110000000 1.0
C      1  0.4782920000000  0.5029350000000  0.4718470000000 1.0
C      1  0.4840780000000  0.5243700000000  0.4927110000000 1.0
C      1  0.4874090000000  0.5260950000000  0.5239190000000 1.0
C      1  0.4579210000000  0.5543340000000  0.4930960000000 1.0
C      1  0.4628870000000  0.5176590000000  0.4474560000000 1.0
C      1  0.4453140000000  0.4699600000000  0.4510730000000 1.0
C      1  0.4455570000000  0.4446410000000  0.4984520000000 1.0
C      1  0.4492760000000  0.4712520000000  0.5461560000000 1.0
C      1  0.4493090000000  0.5284110000000  0.5471730000000 1.0
C      1  0.5436010000000  0.5569320000000  0.5074300000000 1.0
C      1  0.5537740000000  0.5304030000000  0.5515220000000 1.0
C      1  0.5541630000000  0.4730180000000  0.5506170000000 1.0
C      1  0.5444210000000  0.4509000000000  0.4989690000000 1.0
C      1  0.5484180000000  0.4777990000000  0.4524660000000 1.0
C      1  0.5419020000000  0.5349420000000  0.4565020000000 1.0
C      1  0.5102850000000  0.5581520000000  0.5170430000000 1.0
C      1  0.5077540000000  0.5418880000000  0.4565110000000 1.0
C      1  0.4993250000000  0.4868670000000  0.4416650000000 1.0
C      1  0.4966540000000  0.4285370000000  0.4783790000000 1.0
C      1  0.5039500000000  0.4497500000000  0.5447510000000 1.0
C      1  0.5024450000000  0.5141820000000  0.5642370000000 1.0
C      1  0.4907680000000  0.5560510000000  0.4823370000000 1.0
C      1  0.4989380000000  0.5490160000000  0.5462420000000 1.0
C      1  0.4986640000000  0.4834940000000  0.5642830000000 1.0
C      1  0.4961060000000  0.4388850000000  0.5165460000000 1.0
C      1  0.4974990000000  0.4515530000000  0.4593090000000 1.0
C      1  0.4929600000000  0.5143610000000  0.4316730000000 1.0
END
