TITL C-1154801-8518-630 -0.00352751983316795 125000 -324.327902415102 0 0 60 (C1) n - 1
REM
REM in /home/nfs/bkarasulu/CARBON/AIRSS/Generating-Clusters/AIREBO/Higher-Symm/Only-C60
REM
REM
REM
REM
REM
REM ./C.cell (28575a23ae977d3b5fae324c64b13b57)
REM
REM compiler GCC version 9.2.1 20190827 (Red Hat 9.2.1-1)
REM options -cpp -mtune=generic -march=x86-64 -g -O0 -fpre-include=/usr/include/finclude/math-vector-fortran.h
REM seed 1874184392 -1933677847 664080959 -988970835 448627421 1692600090 1044049756 434211685 -391472157 2091795654 -1227043810 -638043031 -1498648502 -1035583154 -1936196032 -1569656231 -1204817541 1873327631 2056467246 -144208195 675662686 1725898538 1987226101 2101374712 -1546905824 -2109661961 -887953348 213773094 -657609417 1469530850 100355585 379734354 -1230661268
REM
CELL 1.54180   50.00000   50.00000   50.00000   90.00000   90.00000   90.00000
LATT -1
SFAC C  
C      1  0.4662260000000  0.4721360000000  0.4828410000000 1.0
C      1  0.5265810000000  0.4678360000000  0.5183690000000 1.0
C      1  0.5300110000000  0.5301790000000  0.4817720000000 1.0
C      1  0.4688720000000  0.5367300000000  0.5140270000000 1.0
C      1  0.5000260000000  0.5193910000000  0.4575970000000 1.0
C      1  0.4787680000000  0.4989210000000  0.5459000000000 1.0
C      1  0.4988790000000  0.4797840000000  0.4586170000000 1.0
C      1  0.5181630000000  0.4994350000000  0.5412620000000 1.0
C      1  0.5717310000000  0.4537440000000  0.5256580000000 1.0
C      1  0.5482530000000  0.5671310000000  0.4739920000000 1.0
C      1  0.4478020000000  0.5497340000000  0.5341260000000 1.0
C      1  0.4510740000000  0.4296080000000  0.4738850000000 1.0
C      1  0.5268790000000  0.5692210000000  0.4898560000000 1.0
C      1  0.4261850000000  0.5351880000000  0.4831580000000 1.0
C      1  0.4720180000000  0.4295440000000  0.4906650000000 1.0
C      1  0.5704040000000  0.4756780000000  0.5100670000000 1.0
C      1  0.5229000000000  0.4553850000000  0.5665140000000 1.0
C      1  0.5437800000000  0.5190060000000  0.4315070000000 1.0
C      1  0.4804880000000  0.5394560000000  0.5768610000000 1.0
C      1  0.4556600000000  0.4777420000000  0.4320540000000 1.0
C      1  0.5290150000000  0.4722380000000  0.4479380000000 1.0
C      1  0.5249310000000  0.5289480000000  0.5526180000000 1.0
C      1  0.4708740000000  0.5254060000000  0.4447000000000 1.0
C      1  0.4740870000000  0.4681910000000  0.5563100000000 1.0
C      1  0.5113740000000  0.5413860000000  0.5042100000000 1.0
C      1  0.4578710000000  0.5235620000000  0.4898300000000 1.0
C      1  0.4817470000000  0.4593080000000  0.5056300000000 1.0
C      1  0.5398400000000  0.4843400000000  0.4961910000000 1.0
C      1  0.5701320000000  0.5834610000000  0.4728670000000 1.0
C      1  0.4280430000000  0.5658100000000  0.5242020000000 1.0
C      1  0.4312280000000  0.4112420000000  0.4705310000000 1.0
C      1  0.5912990000000  0.4350220000000  0.5282920000000 1.0
C      1  0.4530600000000  0.5437570000000  0.5602790000000 1.0
C      1  0.4523950000000  0.4549640000000  0.4569590000000 1.0
C      1  0.5462800000000  0.4532660000000  0.5419420000000 1.0
C      1  0.5463270000000  0.5431430000000  0.4549040000000 1.0
C      1  0.4307870000000  0.5046800000000  0.4844290000000 1.0
C      1  0.4967480000000  0.4299700000000  0.5092410000000 1.0
C      1  0.5683240000000  0.5012900000000  0.4930440000000 1.0
C      1  0.5016060000000  0.5721320000000  0.5075270000000 1.0
C      1  0.5385010000000  0.4468240000000  0.4522320000000 1.0
C      1  0.5493020000000  0.5402120000000  0.5467630000000 1.0
C      1  0.4628970000000  0.5517460000000  0.4425680000000 1.0
C      1  0.4489820000000  0.4572970000000  0.5540740000000 1.0
C      1  0.4964120000000  0.5206200000000  0.5259530000000 1.0
C      1  0.4777780000000  0.5012120000000  0.4757860000000 1.0
C      1  0.4965500000000  0.4787270000000  0.5251020000000 1.0
C      1  0.5206350000000  0.4994240000000  0.4758580000000 1.0
C      1  0.4815290000000  0.4624850000000  0.4413930000000 1.0
C      1  0.5367860000000  0.4821880000000  0.5570880000000 1.0
C      1  0.5178280000000  0.5352100000000  0.4393960000000 1.0
C      1  0.4637300000000  0.5146720000000  0.5662960000000 1.0
C      1  0.4750130000000  0.5692000000000  0.5124690000000 1.0
C      1  0.4350110000000  0.4786040000000  0.4877370000000 1.0
C      1  0.5226860000000  0.4352310000000  0.5153360000000 1.0
C      1  0.5623880000000  0.5270250000000  0.4875590000000 1.0
C      1  0.5078060000000  0.5388490000000  0.5724020000000 1.0
C      1  0.4581420000000  0.5051380000000  0.4300340000000 1.0
C      1  0.4955180000000  0.4559480000000  0.5696580000000 1.0
C      1  0.5418400000000  0.4914240000000  0.4319270000000 1.0
END
