TITL C-1154824-75-295 -0.00137532674308198 125000 -344.617512544461 0 0 60 (C1) n - 1
REM
REM in /home/nfs/bkarasulu/CARBON/AIRSS/Generating-Clusters/AIREBO/Higher-Symm/Only-C60
REM
REM
REM
REM
REM
REM ./C.cell (28575a23ae977d3b5fae324c64b13b57)
REM
REM compiler GCC version 9.2.1 20190827 (Red Hat 9.2.1-1)
REM options -cpp -mtune=generic -march=x86-64 -g -O0 -fpre-include=/usr/include/finclude/math-vector-fortran.h
REM seed -1217185119 660014149 210383529 2015214894 1646346786 -1638900547 -1907046040 -1332504570 325794982 1715559467 -610340087 -999709457 -635653903 1471475707 1692257291 310478536 -374010783 -934134402 1116616279 1882944081 -383073490 90609566 352840536 617010215 302996761 459527980 -2089768219 1628468247 693135862 -285760039 643944180 700701697 -905782455
REM
CELL 1.54180   50.00000   50.00000   50.00000   90.00000   90.00000   90.00000
LATT -1
SFAC C  
C      1  0.4785150000000  0.5246720000000  0.5705140000000 1.0
C      1  0.4722320000000  0.4291720000000  0.5107120000000 1.0
C      1  0.4749800000000  0.4796610000000  0.4288300000000 1.0
C      1  0.4719950000000  0.5755490000000  0.4875780000000 1.0
C      1  0.4695170000000  0.5132170000000  0.4271070000000 1.0
C      1  0.4751440000000  0.4250660000000  0.4798050000000 1.0
C      1  0.4772180000000  0.4962740000000  0.5661860000000 1.0
C      1  0.4771980000000  0.5752420000000  0.5212680000000 1.0
C      1  0.4605700000000  0.4819680000000  0.5421250000000 1.0
C      1  0.4775470000000  0.4730980000000  0.4909880000000 1.0
C      1  0.4728610000000  0.5064370000000  0.4584420000000 1.0
C      1  0.4600110000000  0.5333100000000  0.5177760000000 1.0
C      1  0.4635110000000  0.4826190000000  0.4689550000000 1.0
C      1  0.4741170000000  0.4609920000000  0.5198150000000 1.0
C      1  0.4704900000000  0.5097570000000  0.5292110000000 1.0
C      1  0.4721340000000  0.5423710000000  0.4919970000000 1.0
C      1  0.5525340000000  0.5325290000000  0.5135330000000 1.0
C      1  0.5530780000000  0.4832520000000  0.5340500000000 1.0
C      1  0.5484450000000  0.4653730000000  0.4867180000000 1.0
C      1  0.5441010000000  0.5149170000000  0.4656670000000 1.0
C      1  0.5445280000000  0.5345180000000  0.4851140000000 1.0
C      1  0.5526100000000  0.4861360000000  0.4688690000000 1.0
C      1  0.5474800000000  0.4639610000000  0.5149890000000 1.0
C      1  0.5499210000000  0.5125980000000  0.5329690000000 1.0
C      1  0.5063000000000  0.4651220000000  0.5172490000000 1.0
C      1  0.5132100000000  0.4856130000000  0.4626550000000 1.0
C      1  0.5006590000000  0.5335660000000  0.4881840000000 1.0
C      1  0.4995670000000  0.5127660000000  0.5345050000000 1.0
C      1  0.5085750000000  0.4668170000000  0.4845790000000 1.0
C      1  0.5133770000000  0.4859470000000  0.5360370000000 1.0
C      1  0.5127850000000  0.5331960000000  0.5161480000000 1.0
C      1  0.5009310000000  0.5137950000000  0.4673880000000 1.0
C      1  0.5023200000000  0.4196420000000  0.4735040000000 1.0
C      1  0.4986040000000  0.5224280000000  0.4183850000000 1.0
C      1  0.5048370000000  0.5778460000000  0.5277760000000 1.0
C      1  0.5017980000000  0.4836890000000  0.5741240000000 1.0
C      1  0.4994000000000  0.4192150000000  0.5228160000000 1.0
C      1  0.5056700000000  0.5311730000000  0.5750540000000 1.0
C      1  0.5012680000000  0.5829740000000  0.4774690000000 1.0
C      1  0.5050190000000  0.4771810000000  0.4316110000000 1.0
C      1  0.4461820000000  0.4342260000000  0.5297200000000 1.0
C      1  0.4598390000000  0.4623650000000  0.4481350000000 1.0
C      1  0.4614460000000  0.5533340000000  0.4636030000000 1.0
C      1  0.4615850000000  0.5463800000000  0.5624980000000 1.0
C      1  0.4591170000000  0.4362540000000  0.4591730000000 1.0
C      1  0.4406310000000  0.4561610000000  0.5409760000000 1.0
C      1  0.4617960000000  0.5554680000000  0.5354350000000 1.0
C      1  0.4535600000000  0.5378500000000  0.4429790000000 1.0
C      1  0.5379570000000  0.4823950000000  0.4397620000000 1.0
C      1  0.5226430000000  0.5569280000000  0.4822400000000 1.0
C      1  0.5275710000000  0.5198320000000  0.5518210000000 1.0
C      1  0.5263840000000  0.4401050000000  0.5222200000000 1.0
C      1  0.5331080000000  0.4812550000000  0.5606480000000 1.0
C      1  0.5319550000000  0.5581170000000  0.5210740000000 1.0
C      1  0.5221890000000  0.5189800000000  0.4426340000000 1.0
C      1  0.5276160000000  0.4416050000000  0.4782360000000 1.0
C      1  0.5235370000000  0.4997070000000  0.4141190000000 1.0
C      1  0.5246880000000  0.5847860000000  0.5016260000000 1.0
C      1  0.5263780000000  0.5054220000000  0.5830570000000 1.0
C      1  0.5236630000000  0.4151710000000  0.4993440000000 1.0
END
