TITL C-1154829-9094-106 -0.000535221548774601 125000 -321.714963016437 0 0 60 (C1) n - 1
REM
REM in /home/nfs/bkarasulu/CARBON/AIRSS/Generating-Clusters/AIREBO/Higher-Symm/Only-C60
REM
REM
REM
REM
REM
REM ./C.cell (28575a23ae977d3b5fae324c64b13b57)
REM
REM compiler GCC version 9.2.1 20190827 (Red Hat 9.2.1-1)
REM options -cpp -mtune=generic -march=x86-64 -g -O0 -fpre-include=/usr/include/finclude/math-vector-fortran.h
REM seed -1857132088 917814081 628527868 1260446755 -1831214087 832851200 -1938684005 -1100862184 1105880194 -2077581538 608990285 1039428753 -738747409 -472852461 -21916357 928957386 1052659971 1151604515 1097547400 -112737902 -350082084 -1259508357 2115780601 763149638 -620228943 1964588077 663337714 -745417477 17851605 1514375341 912957360 -1288278086 -998186105
REM
CELL 1.54180   50.00000   50.00000   50.00000   90.00000   90.00000   90.00000
LATT -1
SFAC C  
C      1  0.5182890000000  0.4271740000000  0.5384310000000 1.0
C      1  0.5200610000000  0.5049550000000  0.4234030000000 1.0
C      1  0.5174600000000  0.5661960000000  0.5416310000000 1.0
C      1  0.5176630000000  0.4309210000000  0.4610880000000 1.0
C      1  0.5227990000000  0.5018750000000  0.5787800000000 1.0
C      1  0.5177370000000  0.5677170000000  0.4666850000000 1.0
C      1  0.4651570000000  0.5668670000000  0.5174230000000 1.0
C      1  0.4696680000000  0.4449110000000  0.5416890000000 1.0
C      1  0.4710770000000  0.4927660000000  0.4292300000000 1.0
C      1  0.4626990000000  0.5656710000000  0.4806430000000 1.0
C      1  0.4668730000000  0.4447240000000  0.4548620000000 1.0
C      1  0.4716120000000  0.4927410000000  0.5692820000000 1.0
C      1  0.5682680000000  0.5092930000000  0.4699430000000 1.0
C      1  0.5720150000000  0.5358350000000  0.5207060000000 1.0
C      1  0.5695900000000  0.4569450000000  0.5111400000000 1.0
C      1  0.5701760000000  0.5132600000000  0.5367230000000 1.0
C      1  0.5663850000000  0.5339010000000  0.4639610000000 1.0
C      1  0.5670070000000  0.4471810000000  0.4839870000000 1.0
C      1  0.4986130000000  0.4828170000000  0.4377580000000 1.0
C      1  0.4959660000000  0.5636050000000  0.5166630000000 1.0
C      1  0.4984660000000  0.4535100000000  0.5468130000000 1.0
C      1  0.4997500000000  0.4834490000000  0.5618900000000 1.0
C      1  0.4933680000000  0.5622090000000  0.4846590000000 1.0
C      1  0.4956550000000  0.4548780000000  0.4539710000000 1.0
C      1  0.4548510000000  0.5121790000000  0.4520190000000 1.0
C      1  0.4479970000000  0.5386170000000  0.5312690000000 1.0
C      1  0.4551450000000  0.4564030000000  0.5130120000000 1.0
C      1  0.4558660000000  0.5119640000000  0.5459070000000 1.0
C      1  0.4475550000000  0.5392150000000  0.4653380000000 1.0
C      1  0.4493450000000  0.4546450000000  0.4823990000000 1.0
C      1  0.5385370000000  0.4655510000000  0.4875100000000 1.0
C      1  0.5342330000000  0.5248660000000  0.4858790000000 1.0
C      1  0.5421740000000  0.4978670000000  0.5320670000000 1.0
C      1  0.5424480000000  0.4714800000000  0.5207610000000 1.0
C      1  0.5383100000000  0.5287040000000  0.5182690000000 1.0
C      1  0.5409000000000  0.4932000000000  0.4749480000000 1.0
C      1  0.4392030000000  0.4607230000000  0.4511730000000 1.0
C      1  0.4291590000000  0.5605480000000  0.4828570000000 1.0
C      1  0.4428550000000  0.4838440000000  0.5582200000000 1.0
C      1  0.4421220000000  0.4606130000000  0.5438580000000 1.0
C      1  0.4337290000000  0.5611870000000  0.5119140000000 1.0
C      1  0.4415610000000  0.4846540000000  0.4381860000000 1.0
C      1  0.4804220000000  0.4991290000000  0.4694120000000 1.0
C      1  0.4733970000000  0.5274770000000  0.5137930000000 1.0
C      1  0.4834210000000  0.4741810000000  0.5160540000000 1.0
C      1  0.4830010000000  0.4999940000000  0.5296200000000 1.0
C      1  0.4720090000000  0.5270560000000  0.4846680000000 1.0
C      1  0.4757790000000  0.4741900000000  0.4839490000000 1.0
C      1  0.5041940000000  0.5330980000000  0.5235250000000 1.0
C      1  0.5132240000000  0.4609220000000  0.5179860000000 1.0
C      1  0.5123440000000  0.5016300000000  0.4623010000000 1.0
C      1  0.5027270000000  0.5316530000000  0.4750490000000 1.0
C      1  0.5046170000000  0.4594350000000  0.4857460000000 1.0
C      1  0.5133370000000  0.5060010000000  0.5403660000000 1.0
C      1  0.5264050000000  0.5274380000000  0.4325720000000 1.0
C      1  0.5334820000000  0.5443680000000  0.5480650000000 1.0
C      1  0.5268210000000  0.4218290000000  0.5150850000000 1.0
C      1  0.5323600000000  0.5261540000000  0.5696830000000 1.0
C      1  0.5365390000000  0.5438830000000  0.4577760000000 1.0
C      1  0.5335780000000  0.4319040000000  0.4874060000000 1.0
END
