TITL C-1154816-9297-387 0.000818556823197561 125000 -307.565020022454 0 0 60 (C1) n - 1
REM
REM in /home/nfs/bkarasulu/CARBON/AIRSS/Generating-Clusters/AIREBO/Higher-Symm/Only-C60
REM
REM
REM
REM
REM
REM ./C.cell (28575a23ae977d3b5fae324c64b13b57)
REM
REM compiler GCC version 9.2.1 20190827 (Red Hat 9.2.1-1)
REM options -cpp -mtune=generic -march=x86-64 -g -O0 -fpre-include=/usr/include/finclude/math-vector-fortran.h
REM seed -324053582 -1094020372 -2074714000 -314047914 1646036536 -467928611 -465259679 -589114965 1503529956 -915584704 -1234819998 215360273 1576792622 -67226311 -694927538 -635395353 -934780660 -1909192485 -445523452 -1783872745 -847879714 -1368650372 -1080947484 527068941 2058059357 1745005285 458255885 1300467564 -26997205 -1025876888 -706230613 -1450096327 1337544961
REM
CELL 1.54180   50.00000   50.00000   50.00000   90.00000   90.00000   90.00000
LATT -1
SFAC C  
C      1  0.5672830000000  0.4887780000000  0.5162030000000 1.0
C      1  0.4878290000000  0.5159980000000  0.5672530000000 1.0
C      1  0.5166230000000  0.5702830000000  0.4877540000000 1.0
C      1  0.4411720000000  0.5140660000000  0.5115970000000 1.0
C      1  0.5588530000000  0.5173220000000  0.4896540000000 1.0
C      1  0.4432290000000  0.4868120000000  0.4826840000000 1.0
C      1  0.5160820000000  0.4887010000000  0.5604500000000 1.0
C      1  0.4776700000000  0.4801520000000  0.4311460000000 1.0
C      1  0.5180920000000  0.5115050000000  0.4465620000000 1.0
C      1  0.4790700000000  0.4288370000000  0.4788420000000 1.0
C      1  0.5112830000000  0.4448860000000  0.5182260000000 1.0
C      1  0.4898830000000  0.5534410000000  0.5121390000000 1.0
C      1  0.5503520000000  0.4843580000000  0.4880520000000 1.0
C      1  0.4850050000000  0.5112180000000  0.4387420000000 1.0
C      1  0.5199410000000  0.5610920000000  0.5203210000000 1.0
C      1  0.4310280000000  0.5185200000000  0.4812740000000 1.0
C      1  0.5693300000000  0.5224270000000  0.5206410000000 1.0
C      1  0.4379990000000  0.4800680000000  0.5149170000000 1.0
C      1  0.5122680000000  0.4828650000000  0.4318560000000 1.0
C      1  0.4826950000000  0.4859870000000  0.5546180000000 1.0
C      1  0.5216910000000  0.5208220000000  0.5685580000000 1.0
C      1  0.4827020000000  0.4297250000000  0.5129340000000 1.0
C      1  0.5100520000000  0.4381810000000  0.4850370000000 1.0
C      1  0.4858820000000  0.5604390000000  0.4787470000000 1.0
C      1  0.4488610000000  0.4714910000000  0.4462700000000 1.0
C      1  0.4712630000000  0.4464290000000  0.4513840000000 1.0
C      1  0.4493080000000  0.4550040000000  0.4760640000000 1.0
C      1  0.5460430000000  0.5284800000000  0.4524140000000 1.0
C      1  0.4624570000000  0.5188380000000  0.5447960000000 1.0
C      1  0.5446190000000  0.4806770000000  0.5479260000000 1.0
C      1  0.5199910000000  0.5481320000000  0.4620070000000 1.0
C      1  0.4801760000000  0.5463580000000  0.5426160000000 1.0
C      1  0.5267830000000  0.4527730000000  0.5465220000000 1.0
C      1  0.5474290000000  0.5459090000000  0.4802800000000 1.0
C      1  0.4528620000000  0.5436460000000  0.5236140000000 1.0
C      1  0.5470500000000  0.4618090000000  0.5207440000000 1.0
C      1  0.4533710000000  0.4698310000000  0.5502830000000 1.0
C      1  0.4785180000000  0.4490860000000  0.5405750000000 1.0
C      1  0.4513830000000  0.4527950000000  0.5212910000000 1.0
C      1  0.5506480000000  0.5293680000000  0.5551350000000 1.0
C      1  0.4574190000000  0.5215160000000  0.4517130000000 1.0
C      1  0.5401270000000  0.4769880000000  0.4504520000000 1.0
C      1  0.5290700000000  0.5556310000000  0.5507150000000 1.0
C      1  0.4765950000000  0.5484740000000  0.4505480000000 1.0
C      1  0.5176280000000  0.4528270000000  0.4573330000000 1.0
C      1  0.5572140000000  0.5517250000000  0.5300590000000 1.0
C      1  0.4492930000000  0.5460000000000  0.4729220000000 1.0
C      1  0.5453530000000  0.4540750000000  0.4750410000000 1.0
C      1  0.5015650000000  0.5479410000000  0.5645880000000 1.0
C      1  0.5483420000000  0.5660760000000  0.5025590000000 1.0
C      1  0.5659300000000  0.5027070000000  0.5481330000000 1.0
C      1  0.5002070000000  0.4580130000000  0.5635210000000 1.0
C      1  0.4969860000000  0.4519700000000  0.4344290000000 1.0
C      1  0.5030640000000  0.5402100000000  0.4348870000000 1.0
C      1  0.4512680000000  0.4316720000000  0.4982150000000 1.0
C      1  0.5403070000000  0.4365330000000  0.5014490000000 1.0
C      1  0.4587880000000  0.5617110000000  0.4989340000000 1.0
C      1  0.4388890000000  0.4988100000000  0.5430400000000 1.0
C      1  0.5595460000000  0.5004790000000  0.4592520000000 1.0
C      1  0.4356330000000  0.4995350000000  0.4520820000000 1.0
END
