TITL C-1154821-8623-218 -0.00191167867573257 125000 -322.471466987973 0 0 60 (C1) n - 1
REM
REM in /home/nfs/bkarasulu/CARBON/AIRSS/Generating-Clusters/AIREBO/Higher-Symm/Only-C60
REM
REM
REM
REM
REM
REM ./C.cell (28575a23ae977d3b5fae324c64b13b57)
REM
REM compiler GCC version 9.2.1 20190827 (Red Hat 9.2.1-1)
REM options -cpp -mtune=generic -march=x86-64 -g -O0 -fpre-include=/usr/include/finclude/math-vector-fortran.h
REM seed -1187883602 -1414236622 1259649378 1802968459 1751878247 -253687159 -452554308 -36244798 1321593996 1234458262 100292640 -60490499 -1459291116 -26108056 1856746935 -1241242855 -1024251360 -1613349054 1794135771 1279409474 1145622440 -206652025 -411119029 434458290 1630560580 1450084580 -350530473 -535641915 -1437282241 1693654640 789181761 641504764 2064069892
REM
CELL 1.54180   50.00000   50.00000   50.00000   90.00000   90.00000   90.00000
LATT -1
SFAC C  
C      1  0.5086950000000  0.4315790000000  0.5278410000000 1.0
C      1  0.4705020000000  0.4238080000000  0.4970950000000 1.0
C      1  0.5153330000000  0.4334330000000  0.4792420000000 1.0
C      1  0.4925200000000  0.5760040000000  0.5267790000000 1.0
C      1  0.5291400000000  0.5740230000000  0.4939690000000 1.0
C      1  0.4838090000000  0.5712520000000  0.4773000000000 1.0
C      1  0.5334940000000  0.5377400000000  0.4408910000000 1.0
C      1  0.5367460000000  0.5353270000000  0.5529690000000 1.0
C      1  0.4535190000000  0.5249350000000  0.5048610000000 1.0
C      1  0.4704690000000  0.4696520000000  0.4428050000000 1.0
C      1  0.4713960000000  0.4565580000000  0.5420660000000 1.0
C      1  0.5765820000000  0.4542650000000  0.5125260000000 1.0
C      1  0.4741760000000  0.5559050000000  0.4540160000000 1.0
C      1  0.5478110000000  0.5486920000000  0.4961240000000 1.0
C      1  0.4842670000000  0.5528070000000  0.5470640000000 1.0
C      1  0.5239000000000  0.4521500000000  0.4582800000000 1.0
C      1  0.4426570000000  0.4341890000000  0.5006880000000 1.0
C      1  0.5206410000000  0.4511460000000  0.5470950000000 1.0
C      1  0.4730110000000  0.5061120000000  0.5562560000000 1.0
C      1  0.4615340000000  0.5085610000000  0.4440340000000 1.0
C      1  0.5635800000000  0.5023570000000  0.5005930000000 1.0
C      1  0.5169760000000  0.5023700000000  0.5425440000000 1.0
C      1  0.5256420000000  0.5034470000000  0.4595820000000 1.0
C      1  0.4449710000000  0.4851560000000  0.4962670000000 1.0
C      1  0.5362520000000  0.4751260000000  0.4538520000000 1.0
C      1  0.5152680000000  0.4749610000000  0.5579580000000 1.0
C      1  0.4324270000000  0.4574570000000  0.4924840000000 1.0
C      1  0.4587180000000  0.5364110000000  0.4423050000000 1.0
C      1  0.4770620000000  0.5318340000000  0.5693680000000 1.0
C      1  0.5742940000000  0.5296650000000  0.4942550000000 1.0
C      1  0.5066860000000  0.5583420000000  0.4471860000000 1.0
C      1  0.5416230000000  0.5580360000000  0.5281120000000 1.0
C      1  0.4606190000000  0.5525720000000  0.5225660000000 1.0
C      1  0.4927830000000  0.4453620000000  0.4485610000000 1.0
C      1  0.4517140000000  0.4312800000000  0.5314950000000 1.0
C      1  0.5458290000000  0.4458400000000  0.5248570000000 1.0
C      1  0.5368450000000  0.5179970000000  0.4879340000000 1.0
C      1  0.4912680000000  0.5233600000000  0.5329620000000 1.0
C      1  0.4565700000000  0.4971490000000  0.4682560000000 1.0
C      1  0.4783290000000  0.4900890000000  0.4920660000000 1.0
C      1  0.4978550000000  0.4956500000000  0.5175840000000 1.0
C      1  0.5080940000000  0.5032420000000  0.4874580000000 1.0
C      1  0.5481770000000  0.5073050000000  0.5370460000000 1.0
C      1  0.4403780000000  0.4998250000000  0.5236470000000 1.0
C      1  0.5079860000000  0.5152900000000  0.4358670000000 1.0
C      1  0.4545610000000  0.4855210000000  0.5461390000000 1.0
C      1  0.5619460000000  0.4824010000000  0.5247850000000 1.0
C      1  0.4864930000000  0.4961890000000  0.4288290000000 1.0
C      1  0.4738080000000  0.5750600000000  0.5030410000000 1.0
C      1  0.5126240000000  0.5777500000000  0.4727680000000 1.0
C      1  0.5193900000000  0.5805520000000  0.5218010000000 1.0
C      1  0.5266360000000  0.4299570000000  0.5039520000000 1.0
C      1  0.4868510000000  0.4248150000000  0.4746160000000 1.0
C      1  0.4834450000000  0.4212380000000  0.5247280000000 1.0
C      1  0.4337610000000  0.5327470000000  0.5297380000000 1.0
C      1  0.5101710000000  0.5433920000000  0.4168470000000 1.0
C      1  0.5660590000000  0.5362250000000  0.5372360000000 1.0
C      1  0.5702410000000  0.4568080000000  0.5458340000000 1.0
C      1  0.4932410000000  0.4639240000000  0.4198290000000 1.0
C      1  0.4406250000000  0.4551600000000  0.5531490000000 1.0
END
