TITL C-1154823-9327-473 -0.00078358380912243 125000 -326.402139333137 0 0 60 (C1) n - 1
REM
REM in /home/nfs/bkarasulu/CARBON/AIRSS/Generating-Clusters/AIREBO/Higher-Symm/Only-C60
REM
REM
REM
REM
REM
REM ./C.cell (28575a23ae977d3b5fae324c64b13b57)
REM
REM compiler GCC version 9.2.1 20190827 (Red Hat 9.2.1-1)
REM options -cpp -mtune=generic -march=x86-64 -g -O0 -fpre-include=/usr/include/finclude/math-vector-fortran.h
REM seed -351050211 90082953 -167180194 1309724144 1997360735 -1430217259 -1514388500 -1785944292 1246634916 1109551723 -1282251005 1124579032 2035984704 935735232 1288463423 1941278918 -105931675 832545922 -1160891612 -1947760856 -1975580479 -799235468 531018482 704450771 -462531753 -1029643862 -2138474755 -678135981 -2110345778 -603264469 629850843 -1320776241 -409148706
REM
CELL 1.54180   50.00000   50.00000   50.00000   90.00000   90.00000   90.00000
LATT -1
SFAC C  
C      1  0.5356370000000  0.5375420000000  0.4829800000000 1.0
C      1  0.4647210000000  0.4628350000000  0.5169880000000 1.0
C      1  0.5276310000000  0.4372700000000  0.4723140000000 1.0
C      1  0.4721190000000  0.5621260000000  0.5284000000000 1.0
C      1  0.5610950000000  0.5236760000000  0.4714950000000 1.0
C      1  0.4396790000000  0.4771410000000  0.5288340000000 1.0
C      1  0.4734020000000  0.5036750000000  0.4698710000000 1.0
C      1  0.5273320000000  0.4957360000000  0.5297260000000 1.0
C      1  0.4628680000000  0.4549730000000  0.4874060000000 1.0
C      1  0.5372210000000  0.5449470000000  0.5128090000000 1.0
C      1  0.4670800000000  0.4485900000000  0.4482200000000 1.0
C      1  0.5326760000000  0.5508340000000  0.5520510000000 1.0
C      1  0.4729570000000  0.5502330000000  0.4903100000000 1.0
C      1  0.5275730000000  0.4486180000000  0.5105270000000 1.0
C      1  0.5400790000000  0.5380560000000  0.5786060000000 1.0
C      1  0.4598110000000  0.4615590000000  0.4217280000000 1.0
C      1  0.5120130000000  0.4864480000000  0.4799270000000 1.0
C      1  0.4886690000000  0.5127250000000  0.5197650000000 1.0
C      1  0.4947150000000  0.4811450000000  0.5539580000000 1.0
C      1  0.5052220000000  0.5196270000000  0.4455520000000 1.0
C      1  0.5306060000000  0.5729030000000  0.5169230000000 1.0
C      1  0.4690680000000  0.4268470000000  0.4837600000000 1.0
C      1  0.5443310000000  0.4854160000000  0.5564640000000 1.0
C      1  0.4557150000000  0.5145520000000  0.4437540000000 1.0
C      1  0.4648580000000  0.5196960000000  0.5398470000000 1.0
C      1  0.5361070000000  0.4825880000000  0.4585090000000 1.0
C      1  0.5613560000000  0.4958570000000  0.4714600000000 1.0
C      1  0.4389450000000  0.5048960000000  0.5282260000000 1.0
C      1  0.5678810000000  0.4814060000000  0.4987890000000 1.0
C      1  0.4310630000000  0.5189890000000  0.5008140000000 1.0
C      1  0.4961260000000  0.5729510000000  0.4809800000000 1.0
C      1  0.5033660000000  0.4271130000000  0.5196920000000 1.0
C      1  0.5447620000000  0.4619150000000  0.4844190000000 1.0
C      1  0.4529320000000  0.5396000000000  0.5147100000000 1.0
C      1  0.5559750000000  0.5293530000000  0.5337020000000 1.0
C      1  0.4443220000000  0.4707090000000  0.4665600000000 1.0
C      1  0.4771410000000  0.5570060000000  0.4578470000000 1.0
C      1  0.5224230000000  0.4429600000000  0.5430210000000 1.0
C      1  0.5189490000000  0.4671680000000  0.5579390000000 1.0
C      1  0.4807430000000  0.5332460000000  0.4423430000000 1.0
C      1  0.5251110000000  0.5650880000000  0.4703870000000 1.0
C      1  0.4745510000000  0.4353920000000  0.5301620000000 1.0
C      1  0.5166910000000  0.5242140000000  0.5290540000000 1.0
C      1  0.4837820000000  0.4750130000000  0.4705690000000 1.0
C      1  0.5160880000000  0.4772790000000  0.5076760000000 1.0
C      1  0.4849010000000  0.5219350000000  0.4919580000000 1.0
C      1  0.5709390000000  0.5078890000000  0.5198790000000 1.0
C      1  0.4290540000000  0.4920030000000  0.4802060000000 1.0
C      1  0.4513750000000  0.4836550000000  0.4387430000000 1.0
C      1  0.5491510000000  0.5161740000000  0.5616180000000 1.0
C      1  0.5119180000000  0.5188120000000  0.4756340000000 1.0
C      1  0.4889440000000  0.4809680000000  0.5237300000000 1.0
C      1  0.5030140000000  0.5536270000000  0.5381570000000 1.0
C      1  0.4968460000000  0.4451130000000  0.4618830000000 1.0
C      1  0.5218620000000  0.4995920000000  0.4351180000000 1.0
C      1  0.4775260000000  0.5010830000000  0.5637240000000 1.0
C      1  0.5014130000000  0.4236920000000  0.4880370000000 1.0
C      1  0.4982590000000  0.5757050000000  0.5125970000000 1.0
C      1  0.4354330000000  0.5199160000000  0.4675170000000 1.0
C      1  0.5639700000000  0.4799240000000  0.5321240000000 1.0
END
