TITL C-1154801-8518-299 -0.00115031618334529 125000 -310.23251490405 0 0 60 (C1) n - 1
REM
REM in /home/nfs/bkarasulu/CARBON/AIRSS/Generating-Clusters/AIREBO/Higher-Symm/Only-C60
REM
REM
REM
REM
REM
REM ./C.cell (28575a23ae977d3b5fae324c64b13b57)
REM
REM compiler GCC version 9.2.1 20190827 (Red Hat 9.2.1-1)
REM options -cpp -mtune=generic -march=x86-64 -g -O0 -fpre-include=/usr/include/finclude/math-vector-fortran.h
REM seed -302894583 1351375663 -1291509594 1904327939 2022465955 775524057 -1291650198 658113265 401499060 -1343856903 -1560695785 712219110 458753606 -973838931 -473760594 793645188 285822269 2091540884 3222489 1687216173 -1402239684 674694685 -347079420 -1679411180 -179004848 320916484 1737295289 -120560521 400688198 -1408815389 -1545369197 -69598998 1078212917
REM
CELL 1.54180   50.00000   50.00000   50.00000   90.00000   90.00000   90.00000
LATT -1
SFAC C  
C      1  0.4821400000000  0.4509250000000  0.5232470000000 1.0
C      1  0.4774170000000  0.5398260000000  0.4775580000000 1.0
C      1  0.5600850000000  0.5150260000000  0.5096140000000 1.0
C      1  0.5676760000000  0.4833780000000  0.4864900000000 1.0
C      1  0.5226590000000  0.4557670000000  0.4837110000000 1.0
C      1  0.5185290000000  0.5419690000000  0.5148260000000 1.0
C      1  0.4669430000000  0.5529480000000  0.4501950000000 1.0
C      1  0.4744570000000  0.4466420000000  0.5513080000000 1.0
C      1  0.5811630000000  0.5094330000000  0.4798230000000 1.0
C      1  0.5620970000000  0.4833230000000  0.5157230000000 1.0
C      1  0.5423660000000  0.5252640000000  0.5601400000000 1.0
C      1  0.5401100000000  0.4734450000000  0.4374780000000 1.0
C      1  0.4350290000000  0.5089310000000  0.4796900000000 1.0
C      1  0.4444720000000  0.4908830000000  0.5277450000000 1.0
C      1  0.5331670000000  0.4451670000000  0.5397040000000 1.0
C      1  0.5319110000000  0.5480330000000  0.4659540000000 1.0
C      1  0.5204750000000  0.5203010000000  0.5758430000000 1.0
C      1  0.5180620000000  0.4851150000000  0.4255630000000 1.0
C      1  0.4955580000000  0.4803710000000  0.5207050000000 1.0
C      1  0.4975900000000  0.5167680000000  0.4627800000000 1.0
C      1  0.4809340000000  0.4818180000000  0.4724150000000 1.0
C      1  0.4803910000000  0.5305680000000  0.5163100000000 1.0
C      1  0.5441750000000  0.4738360000000  0.5335860000000 1.0
C      1  0.5529580000000  0.5275170000000  0.4799220000000 1.0
C      1  0.4943760000000  0.5283310000000  0.5636080000000 1.0
C      1  0.4924140000000  0.4780960000000  0.4406090000000 1.0
C      1  0.4713510000000  0.4721600000000  0.5700220000000 1.0
C      1  0.4650920000000  0.5309080000000  0.4278710000000 1.0
C      1  0.4680110000000  0.5619130000000  0.4190450000000 1.0
C      1  0.4659350000000  0.4426170000000  0.5821000000000 1.0
C      1  0.5212210000000  0.5796560000000  0.4716370000000 1.0
C      1  0.5255040000000  0.4161830000000  0.5238470000000 1.0
C      1  0.4581920000000  0.4479870000000  0.5046000000000 1.0
C      1  0.4524870000000  0.5515440000000  0.4976260000000 1.0
C      1  0.4465030000000  0.4922320000000  0.4551330000000 1.0
C      1  0.4461640000000  0.5123790000000  0.5513060000000 1.0
C      1  0.5366230000000  0.5182410000000  0.5295470000000 1.0
C      1  0.5427400000000  0.4789080000000  0.4689700000000 1.0
C      1  0.5113350000000  0.4436880000000  0.5135230000000 1.0
C      1  0.5053960000000  0.5550390000000  0.4863120000000 1.0
C      1  0.4730800000000  0.5056970000000  0.4417450000000 1.0
C      1  0.4753390000000  0.5019000000000  0.5609520000000 1.0
C      1  0.4483160000000  0.5304580000000  0.5242170000000 1.0
C      1  0.4518920000000  0.4710480000000  0.4811730000000 1.0
C      1  0.5282280000000  0.5279980000000  0.4398320000000 1.0
C      1  0.5238780000000  0.4628710000000  0.5661120000000 1.0
C      1  0.5181710000000  0.4909610000000  0.5382960000000 1.0
C      1  0.5299790000000  0.5082800000000  0.4671230000000 1.0
C      1  0.5009890000000  0.4506030000000  0.4580230000000 1.0
C      1  0.4958560000000  0.5435290000000  0.5401160000000 1.0
C      1  0.5064320000000  0.4909440000000  0.5695910000000 1.0
C      1  0.5213120000000  0.5125570000000  0.4187910000000 1.0
C      1  0.4719500000000  0.4993190000000  0.5161730000000 1.0
C      1  0.4660870000000  0.5087950000000  0.4856700000000 1.0
C      1  0.4361080000000  0.4704610000000  0.5109390000000 1.0
C      1  0.4280900000000  0.5304630000000  0.4968860000000 1.0
C      1  0.5050490000000  0.4834560000000  0.4916920000000 1.0
C      1  0.5038590000000  0.5163670000000  0.4962070000000 1.0
C      1  0.5430290000000  0.4304630000000  0.4795490000000 1.0
C      1  0.5386480000000  0.5666950000000  0.5208300000000 1.0
END
