TITL C-1154830-9999-96 0.000848147457443718 125000 -324.153911677006 0 0 60 (C1) n - 1
REM
REM in /home/nfs/bkarasulu/CARBON/AIRSS/Generating-Clusters/AIREBO/Higher-Symm/Only-C60
REM
REM
REM
REM
REM
REM ./C.cell (28575a23ae977d3b5fae324c64b13b57)
REM
REM compiler GCC version 9.2.1 20190827 (Red Hat 9.2.1-1)
REM options -cpp -mtune=generic -march=x86-64 -g -O0 -fpre-include=/usr/include/finclude/math-vector-fortran.h
REM seed 2078246489 1265825558 1042427810 -1941612494 403902126 1973069521 824385022 -1456150772 -1701840257 1851629715 -160820356 -881737327 270654029 -191358503 365802061 -1174207908 1187768668 1299684310 643078007 10852216 -1264838025 1482753082 915203498 1484109572 -1442381123 720279663 -606555863 -25897279 1079290965 299738777 -912164359 -878561693 1083371009
REM
CELL 1.54180   50.00000   50.00000   50.00000   90.00000   90.00000   90.00000
LATT -1
SFAC C  
C      1  0.5250110000000  0.5190800000000  0.4144530000000 1.0
C      1  0.4766220000000  0.4382440000000  0.5672320000000 1.0
C      1  0.4115900000000  0.5081830000000  0.4976910000000 1.0
C      1  0.4646100000000  0.5306930000000  0.4342750000000 1.0
C      1  0.5804210000000  0.4997590000000  0.4971160000000 1.0
C      1  0.4849020000000  0.5040770000000  0.4694820000000 1.0
C      1  0.4510940000000  0.5013280000000  0.4719240000000 1.0
C      1  0.5789670000000  0.5211650000000  0.5184900000000 1.0
C      1  0.4901460000000  0.5379270000000  0.4479010000000 1.0
C      1  0.5098650000000  0.5154430000000  0.4403770000000 1.0
C      1  0.4658000000000  0.5270070000000  0.5320080000000 1.0
C      1  0.5564380000000  0.4907740000000  0.4668670000000 1.0
C      1  0.4698190000000  0.4397780000000  0.4866560000000 1.0
C      1  0.5616090000000  0.4751800000000  0.4956960000000 1.0
C      1  0.5549030000000  0.4624410000000  0.5312880000000 1.0
C      1  0.5089980000000  0.5065380000000  0.4930560000000 1.0
C      1  0.4386070000000  0.5226580000000  0.5032950000000 1.0
C      1  0.5366080000000  0.5615770000000  0.5145180000000 1.0
C      1  0.5429040000000  0.4709060000000  0.4465650000000 1.0
C      1  0.4515100000000  0.5353190000000  0.4795710000000 1.0
C      1  0.5246580000000  0.4734780000000  0.5422350000000 1.0
C      1  0.5357830000000  0.4567810000000  0.5048150000000 1.0
C      1  0.4666790000000  0.4681660000000  0.4075810000000 1.0
C      1  0.4467510000000  0.5444450000000  0.5529950000000 1.0
C      1  0.4535150000000  0.4457200000000  0.5224500000000 1.0
C      1  0.5331780000000  0.5363840000000  0.5338020000000 1.0
C      1  0.4805000000000  0.4373590000000  0.5363590000000 1.0
C      1  0.4969240000000  0.4850090000000  0.4459070000000 1.0
C      1  0.5764620000000  0.5392360000000  0.4944250000000 1.0
C      1  0.4900510000000  0.4563950000000  0.4960200000000 1.0
C      1  0.4408700000000  0.4737190000000  0.5197960000000 1.0
C      1  0.4555480000000  0.5049000000000  0.4403550000000 1.0
C      1  0.5126340000000  0.5298050000000  0.5110690000000 1.0
C      1  0.5175030000000  0.4648070000000  0.4544450000000 1.0
C      1  0.4847840000000  0.5424330000000  0.5147780000000 1.0
C      1  0.4707790000000  0.4833370000000  0.4297200000000 1.0
C      1  0.5160660000000  0.4522490000000  0.4794170000000 1.0
C      1  0.4545550000000  0.4821670000000  0.5703650000000 1.0
C      1  0.5029690000000  0.4604900000000  0.5272110000000 1.0
C      1  0.5400460000000  0.5535730000000  0.4691370000000 1.0
C      1  0.5533270000000  0.4920260000000  0.5435170000000 1.0
C      1  0.4314740000000  0.4857350000000  0.4907650000000 1.0
C      1  0.4967060000000  0.4103470000000  0.5235260000000 1.0
C      1  0.4329680000000  0.4857980000000  0.5470600000000 1.0
C      1  0.4601930000000  0.4996520000000  0.5148310000000 1.0
C      1  0.4330340000000  0.5651780000000  0.5579310000000 1.0
C      1  0.5262600000000  0.5060770000000  0.4660550000000 1.0
C      1  0.4864130000000  0.4868540000000  0.5050770000000 1.0
C      1  0.5191540000000  0.4975120000000  0.5634190000000 1.0
C      1  0.4659030000000  0.4596320000000  0.5803870000000 1.0
C      1  0.5135130000000  0.5714770000000  0.5016520000000 1.0
C      1  0.5231800000000  0.5220900000000  0.5604110000000 1.0
C      1  0.4845420000000  0.5359370000000  0.4813830000000 1.0
C      1  0.5551250000000  0.5574690000000  0.4933170000000 1.0
C      1  0.5775190000000  0.5175720000000  0.4682230000000 1.0
C      1  0.5476930000000  0.5287310000000  0.4592730000000 1.0
C      1  0.5149870000000  0.4316460000000  0.5147860000000 1.0
C      1  0.5090310000000  0.5578710000000  0.4726800000000 1.0
C      1  0.4501290000000  0.5122870000000  0.5579750000000 1.0
C      1  0.5581660000000  0.5175750000000  0.5363890000000 1.0
END
