TITL C-1154825-9328-203 0.000202195537000132 125000 -343.015576292002 0 0 60 (C1) n - 1
REM
REM in /home/nfs/bkarasulu/CARBON/AIRSS/Generating-Clusters/AIREBO/Higher-Symm/Only-C60
REM
REM
REM
REM
REM
REM ./C.cell (28575a23ae977d3b5fae324c64b13b57)
REM
REM compiler GCC version 9.2.1 20190827 (Red Hat 9.2.1-1)
REM options -cpp -mtune=generic -march=x86-64 -g -O0 -fpre-include=/usr/include/finclude/math-vector-fortran.h
REM seed -1203022251 898308907 -667772868 -889860830 1096120092 1676310536 -605949604 -1168128600 612027470 -231360035 -2079051397 384776580 -1997444189 1093106882 -1778419912 77934293 1037351007 1708806920 -1866579490 223937004 164124708 -1523100433 -2051294917 22628173 -989750516 896543758 -389941643 -1318507911 -818201968 -638140812 -543728973 961019548 -1296219426
REM
CELL 1.54180   50.00000   50.00000   50.00000   90.00000   90.00000   90.00000
LATT -1
SFAC C  
C      1  0.4934850000000  0.5568440000000  0.4587210000000 1.0
C      1  0.5367940000000  0.5557120000000  0.4912770000000 1.0
C      1  0.5083260000000  0.5662560000000  0.5315790000000 1.0
C      1  0.4859040000000  0.5636400000000  0.5083800000000 1.0
C      1  0.4949620000000  0.4343610000000  0.4573450000000 1.0
C      1  0.5364740000000  0.4487680000000  0.4916110000000 1.0
C      1  0.5063670000000  0.4343160000000  0.5288770000000 1.0
C      1  0.4829580000000  0.4379740000000  0.5065750000000 1.0
C      1  0.4194690000000  0.5331610000000  0.5154980000000 1.0
C      1  0.4837220000000  0.5309810000000  0.4389160000000 1.0
C      1  0.5703840000000  0.5510140000000  0.4886820000000 1.0
C      1  0.5042500000000  0.5504250000000  0.5553300000000 1.0
C      1  0.4230640000000  0.4668880000000  0.5102240000000 1.0
C      1  0.4885350000000  0.4540990000000  0.4362030000000 1.0
C      1  0.5689120000000  0.4588840000000  0.4903520000000 1.0
C      1  0.5022370000000  0.4491630000000  0.5531170000000 1.0
C      1  0.4883660000000  0.4786360000000  0.5474050000000 1.0
C      1  0.4504600000000  0.4787190000000  0.4936670000000 1.0
C      1  0.5066080000000  0.4786490000000  0.4467570000000 1.0
C      1  0.5525690000000  0.4774570000000  0.5141410000000 1.0
C      1  0.4878400000000  0.5218100000000  0.5502150000000 1.0
C      1  0.4480940000000  0.5271340000000  0.4977910000000 1.0
C      1  0.5128750000000  0.5222710000000  0.4540900000000 1.0
C      1  0.5502230000000  0.5166900000000  0.5129620000000 1.0
C      1  0.5211860000000  0.5602710000000  0.4630740000000 1.0
C      1  0.5345030000000  0.5609880000000  0.5225120000000 1.0
C      1  0.4686820000000  0.5645860000000  0.5362460000000 1.0
C      1  0.4751230000000  0.5651470000000  0.4779740000000 1.0
C      1  0.5225030000000  0.4372690000000  0.4652530000000 1.0
C      1  0.5328540000000  0.4390380000000  0.5205100000000 1.0
C      1  0.4668810000000  0.4363210000000  0.5344610000000 1.0
C      1  0.4733920000000  0.4366360000000  0.4764140000000 1.0
C      1  0.4406420000000  0.5274480000000  0.5370210000000 1.0
C      1  0.4702300000000  0.4993590000000  0.4374980000000 1.0
C      1  0.5599360000000  0.5275440000000  0.4748790000000 1.0
C      1  0.5264890000000  0.5285920000000  0.5564310000000 1.0
C      1  0.4393370000000  0.4735020000000  0.5352260000000 1.0
C      1  0.4657590000000  0.4724940000000  0.4450590000000 1.0
C      1  0.5551930000000  0.4745710000000  0.4665320000000 1.0
C      1  0.5258150000000  0.4692960000000  0.5569740000000 1.0
C      1  0.4794760000000  0.5321920000000  0.4999820000000 1.0
C      1  0.5012390000000  0.5154800000000  0.4812850000000 1.0
C      1  0.5214390000000  0.5283530000000  0.5036650000000 1.0
C      1  0.4969360000000  0.5152450000000  0.5209650000000 1.0
C      1  0.4804440000000  0.4694050000000  0.4980520000000 1.0
C      1  0.4998580000000  0.4846390000000  0.4776230000000 1.0
C      1  0.5257070000000  0.4803630000000  0.4962610000000 1.0
C      1  0.4995620000000  0.4857290000000  0.5174900000000 1.0
C      1  0.5332890000000  0.4637980000000  0.4547030000000 1.0
C      1  0.5457460000000  0.4598500000000  0.5384610000000 1.0
C      1  0.4618790000000  0.4612690000000  0.5448230000000 1.0
C      1  0.4555030000000  0.4589630000000  0.4688160000000 1.0
C      1  0.5401630000000  0.5350110000000  0.4572290000000 1.0
C      1  0.5445880000000  0.5363040000000  0.5352210000000 1.0
C      1  0.4626480000000  0.5399410000000  0.5468710000000 1.0
C      1  0.4505190000000  0.5522610000000  0.4773230000000 1.0
C      1  0.5122140000000  0.4995140000000  0.5599020000000 1.0
C      1  0.5024880000000  0.5045200000000  0.4281470000000 1.0
C      1  0.5624900000000  0.4981590000000  0.4890410000000 1.0
C      1  0.4424050000000  0.5006650000000  0.5183620000000 1.0
END
