TITL C-1154825-9328-521 -0.00206389454655821 125000 -325.737579260295 0 0 60 (C1) n - 1
REM
REM in /home/nfs/bkarasulu/CARBON/AIRSS/Generating-Clusters/AIREBO/Higher-Symm/Only-C60
REM
REM
REM
REM
REM
REM ./C.cell (28575a23ae977d3b5fae324c64b13b57)
REM
REM compiler GCC version 9.2.1 20190827 (Red Hat 9.2.1-1)
REM options -cpp -mtune=generic -march=x86-64 -g -O0 -fpre-include=/usr/include/finclude/math-vector-fortran.h
REM seed -216571762 -1526927771 77974073 -1360902264 1654758082 -1602104958 68711893 -184462304 -994223687 -1433333788 -2113700212 -988630676 -1826800339 -326025233 899453474 -976012192 -731589815 598558409 570948118 -1370317950 -819905561 -1997043586 -2098691848 -655135041 -66097699 -722171625 -1241748068 129377215 2111794361 1158104141 -967779525 1867834286 220262083
REM
CELL 1.54180   50.00000   50.00000   50.00000   90.00000   90.00000   90.00000
LATT -1
SFAC C  
C      1  0.5094400000000  0.4427120000000  0.5510270000000 1.0
C      1  0.5202930000000  0.4966680000000  0.4145300000000 1.0
C      1  0.4715550000000  0.4942090000000  0.5608590000000 1.0
C      1  0.5182080000000  0.5261400000000  0.5586100000000 1.0
C      1  0.5711360000000  0.5627180000000  0.5268810000000 1.0
C      1  0.4939840000000  0.4837640000000  0.4252430000000 1.0
C      1  0.4993790000000  0.5700410000000  0.5107420000000 1.0
C      1  0.4873130000000  0.5304210000000  0.5447740000000 1.0
C      1  0.5397230000000  0.4791540000000  0.5337320000000 1.0
C      1  0.5226390000000  0.4697070000000  0.5589410000000 1.0
C      1  0.4532060000000  0.5486470000000  0.5053380000000 1.0
C      1  0.4661800000000  0.5110100000000  0.4952330000000 1.0
C      1  0.4320600000000  0.4765940000000  0.5326580000000 1.0
C      1  0.4960360000000  0.5144380000000  0.4407420000000 1.0
C      1  0.4955800000000  0.5373550000000  0.5135210000000 1.0
C      1  0.4458350000000  0.4996780000000  0.5434270000000 1.0
C      1  0.5096920000000  0.4553380000000  0.5071840000000 1.0
C      1  0.4706460000000  0.4784990000000  0.4690580000000 1.0
C      1  0.5304500000000  0.4353100000000  0.5105310000000 1.0
C      1  0.4630370000000  0.4808510000000  0.5081700000000 1.0
C      1  0.4741150000000  0.4500950000000  0.4570380000000 1.0
C      1  0.4545740000000  0.5457590000000  0.4585010000000 1.0
C      1  0.5652090000000  0.5016880000000  0.5130740000000 1.0
C      1  0.4521020000000  0.4504780000000  0.5239230000000 1.0
C      1  0.4777710000000  0.4773040000000  0.5353100000000 1.0
C      1  0.5263570000000  0.4257810000000  0.5371190000000 1.0
C      1  0.5042080000000  0.5435020000000  0.4812110000000 1.0
C      1  0.5294370000000  0.5081610000000  0.4420410000000 1.0
C      1  0.5041470000000  0.5469510000000  0.4473750000000 1.0
C      1  0.5264930000000  0.5663310000000  0.5065580000000 1.0
C      1  0.5380600000000  0.4674070000000  0.5851540000000 1.0
C      1  0.4799210000000  0.5619350000000  0.4661230000000 1.0
C      1  0.4528450000000  0.5249570000000  0.4120780000000 1.0
C      1  0.5478590000000  0.4664420000000  0.4751820000000 1.0
C      1  0.4633770000000  0.5234100000000  0.4376520000000 1.0
C      1  0.4400590000000  0.4838000000000  0.4832820000000 1.0
C      1  0.5454180000000  0.4969980000000  0.4616070000000 1.0
C      1  0.4192670000000  0.4804390000000  0.5074980000000 1.0
C      1  0.5049340000000  0.5081120000000  0.5255220000000 1.0
C      1  0.5569040000000  0.5065340000000  0.5414070000000 1.0
C      1  0.5042030000000  0.4964480000000  0.5574020000000 1.0
C      1  0.4383030000000  0.5434520000000  0.4809180000000 1.0
C      1  0.4741190000000  0.5664960000000  0.4968330000000 1.0
C      1  0.5007500000000  0.4854960000000  0.4802230000000 1.0
C      1  0.4976400000000  0.4617080000000  0.4427880000000 1.0
C      1  0.5567110000000  0.5616840000000  0.5029740000000 1.0
C      1  0.4737290000000  0.4316000000000  0.4769490000000 1.0
C      1  0.5363610000000  0.5379420000000  0.4896210000000 1.0
C      1  0.4600610000000  0.5236030000000  0.5255680000000 1.0
C      1  0.5574550000000  0.4722760000000  0.5052550000000 1.0
C      1  0.5188120000000  0.4673040000000  0.4624000000000 1.0
C      1  0.5494050000000  0.4367950000000  0.4892750000000 1.0
C      1  0.4896110000000  0.5137220000000  0.4741240000000 1.0
C      1  0.5424150000000  0.5082720000000  0.4910350000000 1.0
C      1  0.4823970000000  0.4461390000000  0.5387560000000 1.0
C      1  0.4524960000000  0.5059570000000  0.4614870000000 1.0
C      1  0.5606840000000  0.5524640000000  0.5504370000000 1.0
C      1  0.4795120000000  0.4427940000000  0.5050420000000 1.0
C      1  0.5205740000000  0.4875650000000  0.5069170000000 1.0
C      1  0.5453120000000  0.5289460000000  0.5531400000000 1.0
END
