TITL C-1154804-8633-423 0.0010317441581886 125000 -322.538921633275 0 0 60 (C1) n - 1
REM
REM in /home/nfs/bkarasulu/CARBON/AIRSS/Generating-Clusters/AIREBO/Higher-Symm/Only-C60
REM
REM
REM
REM
REM
REM ./C.cell (28575a23ae977d3b5fae324c64b13b57)
REM
REM compiler GCC version 9.2.1 20190827 (Red Hat 9.2.1-1)
REM options -cpp -mtune=generic -march=x86-64 -g -O0 -fpre-include=/usr/include/finclude/math-vector-fortran.h
REM seed 352900520 -922982816 885141111 -146757763 -2108714927 12938213 -1668509796 295717472 -2113367771 506861013 -1029020719 -1967261296 -376908548 997486998 -306978574 87625045 -314129452 867964132 -10651453 -1253872324 461098681 -612521333 958062552 1756082294 -2057287600 -110173503 -1766346439 -878736061 -337619495 -516897812 1476557602 -377074800 -1698968185
REM
CELL 1.54180   50.00000   50.00000   50.00000   90.00000   90.00000   90.00000
LATT -1
SFAC C  
C      1  0.5682120000000  0.5221710000000  0.4825890000000 1.0
C      1  0.5619440000000  0.4972760000000  0.4600070000000 1.0
C      1  0.5569540000000  0.4696470000000  0.4795360000000 1.0
C      1  0.5696490000000  0.4646680000000  0.5094090000000 1.0
C      1  0.5593980000000  0.4689770000000  0.5317710000000 1.0
C      1  0.5505610000000  0.5308830000000  0.5287580000000 1.0
C      1  0.5523900000000  0.5381560000000  0.5027110000000 1.0
C      1  0.4686580000000  0.4785570000000  0.4543240000000 1.0
C      1  0.4697120000000  0.4254420000000  0.4957990000000 1.0
C      1  0.4786820000000  0.4582810000000  0.5331010000000 1.0
C      1  0.4713410000000  0.5111570000000  0.5538640000000 1.0
C      1  0.4840280000000  0.5552850000000  0.5271920000000 1.0
C      1  0.4753840000000  0.5566440000000  0.4790960000000 1.0
C      1  0.4733400000000  0.5161420000000  0.4413260000000 1.0
C      1  0.4439620000000  0.5406940000000  0.5054480000000 1.0
C      1  0.4432240000000  0.5330030000000  0.4781580000000 1.0
C      1  0.4592000000000  0.5070580000000  0.4702790000000 1.0
C      1  0.4490810000000  0.4528440000000  0.4938390000000 1.0
C      1  0.4577990000000  0.4762950000000  0.5131980000000 1.0
C      1  0.4474650000000  0.4950860000000  0.5381910000000 1.0
C      1  0.4437250000000  0.5261230000000  0.5293120000000 1.0
C      1  0.4601470000000  0.5416810000000  0.5520140000000 1.0
C      1  0.4591740000000  0.5676310000000  0.5105140000000 1.0
C      1  0.4518800000000  0.5550880000000  0.4578950000000 1.0
C      1  0.4639450000000  0.5010160000000  0.4123230000000 1.0
C      1  0.4633190000000  0.4512110000000  0.4664780000000 1.0
C      1  0.4717810000000  0.4092170000000  0.5214910000000 1.0
C      1  0.4487920000000  0.4630740000000  0.5495710000000 1.0
C      1  0.4881540000000  0.4535810000000  0.5007810000000 1.0
C      1  0.5000540000000  0.4738660000000  0.5494450000000 1.0
C      1  0.4997260000000  0.5056070000000  0.5382280000000 1.0
C      1  0.5007860000000  0.5418370000000  0.5071000000000 1.0
C      1  0.4957170000000  0.5326040000000  0.4749320000000 1.0
C      1  0.4998720000000  0.5032520000000  0.4582650000000 1.0
C      1  0.4941850000000  0.4747430000000  0.4760070000000 1.0
C      1  0.4917560000000  0.5477070000000  0.5567800000000 1.0
C      1  0.4870480000000  0.5801300000000  0.4961260000000 1.0
C      1  0.4754660000000  0.5459580000000  0.4406380000000 1.0
C      1  0.4793450000000  0.4799520000000  0.4260600000000 1.0
C      1  0.4873930000000  0.4318360000000  0.4674700000000 1.0
C      1  0.4848530000000  0.4254650000000  0.5395100000000 1.0
C      1  0.4764930000000  0.4980550000000  0.5818930000000 1.0
C      1  0.5316640000000  0.4820750000000  0.5419440000000 1.0
C      1  0.5313220000000  0.5144410000000  0.5469410000000 1.0
C      1  0.5284480000000  0.5520590000000  0.4911740000000 1.0
C      1  0.5244650000000  0.5431350000000  0.4601450000000 1.0
C      1  0.5328970000000  0.5113220000000  0.4632110000000 1.0
C      1  0.5242830000000  0.4656700000000  0.4889910000000 1.0
C      1  0.5226760000000  0.4578180000000  0.5206730000000 1.0
C      1  0.5138970000000  0.5802020000000  0.4977810000000 1.0
C      1  0.5012590000000  0.5548450000000  0.4400230000000 1.0
C      1  0.5073590000000  0.4870250000000  0.4293260000000 1.0
C      1  0.5136380000000  0.4391620000000  0.4705360000000 1.0
C      1  0.5118630000000  0.4359980000000  0.5319980000000 1.0
C      1  0.4918920000000  0.4775790000000  0.5794550000000 1.0
C      1  0.5131830000000  0.5342360000000  0.5648470000000 1.0
C      1  0.4978100000000  0.5100440000000  0.5078200000000 1.0
C      1  0.5208350000000  0.4993030000000  0.4926400000000 1.0
C      1  0.4713780000000  0.4991950000000  0.4976160000000 1.0
C      1  0.5526800000000  0.4985990000000  0.4968430000000 1.0
END
