TITL C-1154816-9297-8 0.000345439174902536 125000 -315.913934764784 0 0 60 (C1) n - 1
REM
REM in /home/nfs/bkarasulu/CARBON/AIRSS/Generating-Clusters/AIREBO/Higher-Symm/Only-C60
REM
REM
REM
REM
REM
REM ./C.cell (28575a23ae977d3b5fae324c64b13b57)
REM
REM compiler GCC version 9.2.1 20190827 (Red Hat 9.2.1-1)
REM options -cpp -mtune=generic -march=x86-64 -g -O0 -fpre-include=/usr/include/finclude/math-vector-fortran.h
REM seed 2133730366 -1059007306 -22955479 1058188626 1785429497 -1401893230 2130391356 -1289419091 1590209477 -1563165183 -1253511508 -1695128075 -1831498279 -1309908478 1116183575 802972778 -400578073 -1241005207 2036744011 424432483 -1749008388 831307559 -1074863595 879439844 -669332429 -2037468075 1406282009 1711613309 -1978432459 -699237678 -2046707 1350980209 1069450963
REM
CELL 1.54180   50.00000   50.00000   50.00000   90.00000   90.00000   90.00000
LATT -1
SFAC C  
C      1  0.4854030000000  0.5139470000000  0.4505290000000 1.0
C      1  0.5136660000000  0.4861430000000  0.4495520000000 1.0
C      1  0.5190690000000  0.5195630000000  0.4523200000000 1.0
C      1  0.4816420000000  0.4801650000000  0.4519910000000 1.0
C      1  0.4518240000000  0.4846940000000  0.5625440000000 1.0
C      1  0.5532110000000  0.5156160000000  0.5583790000000 1.0
C      1  0.5531220000000  0.4901810000000  0.5595030000000 1.0
C      1  0.4451290000000  0.5114480000000  0.5588220000000 1.0
C      1  0.5629860000000  0.5316940000000  0.5219750000000 1.0
C      1  0.4374670000000  0.4678040000000  0.5224980000000 1.0
C      1  0.4408270000000  0.5292820000000  0.5132750000000 1.0
C      1  0.5575890000000  0.4697500000000  0.5142870000000 1.0
C      1  0.5449730000000  0.5602350000000  0.5178490000000 1.0
C      1  0.4558280000000  0.4396190000000  0.5175460000000 1.0
C      1  0.4503130000000  0.5619300000000  0.5128520000000 1.0
C      1  0.5497420000000  0.4367550000000  0.5118820000000 1.0
C      1  0.4907200000000  0.5467660000000  0.4449850000000 1.0
C      1  0.5097890000000  0.4528380000000  0.4442090000000 1.0
C      1  0.5222990000000  0.5514540000000  0.4429790000000 1.0
C      1  0.4774950000000  0.4484990000000  0.4423020000000 1.0
C      1  0.4815400000000  0.5532610000000  0.5248820000000 1.0
C      1  0.5196550000000  0.4486290000000  0.5238970000000 1.0
C      1  0.5122650000000  0.5585090000000  0.5269830000000 1.0
C      1  0.4888860000000  0.4422970000000  0.5250490000000 1.0
C      1  0.5169610000000  0.5309530000000  0.4912790000000 1.0
C      1  0.4831240000000  0.4687070000000  0.4912010000000 1.0
C      1  0.4857110000000  0.5265100000000  0.4918010000000 1.0
C      1  0.5142220000000  0.4729870000000  0.4920100000000 1.0
C      1  0.5141260000000  0.5714360000000  0.4656880000000 1.0
C      1  0.4859250000000  0.4284160000000  0.4647020000000 1.0
C      1  0.4838620000000  0.5692510000000  0.4655680000000 1.0
C      1  0.5160530000000  0.4304790000000  0.4649310000000 1.0
C      1  0.5670690000000  0.5069020000000  0.4580490000000 1.0
C      1  0.4332480000000  0.4928330000000  0.4576440000000 1.0
C      1  0.4346260000000  0.5181760000000  0.4558910000000 1.0
C      1  0.5651420000000  0.4816460000000  0.4556260000000 1.0
C      1  0.5136020000000  0.4880490000000  0.5647760000000 1.0
C      1  0.4843250000000  0.5145550000000  0.5656540000000 1.0
C      1  0.4836440000000  0.4804030000000  0.5698170000000 1.0
C      1  0.5141250000000  0.5187170000000  0.5654770000000 1.0
C      1  0.4568550000000  0.4805540000000  0.4731310000000 1.0
C      1  0.5433690000000  0.5191610000000  0.4733740000000 1.0
C      1  0.5372800000000  0.4701610000000  0.4671470000000 1.0
C      1  0.4622490000000  0.5300400000000  0.4674110000000 1.0
C      1  0.5241330000000  0.4410580000000  0.4910500000000 1.0
C      1  0.4759350000000  0.5585010000000  0.4917560000000 1.0
C      1  0.4778670000000  0.4370580000000  0.4923920000000 1.0
C      1  0.5219940000000  0.5624700000000  0.4935200000000 1.0
C      1  0.4444450000000  0.4587300000000  0.4915080000000 1.0
C      1  0.5555790000000  0.5411680000000  0.4914370000000 1.0
C      1  0.5607450000000  0.4554220000000  0.4851490000000 1.0
C      1  0.4390930000000  0.5451410000000  0.4849150000000 1.0
C      1  0.4683670000000  0.5121100000000  0.5137250000000 1.0
C      1  0.5309060000000  0.4873510000000  0.5141550000000 1.0
C      1  0.5335290000000  0.5166590000000  0.5140630000000 1.0
C      1  0.4668360000000  0.4828130000000  0.5142200000000 1.0
C      1  0.4682350000000  0.5279290000000  0.5421560000000 1.0
C      1  0.5303970000000  0.4729990000000  0.5433760000000 1.0
C      1  0.5289300000000  0.5330890000000  0.5422650000000 1.0
C      1  0.4720540000000  0.4664850000000  0.5420490000000 1.0
END
