TITL C-1154828-9214-668 -0.00233713601010122 125000 -299.596941736573 0 0 60 (C1) n - 1
REM
REM in /home/nfs/bkarasulu/CARBON/AIRSS/Generating-Clusters/AIREBO/Higher-Symm/Only-C60
REM
REM
REM
REM
REM
REM ./C.cell (28575a23ae977d3b5fae324c64b13b57)
REM
REM compiler GCC version 9.2.1 20190827 (Red Hat 9.2.1-1)
REM options -cpp -mtune=generic -march=x86-64 -g -O0 -fpre-include=/usr/include/finclude/math-vector-fortran.h
REM seed 590493696 1870961080 -1914882740 -1574866340 1803283485 -1645485694 1791567338 -1564635749 337018450 1179158891 -1376116913 -941045354 -594828676 -84757822 -1548761921 -194223530 -1200454184 -825732123 1409198074 -1617960589 -224531793 890438447 1945068085 869872500 632936246 -526920058 1956893013 1055721383 1186929544 1984754748 -453050335 -2070270318 1350962248
REM
CELL 1.54180   50.00000   50.00000   50.00000   90.00000   90.00000   90.00000
LATT -1
SFAC C  
C      1  0.5200420000000  0.4557210000000  0.5255230000000 1.0
C      1  0.4874190000000  0.4505030000000  0.5287930000000 1.0
C      1  0.4662350000000  0.4570840000000  0.5052680000000 1.0
C      1  0.4806420000000  0.4526150000000  0.4752790000000 1.0
C      1  0.5121090000000  0.4575300000000  0.4680820000000 1.0
C      1  0.5306920000000  0.4522430000000  0.4955200000000 1.0
C      1  0.4800050000000  0.5429340000000  0.5253230000000 1.0
C      1  0.5122670000000  0.5494250000000  0.5283910000000 1.0
C      1  0.5327850000000  0.5440660000000  0.5041850000000 1.0
C      1  0.5191850000000  0.5477580000000  0.4740690000000 1.0
C      1  0.4875180000000  0.5419810000000  0.4697120000000 1.0
C      1  0.4679510000000  0.5476870000000  0.4959910000000 1.0
C      1  0.4968890000000  0.4712410000000  0.5540260000000 1.0
C      1  0.4529130000000  0.4699740000000  0.5327070000000 1.0
C      1  0.4546100000000  0.4740970000000  0.4711280000000 1.0
C      1  0.4952950000000  0.4704110000000  0.4427920000000 1.0
C      1  0.5476210000000  0.4740360000000  0.4756560000000 1.0
C      1  0.5488830000000  0.4718890000000  0.5251080000000 1.0
C      1  0.5037550000000  0.5287700000000  0.5540310000000 1.0
C      1  0.5463580000000  0.5289570000000  0.5304850000000 1.0
C      1  0.5481730000000  0.5304310000000  0.4700030000000 1.0
C      1  0.5025520000000  0.5249330000000  0.4459630000000 1.0
C      1  0.4495400000000  0.5302850000000  0.4732990000000 1.0
C      1  0.4523820000000  0.5253320000000  0.5251050000000 1.0
C      1  0.5366760000000  0.4783810000000  0.4443950000000 1.0
C      1  0.5771040000000  0.4778820000000  0.5065030000000 1.0
C      1  0.5296470000000  0.4731430000000  0.5601450000000 1.0
C      1  0.4590140000000  0.4764920000000  0.5657650000000 1.0
C      1  0.4335990000000  0.4785670000000  0.4967510000000 1.0
C      1  0.4642130000000  0.4770080000000  0.4298740000000 1.0
C      1  0.4628050000000  0.5269000000000  0.4422000000000 1.0
C      1  0.4270410000000  0.5172590000000  0.5036980000000 1.0
C      1  0.4709120000000  0.5263870000000  0.5605160000000 1.0
C      1  0.5420760000000  0.5229610000000  0.5638970000000 1.0
C      1  0.5683750000000  0.5273930000000  0.4971630000000 1.0
C      1  0.5340030000000  0.5170400000000  0.4350840000000 1.0
C      1  0.4656760000000  0.4463320000000  0.5542830000000 1.0
C      1  0.4399970000000  0.4468840000000  0.4861970000000 1.0
C      1  0.4697210000000  0.4474840000000  0.4436610000000 1.0
C      1  0.5418450000000  0.4467090000000  0.4556410000000 1.0
C      1  0.5629760000000  0.4482310000000  0.5042200000000 1.0
C      1  0.5156960000000  0.4423530000000  0.5564840000000 1.0
C      1  0.5353610000000  0.5531110000000  0.5526900000000 1.0
C      1  0.5585660000000  0.5584130000000  0.4872820000000 1.0
C      1  0.5273750000000  0.5485730000000  0.4411640000000 1.0
C      1  0.4608040000000  0.5579190000000  0.4559800000000 1.0
C      1  0.4355830000000  0.5488200000000  0.5058100000000 1.0
C      1  0.4842830000000  0.5572970000000  0.5558450000000 1.0
C      1  0.4835620000000  0.4972880000000  0.5678300000000 1.0
C      1  0.4300140000000  0.4922960000000  0.5254480000000 1.0
C      1  0.4508560000000  0.4976720000000  0.4504820000000 1.0
C      1  0.5139100000000  0.4920170000000  0.4264890000000 1.0
C      1  0.5667520000000  0.4978550000000  0.4834430000000 1.0
C      1  0.5518510000000  0.4941830000000  0.5492580000000 1.0
C      1  0.5174840000000  0.5024560000000  0.5679450000000 1.0
C      1  0.5686920000000  0.5064360000000  0.5223840000000 1.0
C      1  0.5582110000000  0.5039920000000  0.4515100000000 1.0
C      1  0.4829070000000  0.5052710000000  0.4279560000000 1.0
C      1  0.4284240000000  0.5040410000000  0.4745530000000 1.0
C      1  0.4481710000000  0.5050530000000  0.5510140000000 1.0
END
