TITL C-1154824-75-16 0.00149921242589198 125000 -312.599498940758 0 0 60 (C1) n - 1
REM
REM in /home/nfs/bkarasulu/CARBON/AIRSS/Generating-Clusters/AIREBO/Higher-Symm/Only-C60
REM
REM
REM
REM
REM
REM ./C.cell (28575a23ae977d3b5fae324c64b13b57)
REM
REM compiler GCC version 9.2.1 20190827 (Red Hat 9.2.1-1)
REM options -cpp -mtune=generic -march=x86-64 -g -O0 -fpre-include=/usr/include/finclude/math-vector-fortran.h
REM seed 1216164787 403953292 896579285 -2033739739 -1534854229 1001677048 -1630126347 -5590721 -985939954 -1734491671 -805746532 890713173 -1079760153 1422832580 -101240938 -1184939567 -996874731 -563133520 -1975103112 -1981277564 -648544097 1897996266 -642880396 -767880429 1438541686 363312172 -1229122509 -1933409587 1281678979 816564882 1912099413 485507674 2085506618
REM
CELL 1.54180   50.00000   50.00000   50.00000   90.00000   90.00000   90.00000
LATT -1
SFAC C  
C      1  0.4685490000000  0.4814830000000  0.5308180000000 1.0
C      1  0.5331200000000  0.4820210000000  0.5394410000000 1.0
C      1  0.5323890000000  0.4826590000000  0.4621320000000 1.0
C      1  0.4589070000000  0.4869600000000  0.4664670000000 1.0
C      1  0.4684740000000  0.5110110000000  0.5299230000000 1.0
C      1  0.5303010000000  0.5114290000000  0.5334950000000 1.0
C      1  0.5305520000000  0.5119140000000  0.4656630000000 1.0
C      1  0.4638850000000  0.5159020000000  0.4681310000000 1.0
C      1  0.5714280000000  0.5234700000000  0.5060600000000 1.0
C      1  0.5044590000000  0.5323490000000  0.4257590000000 1.0
C      1  0.4263820000000  0.5405420000000  0.4959570000000 1.0
C      1  0.4933660000000  0.5299400000000  0.5714520000000 1.0
C      1  0.5665150000000  0.4572440000000  0.5027740000000 1.0
C      1  0.5084300000000  0.4682940000000  0.4137760000000 1.0
C      1  0.4388060000000  0.4492850000000  0.4887060000000 1.0
C      1  0.4909180000000  0.4662200000000  0.5778250000000 1.0
C      1  0.4534870000000  0.5271050000000  0.4395610000000 1.0
C      1  0.4408330000000  0.5203170000000  0.5434690000000 1.0
C      1  0.5451920000000  0.5259900000000  0.5586620000000 1.0
C      1  0.5590590000000  0.5227820000000  0.4549030000000 1.0
C      1  0.4548940000000  0.4789840000000  0.4395240000000 1.0
C      1  0.4389300000000  0.4723880000000  0.5390190000000 1.0
C      1  0.5451130000000  0.4794290000000  0.5679380000000 1.0
C      1  0.5622200000000  0.4750920000000  0.4599490000000 1.0
C      1  0.5619620000000  0.5510850000000  0.4583280000000 1.0
C      1  0.4581640000000  0.5553720000000  0.4367790000000 1.0
C      1  0.4381230000000  0.5490480000000  0.5442580000000 1.0
C      1  0.5430460000000  0.5543850000000  0.5581610000000 1.0
C      1  0.5641340000000  0.4470400000000  0.4631350000000 1.0
C      1  0.4631870000000  0.4517450000000  0.4376980000000 1.0
C      1  0.4348700000000  0.4441200000000  0.5356550000000 1.0
C      1  0.5392610000000  0.4534460000000  0.5774420000000 1.0
C      1  0.5142980000000  0.4692100000000  0.4384000000000 1.0
C      1  0.4602600000000  0.4659800000000  0.4840500000000 1.0
C      1  0.4881680000000  0.4680600000000  0.5525690000000 1.0
C      1  0.5465320000000  0.4615430000000  0.5177300000000 1.0
C      1  0.5069890000000  0.5270880000000  0.4507820000000 1.0
C      1  0.4501410000000  0.5320800000000  0.4914730000000 1.0
C      1  0.4920470000000  0.5255870000000  0.5460250000000 1.0
C      1  0.5456980000000  0.5221290000000  0.5076990000000 1.0
C      1  0.5397060000000  0.4342840000000  0.4681530000000 1.0
C      1  0.4784690000000  0.4412110000000  0.4586270000000 1.0
C      1  0.4561440000000  0.4294220000000  0.5270200000000 1.0
C      1  0.5241150000000  0.4378380000000  0.5598640000000 1.0
C      1  0.5428830000000  0.5637040000000  0.4731230000000 1.0
C      1  0.4738570000000  0.5672180000000  0.4557770000000 1.0
C      1  0.4563380000000  0.5637800000000  0.5300790000000 1.0
C      1  0.5280530000000  0.5653800000000  0.5383770000000 1.0
C      1  0.4819870000000  0.5390910000000  0.5163220000000 1.0
C      1  0.5159630000000  0.5368650000000  0.5160620000000 1.0
C      1  0.5161210000000  0.5380150000000  0.4819940000000 1.0
C      1  0.4819990000000  0.5409900000000  0.4822260000000 1.0
C      1  0.4853580000000  0.4533890000000  0.5216390000000 1.0
C      1  0.5177990000000  0.4523540000000  0.5317740000000 1.0
C      1  0.5146410000000  0.4546020000000  0.4687530000000 1.0
C      1  0.4897690000000  0.4536700000000  0.4882180000000 1.0
C      1  0.5538660000000  0.5051460000000  0.5760580000000 1.0
C      1  0.5755010000000  0.4992850000000  0.4521100000000 1.0
C      1  0.4257360000000  0.4963160000000  0.5477790000000 1.0
C      1  0.4486030000000  0.5027430000000  0.4244530000000 1.0
END
