TITL C-1154810-7815-645 1.53036241117416 125000 -314.898776463252 0 0 60 (C1) n - 1
REM
REM in /home/nfs/bkarasulu/CARBON/AIRSS/Generating-Clusters/AIREBO/Higher-Symm/Only-C60
REM
REM
REM
REM
REM
REM ./C.cell (28575a23ae977d3b5fae324c64b13b57)
REM
REM compiler GCC version 9.2.1 20190827 (Red Hat 9.2.1-1)
REM options -cpp -mtune=generic -march=x86-64 -g -O0 -fpre-include=/usr/include/finclude/math-vector-fortran.h
REM seed 349625621 -152313344 -1858791110 -870173124 1438393196 -2000913875 -399541078 -1358452258 -1478828446 -1537207406 -2067556614 -231420718 -388050118 643939084 966350452 1124740708 -1999375458 -139252867 602517539 -1823118923 1003033136 1299169515 188010729 -1962093259 344222136 1300631625 -210964560 -1057122785 2040067372 -815294855 -362233527 -1284295136 -1420351297
REM
CELL 1.54180   50.00000   50.00000   50.00000   90.00000   90.00000   90.00000
LATT -1
SFAC C  
C      1  0.5421920000000  0.5344540000000  0.4423220000000 1.0
C      1  0.4997980000000  0.5531100000000  0.4592960000000 1.0
C      1  0.4551440000000  0.5068850000000  0.4463380000000 1.0
C      1  0.4444670000000  0.4494060000000  0.4499170000000 1.0
C      1  0.5391080000000  0.4624100000000  0.4472650000000 1.0
C      1  0.5649130000000  0.5247410000000  0.4657910000000 1.0
C      1  0.5090440000000  0.5646090000000  0.4830970000000 1.0
C      1  0.4525540000000  0.5229470000000  0.4737660000000 1.0
C      1  0.4329700000000  0.4387600000000  0.4724860000000 1.0
C      1  0.5207750000000  0.4449680000000  0.4639160000000 1.0
C      1  0.5441920000000  0.5018080000000  0.4516160000000 1.0
C      1  0.5176160000000  0.5542690000000  0.4378250000000 1.0
C      1  0.4505630000000  0.5198640000000  0.4227540000000 1.0
C      1  0.4557830000000  0.4729120000000  0.4476550000000 1.0
C      1  0.5565390000000  0.4618750000000  0.4269920000000 1.0
C      1  0.5321620000000  0.5430570000000  0.4944590000000 1.0
C      1  0.4771170000000  0.5380020000000  0.4885560000000 1.0
C      1  0.4571060000000  0.4900760000000  0.4958360000000 1.0
C      1  0.4904220000000  0.4519130000000  0.5043230000000 1.0
C      1  0.5459170000000  0.4781380000000  0.4997570000000 1.0
C      1  0.5732580000000  0.4383730000000  0.5147760000000 1.0
C      1  0.5551690000000  0.5679220000000  0.4913910000000 1.0
C      1  0.4678590000000  0.5707100000000  0.4893680000000 1.0
C      1  0.4263180000000  0.4993180000000  0.4840660000000 1.0
C      1  0.4628990000000  0.4180340000000  0.5283680000000 1.0
C      1  0.4633190000000  0.4385210000000  0.5099870000000 1.0
C      1  0.5524500000000  0.4482860000000  0.5001220000000 1.0
C      1  0.5691660000000  0.5446980000000  0.5088360000000 1.0
C      1  0.4815210000000  0.5711850000000  0.5188380000000 1.0
C      1  0.4278550000000  0.5074630000000  0.5168160000000 1.0
C      1  0.4758490000000  0.4908930000000  0.4684030000000 1.0
C      1  0.4987760000000  0.4682170000000  0.4755450000000 1.0
C      1  0.5299910000000  0.4822290000000  0.4733590000000 1.0
C      1  0.5245550000000  0.5234140000000  0.4692140000000 1.0
C      1  0.4924640000000  0.5204220000000  0.4651050000000 1.0
C      1  0.5101360000000  0.5705050000000  0.5134080000000 1.0
C      1  0.4394060000000  0.5318690000000  0.5031870000000 1.0
C      1  0.4397890000000  0.4473710000000  0.4983000000000 1.0
C      1  0.5321120000000  0.4330170000000  0.4876680000000 1.0
C      1  0.5725560000000  0.5217950000000  0.4925310000000 1.0
C      1  0.5207770000000  0.5160000000000  0.5486370000000 1.0
C      1  0.4877560000000  0.5203060000000  0.5476450000000 1.0
C      1  0.4733150000000  0.4898590000000  0.5521860000000 1.0
C      1  0.4956740000000  0.4648980000000  0.5567700000000 1.0
C      1  0.5255210000000  0.4823460000000  0.5524780000000 1.0
C      1  0.4977410000000  0.4740520000000  0.5249280000000 1.0
C      1  0.5261370000000  0.4888950000000  0.5199450000000 1.0
C      1  0.5193080000000  0.5211710000000  0.5160830000000 1.0
C      1  0.4868190000000  0.5250580000000  0.5144620000000 1.0
C      1  0.4745310000000  0.4960150000000  0.5190010000000 1.0
C      1  0.5253230000000  0.5101310000000  0.5811720000000 1.0
C      1  0.4981110000000  0.5257970000000  0.5798330000000 1.0
C      1  0.4751550000000  0.5053040000000  0.5823650000000 1.0
C      1  0.4880070000000  0.4777370000000  0.5872450000000 1.0
C      1  0.5183720000000  0.4806670000000  0.5855150000000 1.0
C      1  0.4511280000000  0.5558860000000  0.5129520000000 1.0
C      1  0.4292610000000  0.4744400000000  0.5069650000000 1.0
C      1  0.5103400000000  0.4272670000000  0.5048840000000 1.0
C      1  0.5720770000000  0.4951480000000  0.5013740000000 1.0
C      1  0.5408180000000  0.5605780000000  0.5223030000000 1.0
END
