TITL C-1154827-9204-494 -0.000688526504231281 125000 -310.535536440067 0 0 60 (C3) n - 1
REM
REM in /home/nfs/bkarasulu/CARBON/AIRSS/Generating-Clusters/AIREBO/Higher-Symm/Only-C60
REM
REM
REM
REM
REM
REM ./C.cell (28575a23ae977d3b5fae324c64b13b57)
REM
REM compiler GCC version 9.2.1 20190827 (Red Hat 9.2.1-1)
REM options -cpp -mtune=generic -march=x86-64 -g -O0 -fpre-include=/usr/include/finclude/math-vector-fortran.h
REM seed -963849609 -742559252 -1510783068 2049869867 -1702166928 -1192768332 172390720 -240748946 239274262 -379709462 -533190959 962018294 -424548974 -295554681 -494333725 -28860225 -15203433 -1198784840 278744356 -2135608128 -1244850513 662153497 -583875174 319781492 343477719 -1245557088 1565484824 -73451180 1979051043 -1754199955 193296535 1775373924 -655044285
REM
CELL 1.54180   50.00000   50.00000   50.00000   90.00000   90.00000   90.00000
LATT -1
SFAC C  
C      1  0.4558660000000  0.5005040000000  0.4749970000000 1.0
C      1  0.4999010000000  0.4749020000000  0.4562900000000 1.0
C      1  0.4753670000000  0.4562570000000  0.4999620000000 1.0
C      1  0.4565430000000  0.4996450000000  0.5250540000000 1.0
C      1  0.5441830000000  0.5001120000000  0.5253690000000 1.0
C      1  0.5436230000000  0.4992500000000  0.4753010000000 1.0
C      1  0.5001380000000  0.5246470000000  0.5438760000000 1.0
C      1  0.5004490000000  0.4747940000000  0.5443660000000 1.0
C      1  0.4997600000000  0.5248090000000  0.4558520000000 1.0
C      1  0.4751920000000  0.5439410000000  0.4998890000000 1.0
C      1  0.5253160000000  0.4557820000000  0.5007460000000 1.0
C      1  0.5251400000000  0.5435000000000  0.4997520000000 1.0
C      1  0.4585940000000  0.4805800000000  0.4981020000000 1.0
C      1  0.4990680000000  0.4581140000000  0.4806490000000 1.0
C      1  0.4799640000000  0.4980070000000  0.4573340000000 1.0
C      1  0.4575910000000  0.5198330000000  0.5022040000000 1.0
C      1  0.5420210000000  0.5192710000000  0.4983360000000 1.0
C      1  0.5423070000000  0.4800090000000  0.5024340000000 1.0
C      1  0.4987020000000  0.5411910000000  0.5193700000000 1.0
C      1  0.5019220000000  0.5423460000000  0.4800260000000 1.0
C      1  0.5017110000000  0.4578700000000  0.5200590000000 1.0
C      1  0.4806440000000  0.5011440000000  0.5421010000000 1.0
C      1  0.5192990000000  0.5013480000000  0.4585530000000 1.0
C      1  0.5200360000000  0.4982540000000  0.5424840000000 1.0
C      1  0.5122850000000  0.5625150000000  0.5405840000000 1.0
C      1  0.5629310000000  0.5406730000000  0.5122420000000 1.0
C      1  0.5412390000000  0.5128000000000  0.5630960000000 1.0
C      1  0.5121660000000  0.4370300000000  0.4588200000000 1.0
C      1  0.4836010000000  0.5609730000000  0.4603110000000 1.0
C      1  0.4873010000000  0.4372300000000  0.5413520000000 1.0
C      1  0.5627230000000  0.4591670000000  0.4872120000000 1.0
C      1  0.4389920000000  0.5394540000000  0.4838160000000 1.0
C      1  0.4375810000000  0.4596210000000  0.5123880000000 1.0
C      1  0.5404170000000  0.4876780000000  0.4372400000000 1.0
C      1  0.4603490000000  0.5165140000000  0.4387650000000 1.0
C      1  0.4589240000000  0.4877400000000  0.5630610000000 1.0
C      1  0.5171990000000  0.5408870000000  0.5665790000000 1.0
C      1  0.5669150000000  0.5175630000000  0.5410610000000 1.0
C      1  0.5408790000000  0.5664020000000  0.5168610000000 1.0
C      1  0.5166330000000  0.4591500000000  0.4331440000000 1.0
C      1  0.4824790000000  0.4593850000000  0.5669540000000 1.0
C      1  0.4856200000000  0.5422190000000  0.4317730000000 1.0
C      1  0.5664370000000  0.4826590000000  0.4587940000000 1.0
C      1  0.4332990000000  0.4831320000000  0.5409030000000 1.0
C      1  0.4318420000000  0.5145410000000  0.4575260000000 1.0
C      1  0.5406870000000  0.4334590000000  0.4823740000000 1.0
C      1  0.4592820000000  0.4336810000000  0.5174150000000 1.0
C      1  0.4578550000000  0.5679420000000  0.4855470000000 1.0
C      1  0.5105090000000  0.4906710000000  0.4212350000000 1.0
C      1  0.4901800000000  0.4209090000000  0.5110120000000 1.0
C      1  0.4892770000000  0.4903390000000  0.5793790000000 1.0
C      1  0.4897910000000  0.5793210000000  0.4887740000000 1.0
C      1  0.5098350000000  0.4208340000000  0.4892680000000 1.0
C      1  0.5094330000000  0.5784950000000  0.5106440000000 1.0
C      1  0.4214190000000  0.4894330000000  0.5092450000000 1.0
C      1  0.4887830000000  0.5102690000000  0.4204080000000 1.0
C      1  0.4205680000000  0.5114740000000  0.4899030000000 1.0
C      1  0.5792230000000  0.5108740000000  0.5096470000000 1.0
C      1  0.5791170000000  0.4888760000000  0.4901870000000 1.0
C      1  0.5108920000000  0.5099810000000  0.5793750000000 1.0
END
