TITL C-1154824-75-31 21.6632814704788 125000 -323.06970740857 0 0 60 (C1) n - 1
REM
REM in /home/nfs/bkarasulu/CARBON/AIRSS/Generating-Clusters/AIREBO/Higher-Symm/Only-C60
REM
REM
REM
REM
REM
REM ./C.cell (28575a23ae977d3b5fae324c64b13b57)
REM
REM compiler GCC version 9.2.1 20190827 (Red Hat 9.2.1-1)
REM options -cpp -mtune=generic -march=x86-64 -g -O0 -fpre-include=/usr/include/finclude/math-vector-fortran.h
REM seed 367094695 1342732778 2117848277 1900429410 304291181 354370427 -2100336689 1066385824 -396494373 -1054019475 -591980721 984135627 -1114845742 754220941 930866564 1764908773 1778183473 -1800781550 1205932246 -1856080686 -1288711486 -189940964 -481601297 -1423270885 -1537058333 -692632767 -1009253617 -950100767 1140379531 403354245 -56834292 -765181733 1121351536
REM
CELL 1.54180   50.00000   50.00000   50.00000   90.00000   90.00000   90.00000
LATT -1
SFAC C  
C      1  0.4528110000000  0.4875100000000  0.4717000000000 1.0
C      1  0.5453370000000  0.5306780000000  0.5572110000000 1.0
C      1  0.4255230000000  0.4909050000000  0.4560380000000 1.0
C      1  0.5432110000000  0.4993610000000  0.4762960000000 1.0
C      1  0.4707040000000  0.5178220000000  0.4531190000000 1.0
C      1  0.5190430000000  0.5631000000000  0.5024130000000 1.0
C      1  0.4978880000000  0.5260980000000  0.4688660000000 1.0
C      1  0.4379300000000  0.4507060000000  0.5032170000000 1.0
C      1  0.5108880000000  0.4954830000000  0.4664720000000 1.0
C      1  0.5358470000000  0.4456980000000  0.4802910000000 1.0
C      1  0.5242850000000  0.4571920000000  0.4565540000000 1.0
C      1  0.4990990000000  0.4206560000000  0.5369820000000 1.0
C      1  0.5379630000000  0.4791660000000  0.4422260000000 1.0
C      1  0.4562340000000  0.5160270000000  0.4903650000000 1.0
C      1  0.5128930000000  0.4522510000000  0.5355370000000 1.0
C      1  0.5199640000000  0.4851790000000  0.5402600000000 1.0
C      1  0.4884640000000  0.4607530000000  0.5576220000000 1.0
C      1  0.4957720000000  0.4589870000000  0.4603290000000 1.0
C      1  0.4548080000000  0.5264750000000  0.5569390000000 1.0
C      1  0.4876510000000  0.5538410000000  0.4520650000000 1.0
C      1  0.5570550000000  0.4810310000000  0.5264710000000 1.0
C      1  0.5506500000000  0.5236360000000  0.4964930000000 1.0
C      1  0.5009390000000  0.5201370000000  0.5436710000000 1.0
C      1  0.4739300000000  0.4433880000000  0.5344970000000 1.0
C      1  0.3969110000000  0.5317460000000  0.4402580000000 1.0
C      1  0.4845630000000  0.5598310000000  0.4853100000000 1.0
C      1  0.4767100000000  0.5615670000000  0.4259980000000 1.0
C      1  0.4542820000000  0.4579000000000  0.4816140000000 1.0
C      1  0.4484680000000  0.4578890000000  0.5282950000000 1.0
C      1  0.5005000000000  0.5402510000000  0.5162090000000 1.0
C      1  0.5007600000000  0.5499710000000  0.5542660000000 1.0
C      1  0.4177040000000  0.5190880000000  0.4505210000000 1.0
C      1  0.5615490000000  0.4549090000000  0.4869860000000 1.0
C      1  0.5793500000000  0.5136110000000  0.4857870000000 1.0
C      1  0.5805380000000  0.5105000000000  0.4604730000000 1.0
C      1  0.4691450000000  0.5419310000000  0.5082680000000 1.0
C      1  0.4513310000000  0.4859700000000  0.5320030000000 1.0
C      1  0.4901460000000  0.4350410000000  0.5074320000000 1.0
C      1  0.4791830000000  0.4853170000000  0.5683420000000 1.0
C      1  0.4999750000000  0.5038300000000  0.5693360000000 1.0
C      1  0.5595500000000  0.4811090000000  0.4980470000000 1.0
C      1  0.5054870000000  0.4800280000000  0.4933660000000 1.0
C      1  0.5277130000000  0.5525100000000  0.5641150000000 1.0
C      1  0.4797600000000  0.4460840000000  0.4795910000000 1.0
C      1  0.5001590000000  0.5002650000000  0.5170930000000 1.0
C      1  0.5151510000000  0.4533640000000  0.5016180000000 1.0
C      1  0.5148310000000  0.5619150000000  0.4686890000000 1.0
C      1  0.4555700000000  0.4973940000000  0.5575840000000 1.0
C      1  0.5166990000000  0.5214800000000  0.4962790000000 1.0
C      1  0.5472260000000  0.5052270000000  0.5440990000000 1.0
C      1  0.5466780000000  0.4555820000000  0.5375740000000 1.0
C      1  0.5254920000000  0.4903230000000  0.5734270000000 1.0
C      1  0.5462340000000  0.5538390000000  0.4908260000000 1.0
C      1  0.4705780000000  0.5458790000000  0.5420410000000 1.0
C      1  0.4680070000000  0.4994290000000  0.5136300000000 1.0
C      1  0.4810780000000  0.4863100000000  0.4528110000000 1.0
C      1  0.5385710000000  0.5385000000000  0.4614520000000 1.0
C      1  0.5513750000000  0.5106190000000  0.4464240000000 1.0
C      1  0.5159360000000  0.4987900000000  0.4329950000000 1.0
C      1  0.4439020000000  0.5259210000000  0.4616040000000 1.0
END
