TITL C-1154827-9204-212 0.00057629080262761 125000 -337.406470660504 0 0 60 (C1) n - 1
REM
REM in /home/nfs/bkarasulu/CARBON/AIRSS/Generating-Clusters/AIREBO/Higher-Symm/Only-C60
REM
REM
REM
REM
REM
REM ./C.cell (28575a23ae977d3b5fae324c64b13b57)
REM
REM compiler GCC version 9.2.1 20190827 (Red Hat 9.2.1-1)
REM options -cpp -mtune=generic -march=x86-64 -g -O0 -fpre-include=/usr/include/finclude/math-vector-fortran.h
REM seed -1802488465 -1737513067 -536125256 -1786623962 1370906282 479777555 -34401602 -1224988601 -1876861550 -1122038322 1949266025 2077285900 614590405 4266967 953347365 -1922162750 932606751 586792548 166700026 1124627500 69441363 -1369628593 -588210241 627854311 -632940976 -1858971064 723299491 -1371143154 1071421575 1960207267 -1717059253 2118914600 -1792940660
REM
CELL 1.54180   50.00000   50.00000   50.00000   90.00000   90.00000   90.00000
LATT -1
SFAC C  
C      1  0.4964620000000  0.4237660000000  0.4984540000000 1.0
C      1  0.4255920000000  0.5304830000000  0.5029030000000 1.0
C      1  0.5804820000000  0.5275750000000  0.4842170000000 1.0
C      1  0.4211250000000  0.5034130000000  0.5549800000000 1.0
C      1  0.5007200000000  0.5856400000000  0.5465670000000 1.0
C      1  0.5609310000000  0.4548210000000  0.5625410000000 1.0
C      1  0.4714280000000  0.4305670000000  0.5060620000000 1.0
C      1  0.4386770000000  0.5503840000000  0.5167880000000 1.0
C      1  0.5802270000000  0.5065250000000  0.5013520000000 1.0
C      1  0.4561690000000  0.4442730000000  0.5528650000000 1.0
C      1  0.4665130000000  0.5442310000000  0.5652160000000 1.0
C      1  0.5654430000000  0.5054440000000  0.5575450000000 1.0
C      1  0.5165050000000  0.5243010000000  0.5764880000000 1.0
C      1  0.5376320000000  0.5097300000000  0.5706580000000 1.0
C      1  0.4632010000000  0.4577440000000  0.5799340000000 1.0
C      1  0.5184950000000  0.4922720000000  0.5269040000000 1.0
C      1  0.4866060000000  0.4816670000000  0.5321940000000 1.0
C      1  0.4944330000000  0.5136340000000  0.5321650000000 1.0
C      1  0.4385210000000  0.4890660000000  0.5396220000000 1.0
C      1  0.4917440000000  0.5622350000000  0.5400510000000 1.0
C      1  0.5532590000000  0.4592840000000  0.5321170000000 1.0
C      1  0.4653610000000  0.5164620000000  0.4269990000000 1.0
C      1  0.5279070000000  0.5203870000000  0.4450710000000 1.0
C      1  0.5011520000000  0.4658160000000  0.4496330000000 1.0
C      1  0.5525080000000  0.4732010000000  0.4435990000000 1.0
C      1  0.4519090000000  0.4732530000000  0.4396150000000 1.0
C      1  0.4908940000000  0.5569800000000  0.4459120000000 1.0
C      1  0.5619500000000  0.5482690000000  0.4804460000000 1.0
C      1  0.5207180000000  0.4373480000000  0.5002320000000 1.0
C      1  0.4367150000000  0.5057740000000  0.4946070000000 1.0
C      1  0.4843110000000  0.5277210000000  0.5076610000000 1.0
C      1  0.5289880000000  0.4896030000000  0.4966110000000 1.0
C      1  0.4784710000000  0.4698820000000  0.5047800000000 1.0
C      1  0.4635550000000  0.4764570000000  0.5512360000000 1.0
C      1  0.4957460000000  0.5333460000000  0.5560590000000 1.0
C      1  0.5391890000000  0.4851130000000  0.5480870000000 1.0
C      1  0.4502230000000  0.5014850000000  0.4471060000000 1.0
C      1  0.5144850000000  0.5489620000000  0.4577050000000 1.0
C      1  0.5337680000000  0.4566610000000  0.4542850000000 1.0
C      1  0.5697130000000  0.5740840000000  0.4801960000000 1.0
C      1  0.5409280000000  0.4352010000000  0.5179300000000 1.0
C      1  0.4367830000000  0.4839690000000  0.5120850000000 1.0
C      1  0.5305730000000  0.5405590000000  0.4223040000000 1.0
C      1  0.5182830000000  0.4783620000000  0.4235830000000 1.0
C      1  0.4802190000000  0.4955270000000  0.4128400000000 1.0
C      1  0.4859430000000  0.5117270000000  0.4817110000000 1.0
C      1  0.5185000000000  0.5116390000000  0.4767160000000 1.0
C      1  0.4941110000000  0.4792500000000  0.4800690000000 1.0
C      1  0.4558180000000  0.5071380000000  0.4737900000000 1.0
C      1  0.5357460000000  0.5407220000000  0.4783810000000 1.0
C      1  0.5223890000000  0.4612760000000  0.4829610000000 1.0
C      1  0.4716490000000  0.5540990000000  0.5155970000000 1.0
C      1  0.5568120000000  0.4854180000000  0.5122050000000 1.0
C      1  0.4491970000000  0.4563400000000  0.5045460000000 1.0
C      1  0.5396540000000  0.4964560000000  0.4313300000000 1.0
C      1  0.4787870000000  0.4701240000000  0.4280560000000 1.0
C      1  0.4729510000000  0.5430560000000  0.4306430000000 1.0
C      1  0.4527330000000  0.5546360000000  0.5445220000000 1.0
C      1  0.5768990000000  0.5034250000000  0.5321150000000 1.0
C      1  0.4502960000000  0.4332150000000  0.5291520000000 1.0
END
