TITL C-1154828-9214-15 -0.000858472722091345 125000 -359.84742546048 0 0 60 (C1) n - 1
REM
REM in /home/nfs/bkarasulu/CARBON/AIRSS/Generating-Clusters/AIREBO/Higher-Symm/Only-C60
REM
REM
REM
REM
REM
REM ./C.cell (28575a23ae977d3b5fae324c64b13b57)
REM
REM compiler GCC version 9.2.1 20190827 (Red Hat 9.2.1-1)
REM options -cpp -mtune=generic -march=x86-64 -g -O0 -fpre-include=/usr/include/finclude/math-vector-fortran.h
REM seed 613570411 -381324771 498481703 10067419 -1492003656 598885251 700955029 -597665768 -2144917650 -2074029865 -2051370023 1427736196 1707572034 599751604 618552577 15422412 -1996449750 1860016085 -1639858755 754316765 1831674305 -605454360 -53581506 646354215 -2119662376 -1737352115 -1911149541 -1553906365 1200737685 -1918923578 320546008 -867545709 -45685893
REM
CELL 1.54180   50.00000   50.00000   50.00000   90.00000   90.00000   90.00000
LATT -1
SFAC C  
C      1  0.4388330000000  0.5117950000000  0.5714880000000 1.0
C      1  0.5343820000000  0.5687310000000  0.4442810000000 1.0
C      1  0.5649110000000  0.4581530000000  0.5151780000000 1.0
C      1  0.5445000000000  0.4562430000000  0.5748300000000 1.0
C      1  0.4491860000000  0.4743000000000  0.4321120000000 1.0
C      1  0.5560100000000  0.5282940000000  0.4184660000000 1.0
C      1  0.4763190000000  0.4241200000000  0.4572020000000 1.0
C      1  0.5169380000000  0.4333770000000  0.5370100000000 1.0
C      1  0.4685220000000  0.5703430000000  0.5506690000000 1.0
C      1  0.4288550000000  0.5404650000000  0.5142570000000 1.0
C      1  0.5774840000000  0.5473980000000  0.4616290000000 1.0
C      1  0.4299500000000  0.4498230000000  0.4742170000000 1.0
C      1  0.5213120000000  0.4362650000000  0.5649020000000 1.0
C      1  0.5766610000000  0.5262150000000  0.4371360000000 1.0
C      1  0.4341550000000  0.5683890000000  0.5169170000000 1.0
C      1  0.4693670000000  0.5491890000000  0.5682640000000 1.0
C      1  0.4809400000000  0.4376360000000  0.4328020000000 1.0
C      1  0.5338640000000  0.5519110000000  0.4224620000000 1.0
C      1  0.4315390000000  0.4734720000000  0.4536780000000 1.0
C      1  0.4161880000000  0.5166730000000  0.5568020000000 1.0
C      1  0.5700020000000  0.4610050000000  0.5656450000000 1.0
C      1  0.5573360000000  0.4316240000000  0.5093860000000 1.0
C      1  0.5581360000000  0.5667790000000  0.4646620000000 1.0
C      1  0.4499290000000  0.4312230000000  0.4738350000000 1.0
C      1  0.5056530000000  0.5447330000000  0.5173470000000 1.0
C      1  0.5482430000000  0.5282340000000  0.5069140000000 1.0
C      1  0.5213210000000  0.5049050000000  0.5404960000000 1.0
C      1  0.5042920000000  0.4587080000000  0.5258030000000 1.0
C      1  0.5004450000000  0.4662280000000  0.4780360000000 1.0
C      1  0.4975110000000  0.5506550000000  0.4783490000000 1.0
C      1  0.4589960000000  0.4785560000000  0.5105320000000 1.0
C      1  0.5467700000000  0.4794330000000  0.5041760000000 1.0
C      1  0.4555710000000  0.5282560000000  0.5056910000000 1.0
C      1  0.4819460000000  0.5067960000000  0.5467180000000 1.0
C      1  0.5072620000000  0.5104160000000  0.4411980000000 1.0
C      1  0.4769680000000  0.5059900000000  0.4663400000000 1.0
C      1  0.5424150000000  0.5041380000000  0.5237410000000 1.0
C      1  0.5286470000000  0.5472840000000  0.5031170000000 1.0
C      1  0.5050630000000  0.5284290000000  0.5389270000000 1.0
C      1  0.4655050000000  0.5029050000000  0.5215330000000 1.0
C      1  0.4552710000000  0.5070040000000  0.4827440000000 1.0
C      1  0.5608610000000  0.5062960000000  0.4887230000000 1.0
C      1  0.4772110000000  0.4574510000000  0.5107560000000 1.0
C      1  0.4783950000000  0.5525210000000  0.5045450000000 1.0
C      1  0.5186950000000  0.4683020000000  0.4985860000000 1.0
C      1  0.5038700000000  0.4805670000000  0.5491470000000 1.0
C      1  0.4931860000000  0.5301400000000  0.4608970000000 1.0
C      1  0.4937420000000  0.4815320000000  0.4518280000000 1.0
C      1  0.5253380000000  0.5208570000000  0.4241890000000 1.0
C      1  0.4618860000000  0.5716700000000  0.5232330000000 1.0
C      1  0.4648520000000  0.5213290000000  0.5672140000000 1.0
C      1  0.5780670000000  0.4631220000000  0.5394550000000 1.0
C      1  0.5140400000000  0.4664610000000  0.5740290000000 1.0
C      1  0.4761560000000  0.4656210000000  0.4331190000000 1.0
C      1  0.4125850000000  0.5253270000000  0.5310730000000 1.0
C      1  0.5748820000000  0.5155230000000  0.4674710000000 1.0
C      1  0.4387970000000  0.4801510000000  0.4859390000000 1.0
C      1  0.5346680000000  0.4198510000000  0.5199850000000 1.0
C      1  0.5268700000000  0.5635670000000  0.4767170000000 1.0
C      1  0.4786970000000  0.4436210000000  0.4836040000000 1.0
END
