TITL C-1154823-9327-279 0.000884395698818096 125000 -336.707529530335 0 0 60 (C1) n - 1
REM
REM in /home/nfs/bkarasulu/CARBON/AIRSS/Generating-Clusters/AIREBO/Higher-Symm/Only-C60
REM
REM
REM
REM
REM
REM ./C.cell (28575a23ae977d3b5fae324c64b13b57)
REM
REM compiler GCC version 9.2.1 20190827 (Red Hat 9.2.1-1)
REM options -cpp -mtune=generic -march=x86-64 -g -O0 -fpre-include=/usr/include/finclude/math-vector-fortran.h
REM seed 2044311262 -1923042 1054146831 -1805180262 -79127672 878427788 11889824 434966943 640721518 -2029837078 1037507694 -1484202069 -2106912364 -599376424 2102600565 -1356157279 -332837312 1754635011 -168231501 1236000269 -1346034995 -330696126 -1050978400 -1536444226 1586387088 1842500035 -793178567 -110708149 2038167900 405909345 -90187176 1811237155 -979208479
REM
CELL 1.54180   50.00000   50.00000   50.00000   90.00000   90.00000   90.00000
LATT -1
SFAC C  
C      1  0.4569250000000  0.5538600000000  0.5196680000000 1.0
C      1  0.5042820000000  0.5496330000000  0.5460300000000 1.0
C      1  0.5458580000000  0.5487560000000  0.5100290000000 1.0
C      1  0.5221640000000  0.5471170000000  0.4618070000000 1.0
C      1  0.4686250000000  0.5533710000000  0.4653960000000 1.0
C      1  0.5425250000000  0.4541540000000  0.4499060000000 1.0
C      1  0.4681950000000  0.4558540000000  0.4476540000000 1.0
C      1  0.4390550000000  0.4553700000000  0.5166480000000 1.0
C      1  0.4969190000000  0.4553780000000  0.5632900000000 1.0
C      1  0.5606030000000  0.4542720000000  0.5230090000000 1.0
C      1  0.4641550000000  0.5145480000000  0.4731300000000 1.0
C      1  0.4632990000000  0.5150210000000  0.5128930000000 1.0
C      1  0.5096760000000  0.5113730000000  0.5366970000000 1.0
C      1  0.5380070000000  0.5095540000000  0.5088410000000 1.0
C      1  0.5095820000000  0.5094690000000  0.4654380000000 1.0
C      1  0.4738650000000  0.4572140000000  0.5553170000000 1.0
C      1  0.5455130000000  0.4560050000000  0.5422810000000 1.0
C      1  0.5559680000000  0.4556200000000  0.4703020000000 1.0
C      1  0.4913710000000  0.4568890000000  0.4400100000000 1.0
C      1  0.4402310000000  0.4563890000000  0.4922250000000 1.0
C      1  0.5759710000000  0.4583460000000  0.4951610000000 1.0
C      1  0.5206640000000  0.4591020000000  0.4271900000000 1.0
C      1  0.4387070000000  0.4583470000000  0.4602820000000 1.0
C      1  0.4430180000000  0.4603140000000  0.5479020000000 1.0
C      1  0.5281980000000  0.4589700000000  0.5693700000000 1.0
C      1  0.5874410000000  0.4879880000000  0.4945140000000 1.0
C      1  0.5238890000000  0.4888300000000  0.4162180000000 1.0
C      1  0.4281050000000  0.4875970000000  0.4529220000000 1.0
C      1  0.4345310000000  0.4901540000000  0.5549200000000 1.0
C      1  0.5319900000000  0.4884300000000  0.5810790000000 1.0
C      1  0.5198810000000  0.5155390000000  0.4183060000000 1.0
C      1  0.4352600000000  0.5125240000000  0.4589190000000 1.0
C      1  0.4348250000000  0.5171200000000  0.5523820000000 1.0
C      1  0.5286120000000  0.5153720000000  0.5808960000000 1.0
C      1  0.5838540000000  0.5145750000000  0.4909560000000 1.0
C      1  0.4217060000000  0.4380860000000  0.4497580000000 1.0
C      1  0.4273620000000  0.4415690000000  0.5626570000000 1.0
C      1  0.5366080000000  0.4393610000000  0.5883590000000 1.0
C      1  0.5969940000000  0.4391680000000  0.4929560000000 1.0
C      1  0.5238520000000  0.4400280000000  0.4062510000000 1.0
C      1  0.5356530000000  0.5244980000000  0.4798130000000 1.0
C      1  0.4868890000000  0.5294550000000  0.4553840000000 1.0
C      1  0.4479070000000  0.5369440000000  0.4953870000000 1.0
C      1  0.4815020000000  0.5281750000000  0.5379920000000 1.0
C      1  0.5371870000000  0.5304860000000  0.5335710000000 1.0
C      1  0.5175730000000  0.4844030000000  0.5187020000000 1.0
C      1  0.5236120000000  0.4872100000000  0.4871470000000 1.0
C      1  0.4946250000000  0.4811810000000  0.4731940000000 1.0
C      1  0.4726620000000  0.4901100000000  0.4926560000000 1.0
C      1  0.4860510000000  0.4916370000000  0.5226430000000 1.0
C      1  0.4836840000000  0.5702500000000  0.4824270000000 1.0
C      1  0.4783740000000  0.5706960000000  0.5114880000000 1.0
C      1  0.5042630000000  0.5692280000000  0.5254190000000 1.0
C      1  0.5254710000000  0.5678090000000  0.5049410000000 1.0
C      1  0.5127130000000  0.5677910000000  0.4786490000000 1.0
C      1  0.5125180000000  0.5358790000000  0.4357820000000 1.0
C      1  0.4394380000000  0.5442650000000  0.4641810000000 1.0
C      1  0.4518240000000  0.5379560000000  0.5448160000000 1.0
C      1  0.5256260000000  0.5366460000000  0.5630700000000 1.0
C      1  0.5641420000000  0.5341150000000  0.4911680000000 1.0
END
