TITL C-1154825-9328-427 0.00555072356377453 125000 -307.569028334759 0 0 60 (C1) n - 1
REM
REM in /home/nfs/bkarasulu/CARBON/AIRSS/Generating-Clusters/AIREBO/Higher-Symm/Only-C60
REM
REM
REM
REM
REM
REM ./C.cell (28575a23ae977d3b5fae324c64b13b57)
REM
REM compiler GCC version 9.2.1 20190827 (Red Hat 9.2.1-1)
REM options -cpp -mtune=generic -march=x86-64 -g -O0 -fpre-include=/usr/include/finclude/math-vector-fortran.h
REM seed -1870327207 1491476851 273045772 533302871 713094384 916590361 -396015544 -105344704 -438314166 -272842236 1051679402 382654681 -1997015978 309559704 261510827 850975879 351917159 -1552723051 1432742576 722867684 890430740 -1544589731 -1647010417 -1996383318 -1406340001 406621671 2025495304 1033277368 -579359842 -1902355000 -1523558900 946493023 -129910697
REM
CELL 1.54180   50.00000   50.00000   50.00000   90.00000   90.00000   90.00000
LATT -1
SFAC C  
C      1  0.4523470000000  0.5439020000000  0.4887150000000 1.0
C      1  0.4564420000000  0.4574120000000  0.5105270000000 1.0
C      1  0.5732670000000  0.5391270000000  0.4916010000000 1.0
C      1  0.5507440000000  0.4546690000000  0.5092640000000 1.0
C      1  0.4505050000000  0.4522420000000  0.4813170000000 1.0
C      1  0.4473160000000  0.5467460000000  0.5166840000000 1.0
C      1  0.5699150000000  0.4542400000000  0.4851880000000 1.0
C      1  0.5551300000000  0.5439290000000  0.5110040000000 1.0
C      1  0.4741080000000  0.5115170000000  0.4829960000000 1.0
C      1  0.4772370000000  0.4909040000000  0.5158390000000 1.0
C      1  0.5133780000000  0.5110020000000  0.4884770000000 1.0
C      1  0.5170560000000  0.4901180000000  0.5154840000000 1.0
C      1  0.4775610000000  0.4810080000000  0.4861170000000 1.0
C      1  0.4784490000000  0.5222520000000  0.5131320000000 1.0
C      1  0.5261080000000  0.4814980000000  0.4861090000000 1.0
C      1  0.5179860000000  0.5219080000000  0.5183850000000 1.0
C      1  0.4665470000000  0.4520790000000  0.5485640000000 1.0
C      1  0.4685610000000  0.5428310000000  0.4425600000000 1.0
C      1  0.5324070000000  0.4554100000000  0.5376870000000 1.0
C      1  0.5327190000000  0.5368010000000  0.4650000000000 1.0
C      1  0.4668040000000  0.5404430000000  0.5616880000000 1.0
C      1  0.4728750000000  0.4527770000000  0.4371510000000 1.0
C      1  0.5319130000000  0.5496820000000  0.5429540000000 1.0
C      1  0.5237270000000  0.4496560000000  0.4484740000000 1.0
C      1  0.4859970000000  0.4448710000000  0.5218090000000 1.0
C      1  0.4816040000000  0.5491210000000  0.4720720000000 1.0
C      1  0.5169910000000  0.4485110000000  0.5081130000000 1.0
C      1  0.5145120000000  0.5501600000000  0.4806060000000 1.0
C      1  0.4689020000000  0.5529330000000  0.5365970000000 1.0
C      1  0.4766500000000  0.4463890000000  0.4662210000000 1.0
C      1  0.5264540000000  0.5599830000000  0.5109710000000 1.0
C      1  0.5107210000000  0.4363140000000  0.4769440000000 1.0
C      1  0.5148770000000  0.5329310000000  0.5648150000000 1.0
C      1  0.5295830000000  0.4764320000000  0.4436480000000 1.0
C      1  0.4901030000000  0.5215600000000  0.5688270000000 1.0
C      1  0.4644210000000  0.4781860000000  0.4328040000000 1.0
C      1  0.5139170000000  0.4702200000000  0.5620840000000 1.0
C      1  0.5246420000000  0.5105280000000  0.4447090000000 1.0
C      1  0.4861600000000  0.4909540000000  0.5613700000000 1.0
C      1  0.4736320000000  0.5095590000000  0.4377270000000 1.0
C      1  0.5564770000000  0.4875700000000  0.4519140000000 1.0
C      1  0.5439900000000  0.5197650000000  0.5582030000000 1.0
C      1  0.4424660000000  0.4886500000000  0.4511000000000 1.0
C      1  0.4538990000000  0.5111590000000  0.5626810000000 1.0
C      1  0.5564470000000  0.5207520000000  0.4466800000000 1.0
C      1  0.5389250000000  0.4875720000000  0.5484960000000 1.0
C      1  0.4422450000000  0.5216010000000  0.4452940000000 1.0
C      1  0.4565120000000  0.4807330000000  0.5482000000000 1.0
C      1  0.5494790000000  0.5182300000000  0.5259540000000 1.0
C      1  0.5581390000000  0.4861400000000  0.4857860000000 1.0
C      1  0.4496740000000  0.5155280000000  0.5299750000000 1.0
C      1  0.4438680000000  0.4854170000000  0.4849220000000 1.0
C      1  0.5584340000000  0.4859470000000  0.5201570000000 1.0
C      1  0.5698080000000  0.5169460000000  0.4764950000000 1.0
C      1  0.4387690000000  0.4851990000000  0.5190600000000 1.0
C      1  0.4368450000000  0.5179950000000  0.4774820000000 1.0
C      1  0.4963880000000  0.5206940000000  0.4606630000000 1.0
C      1  0.4964450000000  0.4747830000000  0.5332700000000 1.0
C      1  0.4973410000000  0.5473050000000  0.5231480000000 1.0
C      1  0.5015780000000  0.4672070000000  0.4762880000000 1.0
END
