TITL C-1154802-8274-442 -0.00068980614449237 125000 -337.05254424627 0 0 60 (C1) n - 1
REM
REM in /home/nfs/bkarasulu/CARBON/AIRSS/Generating-Clusters/AIREBO/Higher-Symm/Only-C60
REM
REM
REM
REM
REM
REM ./C.cell (28575a23ae977d3b5fae324c64b13b57)
REM
REM compiler GCC version 9.2.1 20190827 (Red Hat 9.2.1-1)
REM options -cpp -mtune=generic -march=x86-64 -g -O0 -fpre-include=/usr/include/finclude/math-vector-fortran.h
REM seed 868270926 1195640122 -87213431 -678873600 1811679819 1485538175 2113228595 -1347697845 -1228064467 828733166 -1079083777 418504060 -950839793 -2009096571 1577694039 1958998693 1639516243 -1757471229 -83247607 -795130866 1814291865 -407562399 905602843 -1978235418 1345888901 -33324540 -1541509651 2146571398 -407799147 -1397840316 -586334419 -865179607 1225705763
REM
CELL 1.54180   50.00000   50.00000   50.00000   90.00000   90.00000   90.00000
LATT -1
SFAC C  
C      1  0.5769160000000  0.5108640000000  0.5048410000000 1.0
C      1  0.5710560000000  0.4838730000000  0.4976630000000 1.0
C      1  0.5084820000000  0.4783070000000  0.5772800000000 1.0
C      1  0.5050000000000  0.5196110000000  0.4223140000000 1.0
C      1  0.5597010000000  0.4846290000000  0.5462310000000 1.0
C      1  0.5546540000000  0.5165370000000  0.4593810000000 1.0
C      1  0.4668710000000  0.4686160000000  0.5528200000000 1.0
C      1  0.4596260000000  0.5274070000000  0.4419420000000 1.0
C      1  0.5220660000000  0.4877620000000  0.4864840000000 1.0
C      1  0.5312890000000  0.5281240000000  0.5256870000000 1.0
C      1  0.4228620000000  0.5115880000000  0.5329770000000 1.0
C      1  0.4202620000000  0.4880870000000  0.4705330000000 1.0
C      1  0.4795980000000  0.5308560000000  0.4216400000000 1.0
C      1  0.4850670000000  0.4641250000000  0.5741730000000 1.0
C      1  0.5175990000000  0.5090730000000  0.5683120000000 1.0
C      1  0.5128330000000  0.4918920000000  0.4378690000000 1.0
C      1  0.5060890000000  0.5127200000000  0.5395110000000 1.0
C      1  0.4976120000000  0.4918060000000  0.4646580000000 1.0
C      1  0.4528040000000  0.4997710000000  0.4460870000000 1.0
C      1  0.4616670000000  0.4965360000000  0.5493810000000 1.0
C      1  0.5322720000000  0.5554950000000  0.5459660000000 1.0
C      1  0.5438340000000  0.4387310000000  0.4368470000000 1.0
C      1  0.4743360000000  0.4343940000000  0.5155560000000 1.0
C      1  0.4740100000000  0.5624930000000  0.4745960000000 1.0
C      1  0.5181240000000  0.4908990000000  0.5195670000000 1.0
C      1  0.5254380000000  0.5291240000000  0.4966880000000 1.0
C      1  0.5584920000000  0.5372360000000  0.5533990000000 1.0
C      1  0.5512410000000  0.4650530000000  0.4537380000000 1.0
C      1  0.5007450000000  0.4442180000000  0.5145520000000 1.0
C      1  0.4997110000000  0.5514320000000  0.4685370000000 1.0
C      1  0.5427210000000  0.5401780000000  0.4767980000000 1.0
C      1  0.5348490000000  0.4690150000000  0.5335990000000 1.0
C      1  0.4439170000000  0.5287050000000  0.4888150000000 1.0
C      1  0.4424690000000  0.4700910000000  0.5109290000000 1.0
C      1  0.5271640000000  0.4665780000000  0.4335320000000 1.0
C      1  0.5322870000000  0.5352060000000  0.5721270000000 1.0
C      1  0.4759640000000  0.5573060000000  0.5301970000000 1.0
C      1  0.4652330000000  0.4442760000000  0.4670600000000 1.0
C      1  0.5505520000000  0.4863410000000  0.4745900000000 1.0
C      1  0.5617550000000  0.5143390000000  0.5318530000000 1.0
C      1  0.4642610000000  0.4280770000000  0.4894110000000 1.0
C      1  0.4746520000000  0.5607690000000  0.5030090000000 1.0
C      1  0.4727750000000  0.5148990000000  0.5003370000000 1.0
C      1  0.4706480000000  0.4848930000000  0.5040360000000 1.0
C      1  0.5263670000000  0.5590060000000  0.4631550000000 1.0
C      1  0.5243310000000  0.4442560000000  0.5299680000000 1.0
C      1  0.4421870000000  0.5273040000000  0.5224670000000 1.0
C      1  0.4414030000000  0.4737000000000  0.4796150000000 1.0
C      1  0.5394480000000  0.4832960000000  0.5704030000000 1.0
C      1  0.5350090000000  0.5171350000000  0.4355030000000 1.0
C      1  0.4980650000000  0.5204160000000  0.4824660000000 1.0
C      1  0.4975360000000  0.4721060000000  0.5030040000000 1.0
C      1  0.5722240000000  0.4681840000000  0.5200310000000 1.0
C      1  0.5788570000000  0.5253230000000  0.4816060000000 1.0
C      1  0.4584000000000  0.4525500000000  0.5307180000000 1.0
C      1  0.4541220000000  0.5445770000000  0.4643210000000 1.0
C      1  0.4180890000000  0.5141100000000  0.4786820000000 1.0
C      1  0.4201240000000  0.4852650000000  0.5260380000000 1.0
C      1  0.4698700000000  0.4772870000000  0.4633220000000 1.0
C      1  0.4744620000000  0.5235530000000  0.5331770000000 1.0
END
