TITL C-1154825-9328-192 -0.000328302127123243 125000 -311.717142859372 0 0 60 (C1) n - 1
REM
REM in /home/nfs/bkarasulu/CARBON/AIRSS/Generating-Clusters/AIREBO/Higher-Symm/Only-C60
REM
REM
REM
REM
REM
REM ./C.cell (28575a23ae977d3b5fae324c64b13b57)
REM
REM compiler GCC version 9.2.1 20190827 (Red Hat 9.2.1-1)
REM options -cpp -mtune=generic -march=x86-64 -g -O0 -fpre-include=/usr/include/finclude/math-vector-fortran.h
REM seed -1022000012 1437048886 633963143 -2120480555 1745716645 1023988668 -1036956311 -2102902542 -656379642 1487124175 368525754 -345056560 -2075170149 706552039 244590038 1221153663 -1433497016 575489680 1912278493 642525313 1825386654 -1192762766 -1223441187 1648890989 -212540780 -25256310 -1226648848 885184721 1233230351 945320156 -97108005 -1177685984 70240656
REM
CELL 1.54180   50.00000   50.00000   50.00000   90.00000   90.00000   90.00000
LATT -1
SFAC C  
C      1  0.4488640000000  0.5595240000000  0.4997840000000 1.0
C      1  0.4529000000000  0.4456130000000  0.5043820000000 1.0
C      1  0.4924790000000  0.5478240000000  0.4704470000000 1.0
C      1  0.4862700000000  0.4550640000000  0.5361420000000 1.0
C      1  0.4751790000000  0.4758600000000  0.4704630000000 1.0
C      1  0.4654440000000  0.5222260000000  0.5312420000000 1.0
C      1  0.4949670000000  0.4659480000000  0.4375560000000 1.0
C      1  0.4903520000000  0.5312280000000  0.5605510000000 1.0
C      1  0.4470800000000  0.4623260000000  0.5721510000000 1.0
C      1  0.4518670000000  0.5475910000000  0.4568710000000 1.0
C      1  0.5365700000000  0.5840900000000  0.4660110000000 1.0
C      1  0.5420690000000  0.4128080000000  0.5229170000000 1.0
C      1  0.4975540000000  0.4220390000000  0.5020890000000 1.0
C      1  0.4959540000000  0.5762250000000  0.4983010000000 1.0
C      1  0.4953110000000  0.4513980000000  0.4657490000000 1.0
C      1  0.4935400000000  0.5407770000000  0.5293430000000 1.0
C      1  0.5374190000000  0.4867380000000  0.5407420000000 1.0
C      1  0.5488050000000  0.5270560000000  0.4531920000000 1.0
C      1  0.4481870000000  0.4646490000000  0.4814210000000 1.0
C      1  0.4405290000000  0.5331200000000  0.5151850000000 1.0
C      1  0.4591870000000  0.5255500000000  0.4807610000000 1.0
C      1  0.4550090000000  0.4748380000000  0.5194870000000 1.0
C      1  0.5635900000000  0.5010590000000  0.4892480000000 1.0
C      1  0.5600210000000  0.4948690000000  0.5178190000000 1.0
C      1  0.5471770000000  0.4327680000000  0.4675450000000 1.0
C      1  0.5547840000000  0.5691720000000  0.5148090000000 1.0
C      1  0.5077080000000  0.4686680000000  0.4925720000000 1.0
C      1  0.5080950000000  0.5285210000000  0.5017700000000 1.0
C      1  0.4635940000000  0.4738510000000  0.5498790000000 1.0
C      1  0.4752140000000  0.5252190000000  0.4517880000000 1.0
C      1  0.5189950000000  0.5274270000000  0.4695580000000 1.0
C      1  0.5100450000000  0.4724810000000  0.5262290000000 1.0
C      1  0.4775390000000  0.5006600000000  0.5546170000000 1.0
C      1  0.4846830000000  0.4970800000000  0.4468550000000 1.0
C      1  0.4792130000000  0.4850020000000  0.5014550000000 1.0
C      1  0.4790790000000  0.5151960000000  0.5023450000000 1.0
C      1  0.4916270000000  0.4225900000000  0.4742060000000 1.0
C      1  0.4964520000000  0.5710490000000  0.5251810000000 1.0
C      1  0.5249480000000  0.5230030000000  0.5520750000000 1.0
C      1  0.5308680000000  0.4810900000000  0.4464300000000 1.0
C      1  0.4272590000000  0.4819200000000  0.4791520000000 1.0
C      1  0.4126270000000  0.5168230000000  0.5247250000000 1.0
C      1  0.4708380000000  0.5671880000000  0.4860700000000 1.0
C      1  0.4776590000000  0.4358080000000  0.5175060000000 1.0
C      1  0.4316070000000  0.5121330000000  0.4898960000000 1.0
C      1  0.4313480000000  0.4927960000000  0.5173230000000 1.0
C      1  0.5465040000000  0.5238810000000  0.5293350000000 1.0
C      1  0.5522390000000  0.4778680000000  0.4702000000000 1.0
C      1  0.5208500000000  0.4640570000000  0.4244140000000 1.0
C      1  0.5157740000000  0.5394360000000  0.5781680000000 1.0
C      1  0.5387730000000  0.5431840000000  0.5022510000000 1.0
C      1  0.5379900000000  0.4535430000000  0.4892990000000 1.0
C      1  0.5569690000000  0.5271200000000  0.4818590000000 1.0
C      1  0.5569630000000  0.4628010000000  0.5154080000000 1.0
C      1  0.5148380000000  0.5033900000000  0.4503590000000 1.0
C      1  0.5074790000000  0.4955890000000  0.5505830000000 1.0
C      1  0.5605800000000  0.5062590000000  0.5552340000000 1.0
C      1  0.5641920000000  0.5020030000000  0.4493930000000 1.0
C      1  0.5253690000000  0.4271330000000  0.5066280000000 1.0
C      1  0.5209710000000  0.5648730000000  0.4830270000000 1.0
END
