TITL C-1154823-9327-317 -0.000483397940484251 125000 -320.743470739141 0 0 60 (C1) n - 1
REM
REM in /home/nfs/bkarasulu/CARBON/AIRSS/Generating-Clusters/AIREBO/Higher-Symm/Only-C60
REM
REM
REM
REM
REM
REM ./C.cell (28575a23ae977d3b5fae324c64b13b57)
REM
REM compiler GCC version 9.2.1 20190827 (Red Hat 9.2.1-1)
REM options -cpp -mtune=generic -march=x86-64 -g -O0 -fpre-include=/usr/include/finclude/math-vector-fortran.h
REM seed 1996421096 857950549 -578556538 -480345561 -1795252102 870272160 495484174 -1079880281 -1607296531 843221277 1517938587 -1970739914 1570610405 1758089198 -1438519546 2031485313 1049551482 1359940440 -1805551788 -1391289947 546945952 695454282 -269176053 -1919511110 60666491 1974151303 -1921128533 -1959821784 781656105 893609595 473546903 867020055 1802152662
REM
CELL 1.54180   50.00000   50.00000   50.00000   90.00000   90.00000   90.00000
LATT -1
SFAC C  
C      1  0.4812760000000  0.5209960000000  0.5328600000000 1.0
C      1  0.4920860000000  0.4733680000000  0.5336470000000 1.0
C      1  0.5285870000000  0.5055330000000  0.5351100000000 1.0
C      1  0.5655730000000  0.4745880000000  0.5130440000000 1.0
C      1  0.4891820000000  0.5708480000000  0.5128500000000 1.0
C      1  0.4455190000000  0.4566020000000  0.5131590000000 1.0
C      1  0.4667890000000  0.4800750000000  0.4887330000000 1.0
C      1  0.5342190000000  0.4820110000000  0.4894480000000 1.0
C      1  0.4976810000000  0.5293220000000  0.4920510000000 1.0
C      1  0.4133940000000  0.4876190000000  0.4983100000000 1.0
C      1  0.5550720000000  0.4317710000000  0.4987720000000 1.0
C      1  0.5307150000000  0.5820550000000  0.4965490000000 1.0
C      1  0.5397790000000  0.5104690000000  0.4800070000000 1.0
C      1  0.4682960000000  0.5281670000000  0.4775450000000 1.0
C      1  0.4897960000000  0.4619580000000  0.4813260000000 1.0
C      1  0.5192080000000  0.4961570000000  0.5664210000000 1.0
C      1  0.4937120000000  0.5169940000000  0.5642550000000 1.0
C      1  0.4884850000000  0.4845910000000  0.5655450000000 1.0
C      1  0.5723330000000  0.5044090000000  0.5111850000000 1.0
C      1  0.4607570000000  0.5608370000000  0.5101210000000 1.0
C      1  0.4678240000000  0.4359230000000  0.5116140000000 1.0
C      1  0.5367220000000  0.5380260000000  0.5385760000000 1.0
C      1  0.4491790000000  0.5138190000000  0.5386630000000 1.0
C      1  0.5144160000000  0.4492960000000  0.5391060000000 1.0
C      1  0.4421860000000  0.4641110000000  0.5434820000000 1.0
C      1  0.5615330000000  0.4671910000000  0.5433220000000 1.0
C      1  0.4980020000000  0.5686450000000  0.5426800000000 1.0
C      1  0.5859420000000  0.5304960000000  0.4702800000000 1.0
C      1  0.4329660000000  0.5631220000000  0.4690190000000 1.0
C      1  0.4852060000000  0.4119920000000  0.4710090000000 1.0
C      1  0.5239850000000  0.5212230000000  0.5050640000000 1.0
C      1  0.4679950000000  0.5086350000000  0.5040210000000 1.0
C      1  0.5094180000000  0.4681590000000  0.5044790000000 1.0
C      1  0.5445470000000  0.5248840000000  0.4316260000000 1.0
C      1  0.4576240000000  0.5281660000000  0.4274960000000 1.0
C      1  0.4971820000000  0.4462840000000  0.4343210000000 1.0
C      1  0.5469590000000  0.4685200000000  0.4540810000000 1.0
C      1  0.5017530000000  0.5529640000000  0.4697320000000 1.0
C      1  0.4482930000000  0.4741930000000  0.4538000000000 1.0
C      1  0.4977090000000  0.4687600000000  0.4515800000000 1.0
C      1  0.5271530000000  0.5141590000000  0.4509620000000 1.0
C      1  0.4727520000000  0.5165320000000  0.4480060000000 1.0
C      1  0.4793060000000  0.4338920000000  0.4859330000000 1.0
C      1  0.5691850000000  0.5151140000000  0.4850820000000 1.0
C      1  0.4534390000000  0.5532270000000  0.4840210000000 1.0
C      1  0.4860050000000  0.4339180000000  0.5322400000000 1.0
C      1  0.5648780000000  0.5216710000000  0.5314370000000 1.0
C      1  0.4500080000000  0.5457160000000  0.5303780000000 1.0
C      1  0.4624730000000  0.4843410000000  0.5470290000000 1.0
C      1  0.5341210000000  0.4744170000000  0.5482580000000 1.0
C      1  0.5048070000000  0.5413150000000  0.5474000000000 1.0
C      1  0.5375640000000  0.4522710000000  0.5152170000000 1.0
C      1  0.5207790000000  0.5541170000000  0.5132050000000 1.0
C      1  0.4398120000000  0.4919380000000  0.5150790000000 1.0
C      1  0.4364730000000  0.4688320000000  0.4828300000000 1.0
C      1  0.5587680000000  0.4609390000000  0.4826560000000 1.0
C      1  0.5033180000000  0.5762600000000  0.4851090000000 1.0
C      1  0.5009690000000  0.5288430000000  0.4525760000000 1.0
C      1  0.4722480000000  0.4865470000000  0.4481070000000 1.0
C      1  0.5240430000000  0.4831740000000  0.4495880000000 1.0
END
