TITL C-1154821-8623-475 1.5258278616616e-06 125000 -337.53217778802 0 0 60 (C1) n - 1
REM
REM in /home/nfs/bkarasulu/CARBON/AIRSS/Generating-Clusters/AIREBO/Higher-Symm/Only-C60
REM
REM
REM
REM
REM
REM ./C.cell (28575a23ae977d3b5fae324c64b13b57)
REM
REM compiler GCC version 9.2.1 20190827 (Red Hat 9.2.1-1)
REM options -cpp -mtune=generic -march=x86-64 -g -O0 -fpre-include=/usr/include/finclude/math-vector-fortran.h
REM seed 1307317183 -879587330 2099393346 967274249 333784774 2026223598 -360900670 -1902518173 595654746 -1865285221 -226978045 1617758078 1900123403 1707419274 1772696911 1668830914 1327123726 83806406 1334192299 1607243507 -740331450 -1049018021 -1943285278 -2110503930 96042253 -1220992598 -566005511 1769748441 -148728481 -1302078635 -1290754598 1045898860 -1232642871
REM
CELL 1.54180   50.00000   50.00000   50.00000   90.00000   90.00000   90.00000
LATT -1
SFAC C  
C      1  0.5770810000000  0.5385450000000  0.4827140000000 1.0
C      1  0.5668880000000  0.4716320000000  0.4666850000000 1.0
C      1  0.5875080000000  0.4904590000000  0.5283670000000 1.0
C      1  0.5124730000000  0.5571400000000  0.4748550000000 1.0
C      1  0.5125310000000  0.4516600000000  0.4780210000000 1.0
C      1  0.5102080000000  0.4982900000000  0.5793820000000 1.0
C      1  0.5608380000000  0.5179600000000  0.4696790000000 1.0
C      1  0.5544540000000  0.4708830000000  0.4919760000000 1.0
C      1  0.5651590000000  0.5097780000000  0.5270480000000 1.0
C      1  0.4568880000000  0.5420780000000  0.5576650000000 1.0
C      1  0.4762720000000  0.5430340000000  0.4350350000000 1.0
C      1  0.4660900000000  0.4189540000000  0.5073510000000 1.0
C      1  0.5199510000000  0.5545500000000  0.4461580000000 1.0
C      1  0.5128800000000  0.4301780000000  0.5000560000000 1.0
C      1  0.5083060000000  0.5270010000000  0.5691530000000 1.0
C      1  0.5401630000000  0.4514780000000  0.5356500000000 1.0
C      1  0.5400890000000  0.5505210000000  0.5241010000000 1.0
C      1  0.5392820000000  0.4966000000000  0.4336260000000 1.0
C      1  0.5100030000000  0.5249060000000  0.4712060000000 1.0
C      1  0.5049740000000  0.4690220000000  0.5048410000000 1.0
C      1  0.5146400000000  0.5090710000000  0.5412150000000 1.0
C      1  0.5410040000000  0.4941670000000  0.5370740000000 1.0
C      1  0.5335520000000  0.5141100000000  0.4865130000000 1.0
C      1  0.5291440000000  0.4849550000000  0.4919330000000 1.0
C      1  0.4560260000000  0.4500230000000  0.5065820000000 1.0
C      1  0.4581070000000  0.5222370000000  0.5294070000000 1.0
C      1  0.4608420000000  0.5244560000000  0.4545550000000 1.0
C      1  0.4680100000000  0.5693920000000  0.4732100000000 1.0
C      1  0.4706900000000  0.4401860000000  0.4626490000000 1.0
C      1  0.4832100000000  0.4991000000000  0.5501470000000 1.0
C      1  0.4603750000000  0.4397020000000  0.5370300000000 1.0
C      1  0.4595530000000  0.5547630000000  0.5264910000000 1.0
C      1  0.4629350000000  0.4950120000000  0.4463140000000 1.0
C      1  0.4527850000000  0.4607270000000  0.4769370000000 1.0
C      1  0.4579460000000  0.4892730000000  0.5325450000000 1.0
C      1  0.4506470000000  0.5464970000000  0.4776580000000 1.0
C      1  0.5612380000000  0.4956190000000  0.4518940000000 1.0
C      1  0.5606250000000  0.4706870000000  0.5218360000000 1.0
C      1  0.5554220000000  0.5299860000000  0.5072530000000 1.0
C      1  0.4900560000000  0.4416880000000  0.5487340000000 1.0
C      1  0.4904690000000  0.5613900000000  0.5194460000000 1.0
C      1  0.4891640000000  0.4837000000000  0.4446750000000 1.0
C      1  0.4693830000000  0.5050120000000  0.5039500000000 1.0
C      1  0.4798300000000  0.5193610000000  0.4800570000000 1.0
C      1  0.4752430000000  0.4748840000000  0.4996110000000 1.0
C      1  0.5106110000000  0.5057590000000  0.4429530000000 1.0
C      1  0.5129110000000  0.4591610000000  0.5326530000000 1.0
C      1  0.5143940000000  0.5420690000000  0.5327440000000 1.0
C      1  0.4402620000000  0.5457350000000  0.5024120000000 1.0
C      1  0.4430440000000  0.4792080000000  0.4555720000000 1.0
C      1  0.4451760000000  0.4658280000000  0.5415100000000 1.0
C      1  0.4682810000000  0.4159430000000  0.4760220000000 1.0
C      1  0.4697890000000  0.5165880000000  0.5692900000000 1.0
C      1  0.4716940000000  0.5701960000000  0.4442840000000 1.0
C      1  0.4995730000000  0.4725810000000  0.5598280000000 1.0
C      1  0.4916420000000  0.5683500000000  0.4894220000000 1.0
C      1  0.4942240000000  0.4565670000000  0.4564180000000 1.0
C      1  0.4886490000000  0.5493420000000  0.5531260000000 1.0
C      1  0.5031670000000  0.5354930000000  0.4332580000000 1.0
C      1  0.4936470000000  0.4265110000000  0.5192210000000 1.0
END
