TITL C-1154808-8168-142 -0.000947842158578806 125000 -341.2574537389 0 0 60 (C1) n - 1
REM
REM in /home/nfs/bkarasulu/CARBON/AIRSS/Generating-Clusters/AIREBO/Higher-Symm/Only-C60
REM
REM
REM
REM
REM
REM ./C.cell (28575a23ae977d3b5fae324c64b13b57)
REM
REM compiler GCC version 9.2.1 20190827 (Red Hat 9.2.1-1)
REM options -cpp -mtune=generic -march=x86-64 -g -O0 -fpre-include=/usr/include/finclude/math-vector-fortran.h
REM seed -1572528156 1527089701 2046159315 104732127 129576410 -986936884 642088894 1097567672 -1227010320 -1063328164 1625114644 -598180641 -1920463321 1203374620 1228060075 430727068 -2082395339 1938725286 1062156257 -1743755947 1089143200 -111002229 566404378 478352753 -1257709098 -1530977040 982491855 -1876255464 1901856974 -1747077742 -1677458558 1360160991 -61268611
REM
CELL 1.54180   50.00000   50.00000   50.00000   90.00000   90.00000   90.00000
LATT -1
SFAC C  
C      1  0.5227820000000  0.5133520000000  0.4594850000000 1.0
C      1  0.5229710000000  0.5133480000000  0.5316650000000 1.0
C      1  0.4854250000000  0.5011270000000  0.5088280000000 1.0
C      1  0.4702020000000  0.4311700000000  0.4959170000000 1.0
C      1  0.5169330000000  0.4391700000000  0.4852910000000 1.0
C      1  0.5041410000000  0.4267350000000  0.5304150000000 1.0
C      1  0.5084480000000  0.5182540000000  0.5620430000000 1.0
C      1  0.4467160000000  0.5206480000000  0.4732130000000 1.0
C      1  0.5472760000000  0.5330050000000  0.4511940000000 1.0
C      1  0.4424730000000  0.5310350000000  0.4422580000000 1.0
C      1  0.5757120000000  0.5312310000000  0.4700070000000 1.0
C      1  0.4680650000000  0.5345590000000  0.5859880000000 1.0
C      1  0.4861700000000  0.4856140000000  0.4305180000000 1.0
C      1  0.5700430000000  0.4828420000000  0.5206430000000 1.0
C      1  0.4420040000000  0.4804170000000  0.5479410000000 1.0
C      1  0.4904720000000  0.4348840000000  0.4768100000000 1.0
C      1  0.5242950000000  0.4328630000000  0.5117450000000 1.0
C      1  0.4769790000000  0.4294020000000  0.5231400000000 1.0
C      1  0.4836520000000  0.4353890000000  0.4488950000000 1.0
C      1  0.5524560000000  0.4324060000000  0.5186380000000 1.0
C      1  0.4563230000000  0.4302880000000  0.5432260000000 1.0
C      1  0.4971460000000  0.4946430000000  0.5403450000000 1.0
C      1  0.4753650000000  0.5080640000000  0.4780050000000 1.0
C      1  0.5352830000000  0.5050610000000  0.4885230000000 1.0
C      1  0.5132390000000  0.5358190000000  0.5137990000000 1.0
C      1  0.4851280000000  0.5322460000000  0.4998390000000 1.0
C      1  0.5231910000000  0.5365030000000  0.4829360000000 1.0
C      1  0.4443800000000  0.4292670000000  0.4881450000000 1.0
C      1  0.5351820000000  0.4495670000000  0.4682720000000 1.0
C      1  0.5106690000000  0.4178730000000  0.5551130000000 1.0
C      1  0.5748850000000  0.5369970000000  0.4971150000000 1.0
C      1  0.4547510000000  0.5368550000000  0.5609820000000 1.0
C      1  0.4665680000000  0.5398060000000  0.4315560000000 1.0
C      1  0.4403880000000  0.4533800000000  0.5451360000000 1.0
C      1  0.4886480000000  0.4589060000000  0.4346290000000 1.0
C      1  0.5650600000000  0.4565310000000  0.5254120000000 1.0
C      1  0.4776570000000  0.5628610000000  0.4449010000000 1.0
C      1  0.5585470000000  0.5597370000000  0.5041270000000 1.0
C      1  0.4637520000000  0.5575850000000  0.5436130000000 1.0
C      1  0.4806720000000  0.5664990000000  0.5243050000000 1.0
C      1  0.4877290000000  0.5705030000000  0.4693310000000 1.0
C      1  0.5328140000000  0.5691920000000  0.5036930000000 1.0
C      1  0.4205660000000  0.5114060000000  0.4533510000000 1.0
C      1  0.5778130000000  0.5240000000000  0.4394170000000 1.0
C      1  0.4917710000000  0.5206350000000  0.5873460000000 1.0
C      1  0.4528020000000  0.4093310000000  0.5599050000000 1.0
C      1  0.4725010000000  0.4137380000000  0.4372450000000 1.0
C      1  0.5658660000000  0.4089510000000  0.5186450000000 1.0
C      1  0.4447420000000  0.5127380000000  0.5509330000000 1.0
C      1  0.4831370000000  0.5176500000000  0.4263300000000 1.0
C      1  0.5751910000000  0.5146020000000  0.5145970000000 1.0
C      1  0.5121070000000  0.5647590000000  0.5280350000000 1.0
C      1  0.4728290000000  0.5607340000000  0.4941690000000 1.0
C      1  0.5174400000000  0.5673770000000  0.4749260000000 1.0
C      1  0.4949730000000  0.5056560000000  0.4543060000000 1.0
C      1  0.5450440000000  0.5022190000000  0.5162470000000 1.0
C      1  0.4658300000000  0.4952980000000  0.5331240000000 1.0
C      1  0.4446350000000  0.5464040000000  0.4906370000000 1.0
C      1  0.5363880000000  0.5619380000000  0.4499870000000 1.0
C      1  0.5217730000000  0.5469330000000  0.5531620000000 1.0
END
