TITL C-1154801-8518-128 -0.000106439142183139 125000 -312.597943222425 0 0 60 (C1) n - 1
REM
REM in /home/nfs/bkarasulu/CARBON/AIRSS/Generating-Clusters/AIREBO/Higher-Symm/Only-C60
REM
REM
REM
REM
REM
REM ./C.cell (28575a23ae977d3b5fae324c64b13b57)
REM
REM compiler GCC version 9.2.1 20190827 (Red Hat 9.2.1-1)
REM options -cpp -mtune=generic -march=x86-64 -g -O0 -fpre-include=/usr/include/finclude/math-vector-fortran.h
REM seed 556137829 1178168467 609094173 1595625737 1177148140 654061808 1648371993 -1460534339 1631095415 -2000802533 1406666012 1907125595 1929053399 -1401873626 -28346090 -1511568692 -269153209 310284466 -634866939 1800973658 -1807832455 -1423706563 677192052 -1746465677 119956270 782181642 901236686 120541133 -1347165120 455757604 -670793667 1022901715 220652398
REM
CELL 1.54180   50.00000   50.00000   50.00000   90.00000   90.00000   90.00000
LATT -1
SFAC C  
C      1  0.4764900000000  0.4409300000000  0.4752700000000 1.0
C      1  0.5038500000000  0.4335570000000  0.4637180000000 1.0
C      1  0.5260410000000  0.4402690000000  0.4837860000000 1.0
C      1  0.5242990000000  0.4407800000000  0.5149580000000 1.0
C      1  0.4973450000000  0.4528830000000  0.5253690000000 1.0
C      1  0.4730870000000  0.4374470000000  0.5091470000000 1.0
C      1  0.5288500000000  0.5538090000000  0.4845770000000 1.0
C      1  0.4998570000000  0.5545200000000  0.4720330000000 1.0
C      1  0.4707680000000  0.5572780000000  0.4872670000000 1.0
C      1  0.4723380000000  0.5673300000000  0.5175780000000 1.0
C      1  0.5034250000000  0.5612540000000  0.5300990000000 1.0
C      1  0.5315850000000  0.5610110000000  0.5164660000000 1.0
C      1  0.5454080000000  0.4581080000000  0.5254070000000 1.0
C      1  0.5051080000000  0.4580150000000  0.5574400000000 1.0
C      1  0.4610780000000  0.4411890000000  0.5375220000000 1.0
C      1  0.4438790000000  0.4462880000000  0.4833990000000 1.0
C      1  0.5122790000000  0.4422720000000  0.4383180000000 1.0
C      1  0.5457440000000  0.4492730000000  0.4590110000000 1.0
C      1  0.4418800000000  0.5540430000000  0.5184200000000 1.0
C      1  0.4875560000000  0.5877060000000  0.5401070000000 1.0
C      1  0.5500140000000  0.5399990000000  0.5312990000000 1.0
C      1  0.5597030000000  0.5540570000000  0.4946980000000 1.0
C      1  0.4983280000000  0.5365460000000  0.4468150000000 1.0
C      1  0.4624500000000  0.5540160000000  0.4580570000000 1.0
C      1  0.4675030000000  0.5253100000000  0.4426090000000 1.0
C      1  0.5266230000000  0.5211360000000  0.4425310000000 1.0
C      1  0.5599520000000  0.5214990000000  0.5045420000000 1.0
C      1  0.5355330000000  0.5222930000000  0.5542340000000 1.0
C      1  0.4634740000000  0.5169840000000  0.5583620000000 1.0
C      1  0.4392120000000  0.5257030000000  0.5072310000000 1.0
C      1  0.5317950000000  0.4696450000000  0.4364670000000 1.0
C      1  0.4670070000000  0.4863250000000  0.4499950000000 1.0
C      1  0.4392630000000  0.4725100000000  0.4981810000000 1.0
C      1  0.4722830000000  0.4660280000000  0.5536060000000 1.0
C      1  0.5306060000000  0.4784500000000  0.5480300000000 1.0
C      1  0.5615080000000  0.4770600000000  0.5028740000000 1.0
C      1  0.5123150000000  0.4952840000000  0.4304390000000 1.0
C      1  0.5557310000000  0.4996880000000  0.4784830000000 1.0
C      1  0.5581650000000  0.4976710000000  0.5509710000000 1.0
C      1  0.4845920000000  0.4954450000000  0.5656180000000 1.0
C      1  0.4340170000000  0.4956830000000  0.5204580000000 1.0
C      1  0.4447380000000  0.5051770000000  0.4581940000000 1.0
C      1  0.4843400000000  0.4989280000000  0.4292020000000 1.0
C      1  0.4324290000000  0.5018850000000  0.4851140000000 1.0
C      1  0.4510790000000  0.4911380000000  0.5447480000000 1.0
C      1  0.5111520000000  0.5016890000000  0.5629400000000 1.0
C      1  0.5732350000000  0.4983710000000  0.5254080000000 1.0
C      1  0.5437280000000  0.4956760000000  0.4549730000000 1.0
C      1  0.5227430000000  0.5221300000000  0.4762970000000 1.0
C      1  0.5267690000000  0.5159450000000  0.5094960000000 1.0
C      1  0.5103530000000  0.5306410000000  0.5329570000000 1.0
C      1  0.4826380000000  0.5152100000000  0.5309170000000 1.0
C      1  0.4704370000000  0.5290520000000  0.5062480000000 1.0
C      1  0.4900940000000  0.5228440000000  0.4833840000000 1.0
C      1  0.4822500000000  0.4743010000000  0.4722130000000 1.0
C      1  0.4703890000000  0.4700750000000  0.5014830000000 1.0
C      1  0.4878030000000  0.4854780000000  0.5223800000000 1.0
C      1  0.5186760000000  0.4873580000000  0.5174630000000 1.0
C      1  0.5298470000000  0.4722810000000  0.4913950000000 1.0
C      1  0.5063580000000  0.4925260000000  0.4797950000000 1.0
END
