TITL C-1154821-8623-333 -0.000183001118952403 125000 -320.90193707893 0 0 60 (C1) n - 1
REM
REM in /home/nfs/bkarasulu/CARBON/AIRSS/Generating-Clusters/AIREBO/Higher-Symm/Only-C60
REM
REM
REM
REM
REM
REM ./C.cell (28575a23ae977d3b5fae324c64b13b57)
REM
REM compiler GCC version 9.2.1 20190827 (Red Hat 9.2.1-1)
REM options -cpp -mtune=generic -march=x86-64 -g -O0 -fpre-include=/usr/include/finclude/math-vector-fortran.h
REM seed -2134038637 -2069665160 -1122458219 -1567940773 -1391167542 -1436065531 1889114872 1035907814 296023689 807753015 135744479 -1673059454 -1942236323 -782921270 1566011385 463592014 -1337479559 -331766392 21131747 -1696596783 913087360 -1633494659 -627004758 -267854638 1483701358 1531450780 -1146061289 646030597 49097540 1903331406 178438038 919044665 812283578
REM
CELL 1.54180   50.00000   50.00000   50.00000   90.00000   90.00000   90.00000
LATT -1
SFAC C  
C      1  0.4551210000000  0.5035840000000  0.4813180000000 1.0
C      1  0.4827290000000  0.4441260000000  0.4738850000000 1.0
C      1  0.5658910000000  0.4881400000000  0.4813980000000 1.0
C      1  0.5178650000000  0.5652460000000  0.4860990000000 1.0
C      1  0.5631620000000  0.5092720000000  0.5179170000000 1.0
C      1  0.5024510000000  0.4501550000000  0.5188390000000 1.0
C      1  0.4482570000000  0.4879680000000  0.5290690000000 1.0
C      1  0.4839660000000  0.5687880000000  0.5214360000000 1.0
C      1  0.4502220000000  0.4701270000000  0.4600930000000 1.0
C      1  0.5296030000000  0.4516250000000  0.4591900000000 1.0
C      1  0.5464010000000  0.5267080000000  0.4633450000000 1.0
C      1  0.4728500000000  0.5496020000000  0.4725390000000 1.0
C      1  0.5453830000000  0.4734800000000  0.5429720000000 1.0
C      1  0.4691280000000  0.4473210000000  0.5403780000000 1.0
C      1  0.4501160000000  0.5319510000000  0.5420700000000 1.0
C      1  0.5316990000000  0.5511000000000  0.5345000000000 1.0
C      1  0.4775440000000  0.4990240000000  0.4561630000000 1.0
C      1  0.4914990000000  0.4682780000000  0.4518930000000 1.0
C      1  0.5159030000000  0.4889440000000  0.4596890000000 1.0
C      1  0.5034680000000  0.5187790000000  0.4658880000000 1.0
C      1  0.5163830000000  0.5071510000000  0.5363120000000 1.0
C      1  0.5044190000000  0.4756980000000  0.5412370000000 1.0
C      1  0.4759010000000  0.4934660000000  0.5481710000000 1.0
C      1  0.4910700000000  0.5238160000000  0.5459820000000 1.0
C      1  0.5280570000000  0.4720790000000  0.5143620000000 1.0
C      1  0.5335160000000  0.5246880000000  0.5141230000000 1.0
C      1  0.4753640000000  0.5398500000000  0.5247480000000 1.0
C      1  0.4741310000000  0.4703110000000  0.5158240000000 1.0
C      1  0.4717600000000  0.4725920000000  0.4862890000000 1.0
C      1  0.4741130000000  0.5272660000000  0.4966410000000 1.0
C      1  0.5245000000000  0.5355920000000  0.4839730000000 1.0
C      1  0.5355660000000  0.4755580000000  0.4824620000000 1.0
C      1  0.4814520000000  0.4234250000000  0.5196650000000 1.0
C      1  0.5654650000000  0.4825800000000  0.5237870000000 1.0
C      1  0.5105190000000  0.5748470000000  0.5241930000000 1.0
C      1  0.4345870000000  0.5163580000000  0.5237400000000 1.0
C      1  0.5132550000000  0.4345760000000  0.4746530000000 1.0
C      1  0.4323400000000  0.4785180000000  0.4843900000000 1.0
C      1  0.4918420000000  0.5730730000000  0.4824970000000 1.0
C      1  0.5678640000000  0.5165450000000  0.4789500000000 1.0
C      1  0.5686610000000  0.4638420000000  0.5014520000000 1.0
C      1  0.5368380000000  0.5776840000000  0.5053380000000 1.0
C      1  0.4342280000000  0.5256360000000  0.4965970000000 1.0
C      1  0.4644820000000  0.4265600000000  0.4930860000000 1.0
C      1  0.4348760000000  0.4664980000000  0.5096060000000 1.0
C      1  0.4634990000000  0.5767460000000  0.4998630000000 1.0
C      1  0.5719930000000  0.5352260000000  0.5038290000000 1.0
C      1  0.5245200000000  0.4333790000000  0.5003650000000 1.0
C      1  0.4581090000000  0.4814470000000  0.4344950000000 1.0
C      1  0.5184690000000  0.4590040000000  0.4333810000000 1.0
C      1  0.5358460000000  0.5097120000000  0.4444430000000 1.0
C      1  0.4855330000000  0.5368660000000  0.4465460000000 1.0
C      1  0.5346940000000  0.4931220000000  0.5605490000000 1.0
C      1  0.4915290000000  0.4536920000000  0.5637310000000 1.0
C      1  0.4569070000000  0.5161550000000  0.5649240000000 1.0
C      1  0.5134050000000  0.5405670000000  0.5580200000000 1.0
C      1  0.5521940000000  0.4403840000000  0.5023030000000 1.0
C      1  0.4465920000000  0.4414420000000  0.5150820000000 1.0
C      1  0.4436870000000  0.5521780000000  0.4901670000000 1.0
C      1  0.5585740000000  0.5576520000000  0.5142180000000 1.0
END
