TITL C-1154823-9327-693 -0.00146545839861796 125000 -334.710653781966 0 0 60 (C1) n - 1
REM
REM in /home/nfs/bkarasulu/CARBON/AIRSS/Generating-Clusters/AIREBO/Higher-Symm/Only-C60
REM
REM
REM
REM
REM
REM ./C.cell (28575a23ae977d3b5fae324c64b13b57)
REM
REM compiler GCC version 9.2.1 20190827 (Red Hat 9.2.1-1)
REM options -cpp -mtune=generic -march=x86-64 -g -O0 -fpre-include=/usr/include/finclude/math-vector-fortran.h
REM seed -1827434169 -1120935475 804960956 860560455 196152350 43434088 -1959737389 133894862 -1786364140 -1688252431 1911505165 -387810425 704904194 932811280 -949805307 -294736289 1090778240 -23497956 387399111 -1264303086 118567686 1572736161 -829086508 198992865 -1069883576 -622519770 1609461354 -237789882 1461609615 -48596958 950048654 -1878284814 -286931866
REM
CELL 1.54180   50.00000   50.00000   50.00000   90.00000   90.00000   90.00000
LATT -1
SFAC C  
C      1  0.4816680000000  0.4972820000000  0.4748750000000 1.0
C      1  0.5048370000000  0.4755600000000  0.4873610000000 1.0
C      1  0.5213660000000  0.4985770000000  0.4725890000000 1.0
C      1  0.5005020000000  0.5203430000000  0.4876050000000 1.0
C      1  0.4754930000000  0.4948050000000  0.5160650000000 1.0
C      1  0.5057940000000  0.4812270000000  0.5179630000000 1.0
C      1  0.5286170000000  0.5060560000000  0.5222930000000 1.0
C      1  0.4976950000000  0.5201390000000  0.5210020000000 1.0
C      1  0.4593500000000  0.4688490000000  0.5536400000000 1.0
C      1  0.5284410000000  0.4621490000000  0.5445390000000 1.0
C      1  0.5385130000000  0.5341460000000  0.5495700000000 1.0
C      1  0.4633460000000  0.5387450000000  0.5525510000000 1.0
C      1  0.4637260000000  0.4633770000000  0.4525740000000 1.0
C      1  0.5377610000000  0.4643090000000  0.4453640000000 1.0
C      1  0.5358030000000  0.5354080000000  0.4490570000000 1.0
C      1  0.4665120000000  0.5354490000000  0.4507430000000 1.0
C      1  0.5660140000000  0.5355410000000  0.5104550000000 1.0
C      1  0.4664070000000  0.5665500000000  0.5111300000000 1.0
C      1  0.4269810000000  0.4687820000000  0.5132510000000 1.0
C      1  0.5447480000000  0.4299870000000  0.5138680000000 1.0
C      1  0.5685610000000  0.5440210000000  0.4837540000000 1.0
C      1  0.4587060000000  0.5695590000000  0.4830680000000 1.0
C      1  0.4277730000000  0.4589200000000  0.4849890000000 1.0
C      1  0.5406190000000  0.4304050000000  0.4839850000000 1.0
C      1  0.4815570000000  0.5164340000000  0.4388410000000 1.0
C      1  0.4876220000000  0.4835640000000  0.4451130000000 1.0
C      1  0.5192680000000  0.4820720000000  0.4362280000000 1.0
C      1  0.5134900000000  0.5138660000000  0.4441510000000 1.0
C      1  0.4846660000000  0.5175160000000  0.5523070000000 1.0
C      1  0.4791810000000  0.4859810000000  0.5617470000000 1.0
C      1  0.5100670000000  0.4868740000000  0.5512190000000 1.0
C      1  0.5170820000000  0.5193660000000  0.5581320000000 1.0
C      1  0.4560440000000  0.4448650000000  0.4800400000000 1.0
C      1  0.5527810000000  0.4595240000000  0.4725030000000 1.0
C      1  0.5407120000000  0.5562210000000  0.4733850000000 1.0
C      1  0.4452100000000  0.5417460000000  0.4734020000000 1.0
C      1  0.4538900000000  0.4536340000000  0.5270260000000 1.0
C      1  0.5501750000000  0.4582840000000  0.5232440000000 1.0
C      1  0.5447010000000  0.5489890000000  0.5242960000000 1.0
C      1  0.4496120000000  0.5428920000000  0.5249060000000 1.0
C      1  0.5029510000000  0.5491720000000  0.4797450000000 1.0
C      1  0.4519180000000  0.5017480000000  0.4777480000000 1.0
C      1  0.5101200000000  0.4453720000000  0.4825220000000 1.0
C      1  0.5508980000000  0.4987880000000  0.4763580000000 1.0
C      1  0.4970650000000  0.5540940000000  0.5189430000000 1.0
C      1  0.4458950000000  0.4968090000000  0.5168400000000 1.0
C      1  0.4958030000000  0.4366560000000  0.5083250000000 1.0
C      1  0.5591050000000  0.5040500000000  0.5150890000000 1.0
C      1  0.5256500000000  0.4375410000000  0.4542620000000 1.0
C      1  0.5599160000000  0.5226280000000  0.4640490000000 1.0
C      1  0.4806110000000  0.5582080000000  0.4656040000000 1.0
C      1  0.4402300000000  0.4786090000000  0.4659820000000 1.0
C      1  0.5170290000000  0.4366990000000  0.5283210000000 1.0
C      1  0.5630200000000  0.5171450000000  0.5457340000000 1.0
C      1  0.4762920000000  0.5660700000000  0.5432020000000 1.0
C      1  0.4325970000000  0.4822800000000  0.5440820000000 1.0
C      1  0.5618390000000  0.4770060000000  0.4990810000000 1.0
C      1  0.5243820000000  0.5610460000000  0.5028290000000 1.0
C      1  0.4410640000000  0.5238680000000  0.5008660000000 1.0
C      1  0.4683250000000  0.4401940000000  0.5066320000000 1.0
END
