TITL C-1154824-75-437 -0.000329751266148589 125000 -351.300703587656 0 0 60 (C1) n - 1
REM
REM in /home/nfs/bkarasulu/CARBON/AIRSS/Generating-Clusters/AIREBO/Higher-Symm/Only-C60
REM
REM
REM
REM
REM
REM ./C.cell (28575a23ae977d3b5fae324c64b13b57)
REM
REM compiler GCC version 9.2.1 20190827 (Red Hat 9.2.1-1)
REM options -cpp -mtune=generic -march=x86-64 -g -O0 -fpre-include=/usr/include/finclude/math-vector-fortran.h
REM seed 1752623471 -932441255 955374617 -1915355914 1302216273 -490866255 1485534398 -1868031131 -11141223 -608615846 904209221 1088502826 1917942477 1825950052 -2020758097 1878492166 -1486497408 -372573613 2142469674 2085315646 -906293396 -1857492177 -1457119969 -1147132259 -994643710 -323762841 944425741 1807574453 -492958092 731372174 1924552733 1177565040 488214755
REM
CELL 1.54180   50.00000   50.00000   50.00000   90.00000   90.00000   90.00000
LATT -1
SFAC C  
C      1  0.5281120000000  0.5385570000000  0.5493880000000 1.0
C      1  0.5256260000000  0.4692970000000  0.4638530000000 1.0
C      1  0.4727080000000  0.5375110000000  0.5415400000000 1.0
C      1  0.4714750000000  0.4586940000000  0.4531840000000 1.0
C      1  0.4736990000000  0.5205720000000  0.4786080000000 1.0
C      1  0.4856020000000  0.5014670000000  0.5302270000000 1.0
C      1  0.5260010000000  0.5024710000000  0.4717400000000 1.0
C      1  0.5186810000000  0.4915480000000  0.5269010000000 1.0
C      1  0.5567890000000  0.4991550000000  0.4354240000000 1.0
C      1  0.5583260000000  0.4952590000000  0.5705450000000 1.0
C      1  0.4412620000000  0.5039610000000  0.4371540000000 1.0
C      1  0.4425000000000  0.4871150000000  0.5614200000000 1.0
C      1  0.5424880000000  0.5316080000000  0.5197670000000 1.0
C      1  0.5356820000000  0.4724070000000  0.4961850000000 1.0
C      1  0.4571810000000  0.5249620000000  0.5147370000000 1.0
C      1  0.4524520000000  0.4700320000000  0.4763980000000 1.0
C      1  0.5331860000000  0.5601380000000  0.5045530000000 1.0
C      1  0.5296820000000  0.4258210000000  0.4878980000000 1.0
C      1  0.4678670000000  0.5561250000000  0.5070100000000 1.0
C      1  0.4694140000000  0.4445560000000  0.4904600000000 1.0
C      1  0.4456420000000  0.5353670000000  0.4711560000000 1.0
C      1  0.4656740000000  0.4797900000000  0.5207870000000 1.0
C      1  0.5469870000000  0.5292320000000  0.4721870000000 1.0
C      1  0.5500130000000  0.4833550000000  0.5243560000000 1.0
C      1  0.4835190000000  0.5602860000000  0.4606440000000 1.0
C      1  0.4902130000000  0.4447960000000  0.5403240000000 1.0
C      1  0.5113350000000  0.5535110000000  0.4589480000000 1.0
C      1  0.5205140000000  0.4436310000000  0.5353720000000 1.0
C      1  0.5168550000000  0.5600570000000  0.5307200000000 1.0
C      1  0.5153130000000  0.4395320000000  0.4676710000000 1.0
C      1  0.4882530000000  0.5618950000000  0.5299640000000 1.0
C      1  0.4874820000000  0.4365910000000  0.4663370000000 1.0
C      1  0.5662130000000  0.5108550000000  0.5168040000000 1.0
C      1  0.5626440000000  0.4928690000000  0.4881580000000 1.0
C      1  0.4359240000000  0.5043000000000  0.5105030000000 1.0
C      1  0.4324110000000  0.4933070000000  0.4840670000000 1.0
C      1  0.5160710000000  0.4716220000000  0.5543310000000 1.0
C      1  0.5159560000000  0.5241400000000  0.4474990000000 1.0
C      1  0.4856900000000  0.4652630000000  0.5636570000000 1.0
C      1  0.4843650000000  0.5258000000000  0.4489890000000 1.0
C      1  0.4699970000000  0.5031150000000  0.4344840000000 1.0
C      1  0.4703530000000  0.4881540000000  0.5680290000000 1.0
C      1  0.5285860000000  0.5015070000000  0.4302150000000 1.0
C      1  0.5298750000000  0.4955090000000  0.5697810000000 1.0
C      1  0.4308490000000  0.5125990000000  0.4629210000000 1.0
C      1  0.4375920000000  0.4853820000000  0.5334310000000 1.0
C      1  0.5645380000000  0.5060550000000  0.4621410000000 1.0
C      1  0.5705640000000  0.4939730000000  0.5463040000000 1.0
C      1  0.5158550000000  0.5194970000000  0.5654980000000 1.0
C      1  0.5123380000000  0.4792980000000  0.4374860000000 1.0
C      1  0.4859140000000  0.5151090000000  0.5597540000000 1.0
C      1  0.4839770000000  0.4783170000000  0.4370750000000 1.0
C      1  0.4747300000000  0.4510050000000  0.5173900000000 1.0
C      1  0.4620270000000  0.5588050000000  0.4794470000000 1.0
C      1  0.5328970000000  0.4425830000000  0.5108190000000 1.0
C      1  0.5335800000000  0.5536860000000  0.4770770000000 1.0
C      1  0.4900500000000  0.5229430000000  0.5062420000000 1.0
C      1  0.4738250000000  0.4902250000000  0.4904030000000 1.0
C      1  0.5201900000000  0.5152080000000  0.5025170000000 1.0
C      1  0.5024560000000  0.4795750000000  0.4995190000000 1.0
END
