TITL C-1154825-9328-336 -0.00227559402282786 125000 -331.239405670942 0 0 60 (C1) n - 1
REM
REM in /home/nfs/bkarasulu/CARBON/AIRSS/Generating-Clusters/AIREBO/Higher-Symm/Only-C60
REM
REM
REM
REM
REM
REM ./C.cell (28575a23ae977d3b5fae324c64b13b57)
REM
REM compiler GCC version 9.2.1 20190827 (Red Hat 9.2.1-1)
REM options -cpp -mtune=generic -march=x86-64 -g -O0 -fpre-include=/usr/include/finclude/math-vector-fortran.h
REM seed 176756632 -1704826751 1414271539 268935417 63862077 -1871148219 320546227 1160680011 1868094985 -1126686631 -397751376 -1806444009 2125147518 -1245973992 684974118 -683371690 206466146 -627225966 923300049 14364150 -2065798048 1903195240 1787249415 -1613452138 -892076227 -1604372157 25614964 -1083561503 -1367264929 1459988529 26273834 -443189025 305260908
REM
CELL 1.54180   50.00000   50.00000   50.00000   90.00000   90.00000   90.00000
LATT -1
SFAC C  
C      1  0.5143250000000  0.4772730000000  0.5421550000000 1.0
C      1  0.4729060000000  0.5014030000000  0.5432910000000 1.0
C      1  0.5151980000000  0.5255530000000  0.5407430000000 1.0
C      1  0.5158010000000  0.4764510000000  0.4508620000000 1.0
C      1  0.4742500000000  0.5011070000000  0.4488860000000 1.0
C      1  0.5179940000000  0.5250550000000  0.4497320000000 1.0
C      1  0.4868530000000  0.4774300000000  0.5433950000000 1.0
C      1  0.5291060000000  0.5015410000000  0.5416640000000 1.0
C      1  0.4872350000000  0.5247460000000  0.5425700000000 1.0
C      1  0.4886700000000  0.4782950000000  0.4547910000000 1.0
C      1  0.5311670000000  0.5003830000000  0.4492760000000 1.0
C      1  0.4901550000000  0.5249670000000  0.4449530000000 1.0
C      1  0.4816160000000  0.6000930000000  0.4497290000000 1.0
C      1  0.5811840000000  0.4538960000000  0.4452040000000 1.0
C      1  0.4087430000000  0.4486250000000  0.4482480000000 1.0
C      1  0.4965860000000  0.5870280000000  0.5688130000000 1.0
C      1  0.5792970000000  0.4571230000000  0.5498400000000 1.0
C      1  0.3926400000000  0.4755860000000  0.5481350000000 1.0
C      1  0.4885590000000  0.5799380000000  0.4637520000000 1.0
C      1  0.4254240000000  0.4606770000000  0.4633310000000 1.0
C      1  0.5939360000000  0.4437840000000  0.4255460000000 1.0
C      1  0.4986980000000  0.5774110000000  0.5452610000000 1.0
C      1  0.4131940000000  0.4721960000000  0.5334000000000 1.0
C      1  0.5914330000000  0.4483770000000  0.5705180000000 1.0
C      1  0.4484530000000  0.4997040000000  0.5224840000000 1.0
C      1  0.5240890000000  0.5472990000000  0.5254160000000 1.0
C      1  0.5307980000000  0.4599070000000  0.5229930000000 1.0
C      1  0.4514740000000  0.5060260000000  0.4702820000000 1.0
C      1  0.5237440000000  0.5434620000000  0.4701730000000 1.0
C      1  0.5320890000000  0.4592060000000  0.4700110000000 1.0
C      1  0.5519780000000  0.4960450000000  0.5222290000000 1.0
C      1  0.4759140000000  0.5442250000000  0.5215190000000 1.0
C      1  0.4706310000000  0.4578580000000  0.5253260000000 1.0
C      1  0.5534430000000  0.4943910000000  0.4693270000000 1.0
C      1  0.4739050000000  0.5310910000000  0.4753160000000 1.0
C      1  0.4766840000000  0.4654850000000  0.4788010000000 1.0
C      1  0.5650580000000  0.5208130000000  0.5107420000000 1.0
C      1  0.4854420000000  0.4341410000000  0.5152550000000 1.0
C      1  0.4471800000000  0.5497340000000  0.5152950000000 1.0
C      1  0.5670630000000  0.5190290000000  0.4795090000000 1.0
C      1  0.4879440000000  0.4384240000000  0.4851600000000 1.0
C      1  0.4455560000000  0.5479200000000  0.4842670000000 1.0
C      1  0.4325960000000  0.5230740000000  0.5125120000000 1.0
C      1  0.5165820000000  0.4354490000000  0.5124000000000 1.0
C      1  0.5486870000000  0.5470660000000  0.5130850000000 1.0
C      1  0.4259080000000  0.5218770000000  0.4821890000000 1.0
C      1  0.5178810000000  0.4351190000000  0.4807270000000 1.0
C      1  0.5484220000000  0.5435030000000  0.4826280000000 1.0
C      1  0.4454100000000  0.4751030000000  0.4813540000000 1.0
C      1  0.4400890000000  0.4678100000000  0.5141680000000 1.0
C      1  0.5654540000000  0.4630670000000  0.4692110000000 1.0
C      1  0.5643640000000  0.4646300000000  0.5247670000000 1.0
C      1  0.4970510000000  0.5554250000000  0.4808260000000 1.0
C      1  0.4987750000000  0.5663710000000  0.5131000000000 1.0
C      1  0.5404080000000  0.4783100000000  0.4961420000000 1.0
C      1  0.4748860000000  0.4856160000000  0.5061500000000 1.0
C      1  0.4824090000000  0.5158530000000  0.5039390000000 1.0
C      1  0.5072410000000  0.5949130000000  0.5044570000000 1.0
C      1  0.4298770000000  0.4364790000000  0.5086330000000 1.0
C      1  0.5775470000000  0.4566360000000  0.4974270000000 1.0
END
