TITL C-1154816-9297-648 -0.000240599395209598 125000 -320.670372761319 0 0 60 (C1) n - 1
REM
REM in /home/nfs/bkarasulu/CARBON/AIRSS/Generating-Clusters/AIREBO/Higher-Symm/Only-C60
REM
REM
REM
REM
REM
REM ./C.cell (28575a23ae977d3b5fae324c64b13b57)
REM
REM compiler GCC version 9.2.1 20190827 (Red Hat 9.2.1-1)
REM options -cpp -mtune=generic -march=x86-64 -g -O0 -fpre-include=/usr/include/finclude/math-vector-fortran.h
REM seed 1912002784 -1350222531 -999642209 740716272 -1772055270 1577491306 -214776257 -1464368535 1029255160 79504877 -293205709 1209184091 -2032022683 1311201401 798511074 1515820520 -1979949888 -1922405161 104689207 -437057214 -301794917 -1138981663 385952691 917760806 549650163 -1224130593 829511481 1317086063 -1427052361 535814630 1030112481 -768833444 -1380213986
REM
CELL 1.54180   50.00000   50.00000   50.00000   90.00000   90.00000   90.00000
LATT -1
SFAC C  
C      1  0.5382130000000  0.4775880000000  0.4723060000000 1.0
C      1  0.4544240000000  0.4766360000000  0.4749570000000 1.0
C      1  0.5007120000000  0.5498790000000  0.4736190000000 1.0
C      1  0.5495170000000  0.5363510000000  0.5141330000000 1.0
C      1  0.4461230000000  0.5279450000000  0.5143330000000 1.0
C      1  0.5032660000000  0.4428860000000  0.5135080000000 1.0
C      1  0.4862300000000  0.5607560000000  0.5412680000000 1.0
C      1  0.5576960000000  0.4828710000000  0.5392910000000 1.0
C      1  0.4544070000000  0.4600000000000  0.5401450000000 1.0
C      1  0.4878440000000  0.4410360000000  0.4567380000000 1.0
C      1  0.5623080000000  0.5185210000000  0.4532140000000 1.0
C      1  0.4550340000000  0.5403340000000  0.4566460000000 1.0
C      1  0.5369510000000  0.5098620000000  0.4321250000000 1.0
C      1  0.4974970000000  0.4571410000000  0.4355860000000 1.0
C      1  0.4732340000000  0.5195790000000  0.4367690000000 1.0
C      1  0.5344390000000  0.4850740000000  0.5608440000000 1.0
C      1  0.4942330000000  0.5384290000000  0.5626410000000 1.0
C      1  0.4709670000000  0.4770210000000  0.5611150000000 1.0
C      1  0.5106690000000  0.4749220000000  0.5128680000000 1.0
C      1  0.4703880000000  0.5058500000000  0.5153400000000 1.0
C      1  0.5180350000000  0.5246810000000  0.5162690000000 1.0
C      1  0.5227870000000  0.5289810000000  0.4856510000000 1.0
C      1  0.4636840000000  0.5078360000000  0.4848100000000 1.0
C      1  0.5083280000000  0.4663480000000  0.4817310000000 1.0
C      1  0.5260480000000  0.5060320000000  0.4641070000000 1.0
C      1  0.4853650000000  0.4793630000000  0.4675090000000 1.0
C      1  0.4868920000000  0.5193330000000  0.4679110000000 1.0
C      1  0.5219660000000  0.4974900000000  0.5303200000000 1.0
C      1  0.4909590000000  0.5226170000000  0.5313840000000 1.0
C      1  0.4848850000000  0.4829630000000  0.5292180000000 1.0
C      1  0.5573990000000  0.4552950000000  0.5295300000000 1.0
C      1  0.4306490000000  0.4755520000000  0.5335650000000 1.0
C      1  0.5105860000000  0.5744410000000  0.5331360000000 1.0
C      1  0.5564360000000  0.5277470000000  0.4818960000000 1.0
C      1  0.4375840000000  0.5288530000000  0.4812880000000 1.0
C      1  0.5065900000000  0.4324940000000  0.4812240000000 1.0
C      1  0.5153940000000  0.5115990000000  0.5603960000000 1.0
C      1  0.5035430000000  0.4737500000000  0.5561140000000 1.0
C      1  0.4819160000000  0.5073400000000  0.5603870000000 1.0
C      1  0.5172500000000  0.4831500000000  0.4332330000000 1.0
C      1  0.5071380000000  0.5223670000000  0.4407640000000 1.0
C      1  0.4854050000000  0.4891810000000  0.4377970000000 1.0
C      1  0.4072180000000  0.4695200000000  0.5457300000000 1.0
C      1  0.5164780000000  0.5984690000000  0.5441450000000 1.0
C      1  0.5772580000000  0.4385980000000  0.5373910000000 1.0
C      1  0.4078500000000  0.5291560000000  0.4768830000000 1.0
C      1  0.5210200000000  0.4064390000000  0.4781130000000 1.0
C      1  0.5817930000000  0.5445640000000  0.4925330000000 1.0
C      1  0.5285380000000  0.5630750000000  0.5135790000000 1.0
C      1  0.5371500000000  0.4451880000000  0.5112340000000 1.0
C      1  0.4314450000000  0.4972480000000  0.5144160000000 1.0
C      1  0.5439620000000  0.4486480000000  0.4847490000000 1.0
C      1  0.5218090000000  0.5688700000000  0.4875820000000 1.0
C      1  0.4288510000000  0.4885530000000  0.4885350000000 1.0
C      1  0.4617550000000  0.5539160000000  0.5292200000000 1.0
C      1  0.5624670000000  0.5087730000000  0.5293290000000 1.0
C      1  0.4724150000000  0.4423330000000  0.5272780000000 1.0
C      1  0.4621270000000  0.4469600000000  0.4646570000000 1.0
C      1  0.5624920000000  0.4885920000000  0.4542620000000 1.0
C      1  0.4723820000000  0.5610030000000  0.4646800000000 1.0
END
