TITL C-1154808-8168-683 -0.0005007864775391 125000 -329.468295184358 0 0 60 (Ci) n - 1
REM
REM in /home/nfs/bkarasulu/CARBON/AIRSS/Generating-Clusters/AIREBO/Higher-Symm/Only-C60
REM
REM
REM
REM
REM
REM ./C.cell (28575a23ae977d3b5fae324c64b13b57)
REM
REM compiler GCC version 9.2.1 20190827 (Red Hat 9.2.1-1)
REM options -cpp -mtune=generic -march=x86-64 -g -O0 -fpre-include=/usr/include/finclude/math-vector-fortran.h
REM seed -313439756 -1352862048 -1087080183 -942904429 540253301 -1737695020 -640375508 1362402233 1433730936 -331905399 1839289877 -1150354755 1099153504 -1478641541 -482034435 -230351598 1572739936 1617490785 -1691860848 -784033675 2050747120 973519238 1741394948 1145209342 732404809 -1407735322 313659748 2003735784 1629987314 -62934252 -72785434 1139708798 456534085
REM
CELL 1.54180   50.00000   50.00000   50.00000   90.00000   90.00000   90.00000
LATT -1
SFAC C  
C      1  0.4946730000000  0.5634780000000  0.5102660000000 1.0
C      1  0.5330440000000  0.5306740000000  0.4904720000000 1.0
C      1  0.5473000000000  0.4814880000000  0.5127620000000 1.0
C      1  0.5053270000000  0.4365220000000  0.4897340000000 1.0
C      1  0.4669560000000  0.4693260000000  0.5095280000000 1.0
C      1  0.4527000000000  0.5185120000000  0.4872380000000 1.0
C      1  0.5249510000000  0.5611180000000  0.4814300000000 1.0
C      1  0.5570640000000  0.5105400000000  0.5277850000000 1.0
C      1  0.5527100000000  0.4497580000000  0.4784000000000 1.0
C      1  0.4750490000000  0.4388820000000  0.5185700000000 1.0
C      1  0.4429360000000  0.4894600000000  0.4722150000000 1.0
C      1  0.4472900000000  0.5502420000000  0.5216000000000 1.0
C      1  0.5226450000000  0.5744810000000  0.5105230000000 1.0
C      1  0.5580390000000  0.5187650000000  0.4966890000000 1.0
C      1  0.5495490000000  0.4513840000000  0.5067650000000 1.0
C      1  0.4773550000000  0.4255190000000  0.4894770000000 1.0
C      1  0.4419610000000  0.4812350000000  0.5033110000000 1.0
C      1  0.4504510000000  0.5486160000000  0.4932350000000 1.0
C      1  0.4875240000000  0.5430950000000  0.5632280000000 1.0
C      1  0.5265870000000  0.5230740000000  0.4294620000000 1.0
C      1  0.5572030000000  0.4788160000000  0.5714640000000 1.0
C      1  0.5124760000000  0.4569050000000  0.4367720000000 1.0
C      1  0.4734130000000  0.4769260000000  0.5705380000000 1.0
C      1  0.4427970000000  0.5211840000000  0.4285360000000 1.0
C      1  0.5387970000000  0.4869410000000  0.4821890000000 1.0
C      1  0.5071460000000  0.4617960000000  0.5123640000000 1.0
C      1  0.4903420000000  0.4730770000000  0.4850380000000 1.0
C      1  0.4612030000000  0.5130590000000  0.5178110000000 1.0
C      1  0.4928540000000  0.5382040000000  0.4876360000000 1.0
C      1  0.5096580000000  0.5269230000000  0.5149620000000 1.0
C      1  0.4756120000000  0.5530820000000  0.5329880000000 1.0
C      1  0.5180320000000  0.5409930000000  0.4549120000000 1.0
C      1  0.5445920000000  0.4860780000000  0.5456170000000 1.0
C      1  0.5243880000000  0.4469180000000  0.4670120000000 1.0
C      1  0.4819680000000  0.4590070000000  0.5450880000000 1.0
C      1  0.4554080000000  0.5139220000000  0.4543830000000 1.0
C      1  0.4949680000000  0.5485880000000  0.5867710000000 1.0
C      1  0.5372100000000  0.5231850000000  0.4063590000000 1.0
C      1  0.5668030000000  0.4745180000000  0.5947160000000 1.0
C      1  0.5050320000000  0.4514120000000  0.4132290000000 1.0
C      1  0.4627900000000  0.4768150000000  0.5936410000000 1.0
C      1  0.4331970000000  0.5254820000000  0.4052840000000 1.0
C      1  0.5662920000000  0.4763140000000  0.4684010000000 1.0
C      1  0.5049420000000  0.4361020000000  0.5345280000000 1.0
C      1  0.4622000000000  0.4648480000000  0.4702400000000 1.0
C      1  0.4337080000000  0.5236860000000  0.5315990000000 1.0
C      1  0.4950580000000  0.5638980000000  0.4654720000000 1.0
C      1  0.5378000000000  0.5351520000000  0.5297600000000 1.0
C      1  0.5078310000000  0.5066930000000  0.4503990000000 1.0
C      1  0.5155080000000  0.4788330000000  0.5366800000000 1.0
C      1  0.5136250000000  0.4790080000000  0.4636440000000 1.0
C      1  0.4921690000000  0.4933070000000  0.5496010000000 1.0
C      1  0.4844920000000  0.5211670000000  0.4633200000000 1.0
C      1  0.4863750000000  0.5209920000000  0.5363560000000 1.0
C      1  0.5399290000000  0.5624110000000  0.5296520000000 1.0
C      1  0.5749650000000  0.5035910000000  0.4795930000000 1.0
C      1  0.5352130000000  0.4354460000000  0.5232110000000 1.0
C      1  0.4600710000000  0.4375890000000  0.4703480000000 1.0
C      1  0.4250350000000  0.4964090000000  0.5204070000000 1.0
C      1  0.4647870000000  0.5645540000000  0.4767890000000 1.0
END
