TITL C-1154801-8518-177 -7.71000207811876e-05 125000 -311.053814999054 0 0 60 (C1) n - 1
REM
REM in /home/nfs/bkarasulu/CARBON/AIRSS/Generating-Clusters/AIREBO/Higher-Symm/Only-C60
REM
REM
REM
REM
REM
REM ./C.cell (28575a23ae977d3b5fae324c64b13b57)
REM
REM compiler GCC version 9.2.1 20190827 (Red Hat 9.2.1-1)
REM options -cpp -mtune=generic -march=x86-64 -g -O0 -fpre-include=/usr/include/finclude/math-vector-fortran.h
REM seed 100935778 1432003190 -1899656643 877065287 -1444645883 1376445885 -64877419 2032839818 -2012135350 -2025581969 116374221 -354911694 -621088016 184339405 -907649281 -1763883227 314598260 856501196 2006860351 830754048 -975382247 -825497050 -1024483963 1160743473 1110141001 1704491432 2100545503 1203738716 1956125058 -1718746659 2011373777 820644100 2082191956
REM
CELL 1.54180   50.00000   50.00000   50.00000   90.00000   90.00000   90.00000
LATT -1
SFAC C  
C      1  0.4848900000000  0.5399950000000  0.4710470000000 1.0
C      1  0.5161990000000  0.5452050000000  0.4767380000000 1.0
C      1  0.5306600000000  0.5429460000000  0.5044960000000 1.0
C      1  0.5124760000000  0.5372380000000  0.5279620000000 1.0
C      1  0.4827490000000  0.5452340000000  0.5222310000000 1.0
C      1  0.4670210000000  0.5411200000000  0.4960280000000 1.0
C      1  0.4875390000000  0.4528480000000  0.4674640000000 1.0
C      1  0.5333290000000  0.4282660000000  0.4671940000000 1.0
C      1  0.5469530000000  0.4261020000000  0.4963730000000 1.0
C      1  0.5165910000000  0.4506140000000  0.5300500000000 1.0
C      1  0.4685760000000  0.4381300000000  0.5332840000000 1.0
C      1  0.4599260000000  0.4525410000000  0.5049030000000 1.0
C      1  0.4453660000000  0.5223130000000  0.4504740000000 1.0
C      1  0.5125430000000  0.5273200000000  0.4295070000000 1.0
C      1  0.5681090000000  0.5281370000000  0.4774040000000 1.0
C      1  0.5539420000000  0.5235310000000  0.5490770000000 1.0
C      1  0.4880930000000  0.5261550000000  0.5701430000000 1.0
C      1  0.4354500000000  0.5317740000000  0.5197910000000 1.0
C      1  0.4522670000000  0.4716900000000  0.4594430000000 1.0
C      1  0.5122780000000  0.4746080000000  0.4448440000000 1.0
C      1  0.5531560000000  0.4752630000000  0.4754810000000 1.0
C      1  0.5508530000000  0.4733780000000  0.5374650000000 1.0
C      1  0.4874730000000  0.4733920000000  0.5543390000000 1.0
C      1  0.4396640000000  0.4784970000000  0.5270110000000 1.0
C      1  0.4774900000000  0.5736310000000  0.5326610000000 1.0
C      1  0.4473340000000  0.5651100000000  0.4929490000000 1.0
C      1  0.4774590000000  0.5639690000000  0.4521680000000 1.0
C      1  0.5230020000000  0.5733120000000  0.4655390000000 1.0
C      1  0.5451500000000  0.5699020000000  0.5093100000000 1.0
C      1  0.5222690000000  0.5507150000000  0.5556640000000 1.0
C      1  0.4946960000000  0.4367670000000  0.5403660000000 1.0
C      1  0.4390420000000  0.4489250000000  0.5314590000000 1.0
C      1  0.4669480000000  0.4393120000000  0.4793970000000 1.0
C      1  0.5088180000000  0.4375420000000  0.4588080000000 1.0
C      1  0.5566220000000  0.4482190000000  0.4757520000000 1.0
C      1  0.5377200000000  0.4349070000000  0.5208480000000 1.0
C      1  0.5682250000000  0.5149120000000  0.5272580000000 1.0
C      1  0.5096600000000  0.5093030000000  0.5724950000000 1.0
C      1  0.4453280000000  0.5217720000000  0.5432710000000 1.0
C      1  0.4311810000000  0.5107200000000  0.4710190000000 1.0
C      1  0.4903540000000  0.5112590000000  0.4280000000000 1.0
C      1  0.5555930000000  0.5178910000000  0.4554030000000 1.0
C      1  0.5737250000000  0.4873740000000  0.5304820000000 1.0
C      1  0.5018820000000  0.4824190000000  0.5763000000000 1.0
C      1  0.4350950000000  0.4963070000000  0.5481240000000 1.0
C      1  0.4277520000000  0.4832760000000  0.4653750000000 1.0
C      1  0.4973850000000  0.4842780000000  0.4233860000000 1.0
C      1  0.5608570000000  0.4903750000000  0.4527830000000 1.0
C      1  0.4875430000000  0.4935400000000  0.5278340000000 1.0
C      1  0.4649790000000  0.4861420000000  0.5034190000000 1.0
C      1  0.4802040000000  0.4855990000000  0.4729750000000 1.0
C      1  0.5129810000000  0.4945990000000  0.4716040000000 1.0
C      1  0.5334020000000  0.4921900000000  0.4967370000000 1.0
C      1  0.5203020000000  0.4843240000000  0.5272770000000 1.0
C      1  0.4754770000000  0.5220800000000  0.5420430000000 1.0
C      1  0.4476850000000  0.5146140000000  0.4959370000000 1.0
C      1  0.4754400000000  0.5137930000000  0.4544340000000 1.0
C      1  0.5256980000000  0.5226460000000  0.4571790000000 1.0
C      1  0.5517180000000  0.5200310000000  0.5023970000000 1.0
C      1  0.5248830000000  0.5119470000000  0.5465990000000 1.0
END
