TITL C-1154826-9507-269 0.00332508786995874 125000 -322.096515060342 0 0 60 (C1) n - 1
REM
REM in /home/nfs/bkarasulu/CARBON/AIRSS/Generating-Clusters/AIREBO/Higher-Symm/Only-C60
REM
REM
REM
REM
REM
REM ./C.cell (28575a23ae977d3b5fae324c64b13b57)
REM
REM compiler GCC version 9.2.1 20190827 (Red Hat 9.2.1-1)
REM options -cpp -mtune=generic -march=x86-64 -g -O0 -fpre-include=/usr/include/finclude/math-vector-fortran.h
REM seed -589606572 1218114924 2051035286 2006099055 556947874 -1192043589 -1939943904 1805154315 498385922 -324933937 1675306872 -769583222 -1316451858 -737486543 -992130435 1774982306 -1272181803 -1924133299 -1495878024 1380458552 -793516387 627109729 -1436697384 -1555951546 -306923376 899467157 1314915211 -150801208 983983643 -1447004156 692078593 1176755790 -233832556
REM
CELL 1.54180   50.00000   50.00000   50.00000   90.00000   90.00000   90.00000
LATT -1
SFAC C  
C      1  0.5476640000000  0.5337240000000  0.5701310000000 1.0
C      1  0.4483970000000  0.5021650000000  0.4361430000000 1.0
C      1  0.4580160000000  0.5413900000000  0.4690450000000 1.0
C      1  0.5423320000000  0.4562560000000  0.5346190000000 1.0
C      1  0.6002690000000  0.4649820000000  0.5128870000000 1.0
C      1  0.4384620000000  0.5296690000000  0.4521120000000 1.0
C      1  0.4741390000000  0.4739770000000  0.4664710000000 1.0
C      1  0.5181640000000  0.5254460000000  0.5295910000000 1.0
C      1  0.5511060000000  0.3860620000000  0.4216700000000 1.0
C      1  0.4039910000000  0.5308910000000  0.5478850000000 1.0
C      1  0.3987400000000  0.5049310000000  0.5427720000000 1.0
C      1  0.6221360000000  0.5292180000000  0.4643650000000 1.0
C      1  0.5657280000000  0.5087920000000  0.5122520000000 1.0
C      1  0.4386530000000  0.4854950000000  0.4846860000000 1.0
C      1  0.4281150000000  0.5006570000000  0.4608990000000 1.0
C      1  0.5847330000000  0.4851650000000  0.5112630000000 1.0
C      1  0.5113690000000  0.5758540000000  0.5250070000000 1.0
C      1  0.4831310000000  0.4431020000000  0.4665720000000 1.0
C      1  0.4679910000000  0.4968790000000  0.4908400000000 1.0
C      1  0.5368340000000  0.5014840000000  0.5142340000000 1.0
C      1  0.4783290000000  0.4320750000000  0.5654420000000 1.0
C      1  0.5192170000000  0.5823560000000  0.4540460000000 1.0
C      1  0.4036890000000  0.4847470000000  0.5259470000000 1.0
C      1  0.6012470000000  0.5327390000000  0.4786050000000 1.0
C      1  0.4980610000000  0.4998790000000  0.4337160000000 1.0
C      1  0.5032340000000  0.5101030000000  0.5747040000000 1.0
C      1  0.5094370000000  0.4364860000000  0.4679260000000 1.0
C      1  0.5006380000000  0.5519880000000  0.5236700000000 1.0
C      1  0.4696700000000  0.5480250000000  0.5169900000000 1.0
C      1  0.5248650000000  0.4536580000000  0.4884030000000 1.0
C      1  0.4814740000000  0.5175630000000  0.5125480000000 1.0
C      1  0.5257060000000  0.4876750000000  0.4885440000000 1.0
C      1  0.5229380000000  0.4182400000000  0.4526080000000 1.0
C      1  0.4498670000000  0.5513470000000  0.5398860000000 1.0
C      1  0.5250660000000  0.5233140000000  0.5588180000000 1.0
C      1  0.4726040000000  0.4879290000000  0.4396840000000 1.0
C      1  0.4843500000000  0.5053020000000  0.5400640000000 1.0
C      1  0.5258160000000  0.5017290000000  0.4622430000000 1.0
C      1  0.5543710000000  0.5530390000000  0.4807040000000 1.0
C      1  0.4443910000000  0.4550060000000  0.5318620000000 1.0
C      1  0.5750350000000  0.5351260000000  0.4935680000000 1.0
C      1  0.4264130000000  0.4699640000000  0.5123450000000 1.0
C      1  0.5392890000000  0.4410230000000  0.5120810000000 1.0
C      1  0.4587560000000  0.5599130000000  0.4901900000000 1.0
C      1  0.5771920000000  0.5369450000000  0.5274850000000 1.0
C      1  0.4262750000000  0.4538000000000  0.4828670000000 1.0
C      1  0.5285650000000  0.4902970000000  0.4331350000000 1.0
C      1  0.4729560000000  0.5171250000000  0.5668150000000 1.0
C      1  0.4959840000000  0.4222500000000  0.5821370000000 1.0
C      1  0.5013340000000  0.5956110000000  0.4402110000000 1.0
C      1  0.5104990000000  0.5249950000000  0.4964660000000 1.0
C      1  0.4964840000000  0.4714330000000  0.4913740000000 1.0
C      1  0.4608690000000  0.4443850000000  0.5495350000000 1.0
C      1  0.5359340000000  0.5667620000000  0.4677190000000 1.0
C      1  0.5075830000000  0.4882920000000  0.5506390000000 1.0
C      1  0.5014190000000  0.5195260000000  0.4579240000000 1.0
C      1  0.4784360000000  0.5222450000000  0.4729760000000 1.0
C      1  0.5301560000000  0.4812460000000  0.5369430000000 1.0
C      1  0.4253870000000  0.5472730000000  0.5497530000000 1.0
C      1  0.5364910000000  0.4024490000000  0.4359830000000 1.0
END
