TITL C-1154803-8277-634 0.00117693780285428 125000 -351.548987431904 0 0 60 (C1) n - 1
REM
REM in /home/nfs/bkarasulu/CARBON/AIRSS/Generating-Clusters/AIREBO/Higher-Symm/Only-C60
REM
REM
REM
REM
REM
REM ./C.cell (28575a23ae977d3b5fae324c64b13b57)
REM
REM compiler GCC version 9.2.1 20190827 (Red Hat 9.2.1-1)
REM options -cpp -mtune=generic -march=x86-64 -g -O0 -fpre-include=/usr/include/finclude/math-vector-fortran.h
REM seed 862626315 1697821886 -2060507125 249955572 81150085 -564132259 -384339668 -313622475 1731824824 -1127195095 389538352 717714029 2141657736 1127936428 -151687350 1125580987 612656829 -844037734 2020583126 -74290546 -722377653 -1302954088 -756150788 -872388117 -1068037167 -2063568195 -1741353463 1418399665 -1883594875 730765835 1558636490 1411785834 -1251515617
REM
CELL 1.54180   50.00000   50.00000   50.00000   90.00000   90.00000   90.00000
LATT -1
SFAC C  
C      1  0.4495680000000  0.4886350000000  0.5343280000000 1.0
C      1  0.4637490000000  0.5421650000000  0.5408650000000 1.0
C      1  0.5162010000000  0.5499980000000  0.5409920000000 1.0
C      1  0.5548290000000  0.5140850000000  0.5403710000000 1.0
C      1  0.5447760000000  0.4588930000000  0.5400680000000 1.0
C      1  0.4892780000000  0.4457220000000  0.5383270000000 1.0
C      1  0.5550590000000  0.4870720000000  0.5422890000000 1.0
C      1  0.5410840000000  0.5404440000000  0.5476350000000 1.0
C      1  0.4870430000000  0.5570730000000  0.5389140000000 1.0
C      1  0.4494120000000  0.5161250000000  0.5331700000000 1.0
C      1  0.4661580000000  0.4620870000000  0.5394920000000 1.0
C      1  0.5201670000000  0.4466510000000  0.5425470000000 1.0
C      1  0.5389080000000  0.5906120000000  0.5099290000000 1.0
C      1  0.6021380000000  0.5116930000000  0.5162090000000 1.0
C      1  0.5581440000000  0.4310140000000  0.5001070000000 1.0
C      1  0.4732390000000  0.4247630000000  0.4963480000000 1.0
C      1  0.3969480000000  0.4898570000000  0.5211420000000 1.0
C      1  0.4393110000000  0.5788880000000  0.5007790000000 1.0
C      1  0.4694690000000  0.5812700000000  0.4965920000000 1.0
C      1  0.3974450000000  0.5151780000000  0.5187800000000 1.0
C      1  0.4494200000000  0.4390930000000  0.4971450000000 1.0
C      1  0.5397570000000  0.4067240000000  0.5032540000000 1.0
C      1  0.6020120000000  0.4863200000000  0.5180830000000 1.0
C      1  0.5539520000000  0.5648450000000  0.5067490000000 1.0
C      1  0.5079620000000  0.5444420000000  0.4533220000000 1.0
C      1  0.5481670000000  0.5156960000000  0.4547770000000 1.0
C      1  0.5354570000000  0.4634280000000  0.4505940000000 1.0
C      1  0.4881740000000  0.4485360000000  0.4545960000000 1.0
C      1  0.4478520000000  0.4899400000000  0.4555860000000 1.0
C      1  0.4573670000000  0.5365890000000  0.4352980000000 1.0
C      1  0.4800370000000  0.5484760000000  0.4456260000000 1.0
C      1  0.4422510000000  0.5172750000000  0.4481340000000 1.0
C      1  0.4633770000000  0.4619140000000  0.4529530000000 1.0
C      1  0.5115140000000  0.4544170000000  0.4399280000000 1.0
C      1  0.5477040000000  0.4875050000000  0.4611390000000 1.0
C      1  0.5312550000000  0.5337110000000  0.4426000000000 1.0
C      1  0.4368770000000  0.5183920000000  0.4812700000000 1.0
C      1  0.4786050000000  0.5583190000000  0.4763580000000 1.0
C      1  0.5417660000000  0.5459830000000  0.4899490000000 1.0
C      1  0.5587790000000  0.4820430000000  0.4913590000000 1.0
C      1  0.5199310000000  0.4312130000000  0.4890130000000 1.0
C      1  0.4442860000000  0.4561190000000  0.4757650000000 1.0
C      1  0.5564130000000  0.5160280000000  0.4876130000000 1.0
C      1  0.5109200000000  0.5508280000000  0.4844810000000 1.0
C      1  0.4494870000000  0.5476800000000  0.4890290000000 1.0
C      1  0.4362290000000  0.4847550000000  0.4872300000000 1.0
C      1  0.4924230000000  0.4326710000000  0.4772720000000 1.0
C      1  0.5439650000000  0.4528360000000  0.4804120000000 1.0
C      1  0.4845690000000  0.4199440000000  0.5217260000000 1.0
C      1  0.4237720000000  0.4770200000000  0.5157330000000 1.0
C      1  0.4405450000000  0.5530930000000  0.5215980000000 1.0
C      1  0.5145460000000  0.5682640000000  0.5123550000000 1.0
C      1  0.5742250000000  0.5241680000000  0.5150840000000 1.0
C      1  0.5659320000000  0.4437990000000  0.5235630000000 1.0
C      1  0.5164960000000  0.4219550000000  0.5215480000000 1.0
C      1  0.5738350000000  0.4741970000000  0.5175160000000 1.0
C      1  0.5639790000000  0.5511370000000  0.5296370000000 1.0
C      1  0.4854560000000  0.5805170000000  0.5192470000000 1.0
C      1  0.4250200000000  0.5262080000000  0.5118580000000 1.0
C      1  0.4427600000000  0.4516970000000  0.5217180000000 1.0
END
