TITL C-1154824-75-154 -0.00143446580846511 125000 -335.064209766483 0 0 60 (C3) n - 1
REM
REM in /home/nfs/bkarasulu/CARBON/AIRSS/Generating-Clusters/AIREBO/Higher-Symm/Only-C60
REM
REM
REM
REM
REM
REM ./C.cell (28575a23ae977d3b5fae324c64b13b57)
REM
REM compiler GCC version 9.2.1 20190827 (Red Hat 9.2.1-1)
REM options -cpp -mtune=generic -march=x86-64 -g -O0 -fpre-include=/usr/include/finclude/math-vector-fortran.h
REM seed -1432470799 -2144023650 679837025 602860229 -478233344 1327355573 1976735250 -108486139 39560482 307515080 -1096485880 -1929303181 -1848002689 -1845404 240372746 618768938 -1445134334 -1622163475 -685434897 187651082 767508677 -2124131866 -898512311 1759180904 -1448362646 -1835961490 -544495390 -1336496989 643017075 -1714410727 -797607892 -844717001 1948177941
REM
CELL 1.54180   50.00000   50.00000   50.00000   90.00000   90.00000   90.00000
LATT -1
SFAC C  
C      1  0.5612250000000  0.5925870000000  0.5253580000000 1.0
C      1  0.3891290000000  0.5067260000000  0.5250250000000 1.0
C      1  0.5495350000000  0.4006160000000  0.5251610000000 1.0
C      1  0.4645050000000  0.5139170000000  0.5273590000000 1.0
C      1  0.5056130000000  0.4622980000000  0.5273710000000 1.0
C      1  0.5297620000000  0.5237080000000  0.5274640000000 1.0
C      1  0.4312440000000  0.5429110000000  0.4353780000000 1.0
C      1  0.4974100000000  0.4190090000000  0.4353590000000 1.0
C      1  0.5716300000000  0.5382610000000  0.4355790000000 1.0
C      1  0.4281320000000  0.4775270000000  0.4813220000000 1.0
C      1  0.5554520000000  0.4489990000000  0.4814820000000 1.0
C      1  0.5164970000000  0.5735260000000  0.4815410000000 1.0
C      1  0.5776450000000  0.3604050000000  0.5446330000000 1.0
C      1  0.5819350000000  0.6370340000000  0.5448980000000 1.0
C      1  0.3402230000000  0.5024350000000  0.5444180000000 1.0
C      1  0.4805400000000  0.4725560000000  0.5100080000000 1.0
C      1  0.5334670000000  0.4968680000000  0.5101080000000 1.0
C      1  0.4859490000000  0.5305480000000  0.5100700000000 1.0
C      1  0.5354260000000  0.4225560000000  0.5166810000000 1.0
C      1  0.5493050000000  0.5693990000000  0.5168390000000 1.0
C      1  0.4151960000000  0.5079970000000  0.5165850000000 1.0
C      1  0.4580370000000  0.4884000000000  0.5191980000000 1.0
C      1  0.5309690000000  0.4694560000000  0.5192870000000 1.0
C      1  0.5109090000000  0.5420890000000  0.5193250000000 1.0
C      1  0.4522720000000  0.5835620000000  0.5173380000000 1.0
C      1  0.4514450000000  0.4168830000000  0.5171810000000 1.0
C      1  0.5962070000000  0.4995060000000  0.5174700000000 1.0
C      1  0.4643910000000  0.5288620000000  0.4649690000000 1.0
C      1  0.4929140000000  0.4547360000000  0.4649420000000 1.0
C      1  0.5428480000000  0.5165000000000  0.4650730000000 1.0
C      1  0.5802420000000  0.5213040000000  0.5139920000000 1.0
C      1  0.4413870000000  0.5588380000000  0.5138240000000 1.0
C      1  0.4783090000000  0.4198190000000  0.5137480000000 1.0
C      1  0.4885260000000  0.5156110000000  0.4811980000000 1.0
C      1  0.4922740000000  0.4822600000000  0.4811730000000 1.0
C      1  0.5192830000000  0.5021820000000  0.4812310000000 1.0
C      1  0.5627940000000  0.3801430000000  0.5358660000000 1.0
C      1  0.5722950000000  0.6143050000000  0.5360990000000 1.0
C      1  0.3647540000000  0.5054520000000  0.5356930000000 1.0
C      1  0.4306770000000  0.4318120000000  0.5263780000000 1.0
C      1  0.5936340000000  0.4740550000000  0.5266560000000 1.0
C      1  0.4755720000000  0.5940590000000  0.5265950000000 1.0
C      1  0.4574690000000  0.5364710000000  0.4950990000000 1.0
C      1  0.4896960000000  0.4449320000000  0.4950610000000 1.0
C      1  0.5528570000000  0.5186110000000  0.4952230000000 1.0
C      1  0.5093880000000  0.4234650000000  0.5109750000000 1.0
C      1  0.5615550000000  0.5463960000000  0.5111660000000 1.0
C      1  0.4290090000000  0.5301080000000  0.5109570000000 1.0
C      1  0.5773130000000  0.4525510000000  0.5250420000000 1.0
C      1  0.5023600000000  0.5906770000000  0.5250620000000 1.0
C      1  0.4202160000000  0.4567020000000  0.5248160000000 1.0
C      1  0.4959020000000  0.4456060000000  0.4400260000000 1.0
C      1  0.5493360000000  0.5236560000000  0.4401770000000 1.0
C      1  0.4550260000000  0.5309060000000  0.4400460000000 1.0
C      1  0.4694010000000  0.5211600000000  0.4193080000000 1.0
C      1  0.4972170000000  0.4629310000000  0.4192940000000 1.0
C      1  0.5337370000000  0.5161350000000  0.4193970000000 1.0
C      1  0.5195970000000  0.5698780000000  0.5095860000000 1.0
C      1  0.4296570000000  0.4820310000000  0.5093720000000 1.0
C      1  0.5507040000000  0.4480640000000  0.5095180000000 1.0
END
