TITL C-1154823-9327-323 -0.000274746527619566 125000 -314.060627769755 0 0 60 (C1) n - 1
REM
REM in /home/nfs/bkarasulu/CARBON/AIRSS/Generating-Clusters/AIREBO/Higher-Symm/Only-C60
REM
REM
REM
REM
REM
REM ./C.cell (28575a23ae977d3b5fae324c64b13b57)
REM
REM compiler GCC version 9.2.1 20190827 (Red Hat 9.2.1-1)
REM options -cpp -mtune=generic -march=x86-64 -g -O0 -fpre-include=/usr/include/finclude/math-vector-fortran.h
REM seed 1410924746 1119016340 1189885229 -1976672414 574010524 473347935 -426060623 -433657423 1535302296 -883627112 1503179289 447057955 -393771882 560824636 -1472284370 1514366208 1189803915 1601190460 449507647 -1165187896 -1222432570 -60295325 -1108882653 -1853746016 -934290875 968475971 830697561 -1387469228 -2082272403 91571942 428986091 -1910269090 -1231444197
REM
CELL 1.54180   50.00000   50.00000   50.00000   90.00000   90.00000   90.00000
LATT -1
SFAC C  
C      1  0.5153840000000  0.5283360000000  0.5510220000000 1.0
C      1  0.5267620000000  0.5620920000000  0.5191370000000 1.0
C      1  0.5563570000000  0.5147270000000  0.5174930000000 1.0
C      1  0.5193500000000  0.4705920000000  0.4395500000000 1.0
C      1  0.4871140000000  0.5138980000000  0.4431650000000 1.0
C      1  0.4664730000000  0.4628620000000  0.5540270000000 1.0
C      1  0.5285640000000  0.4345990000000  0.4838750000000 1.0
C      1  0.4842080000000  0.5503910000000  0.4913070000000 1.0
C      1  0.4784390000000  0.4361170000000  0.5085570000000 1.0
C      1  0.5631610000000  0.4796510000000  0.4721700000000 1.0
C      1  0.4440270000000  0.5222700000000  0.4735850000000 1.0
C      1  0.4482580000000  0.4897160000000  0.5160130000000 1.0
C      1  0.4845290000000  0.5356230000000  0.5633480000000 1.0
C      1  0.4683420000000  0.5660810000000  0.5172310000000 1.0
C      1  0.4380980000000  0.5185590000000  0.5318230000000 1.0
C      1  0.4884980000000  0.4816990000000  0.4493460000000 1.0
C      1  0.5159250000000  0.5265590000000  0.4330960000000 1.0
C      1  0.5271460000000  0.4619010000000  0.5635030000000 1.0
C      1  0.4718450000000  0.4435300000000  0.4760340000000 1.0
C      1  0.5160350000000  0.5623420000000  0.4868720000000 1.0
C      1  0.5107760000000  0.4477590000000  0.5099680000000 1.0
C      1  0.4376730000000  0.4897290000000  0.4834810000000 1.0
C      1  0.5511430000000  0.5091950000000  0.4840530000000 1.0
C      1  0.5489360000000  0.4819970000000  0.5252590000000 1.0
C      1  0.4892460000000  0.4511020000000  0.4567170000000 1.0
C      1  0.4446330000000  0.4569800000000  0.4774840000000 1.0
C      1  0.4586580000000  0.4896320000000  0.4567180000000 1.0
C      1  0.4828510000000  0.5623060000000  0.5429230000000 1.0
C      1  0.5132650000000  0.4485040000000  0.5438730000000 1.0
C      1  0.5189160000000  0.5520270000000  0.4545960000000 1.0
C      1  0.4430380000000  0.5440760000000  0.5170910000000 1.0
C      1  0.5410370000000  0.4602160000000  0.5115990000000 1.0
C      1  0.5414160000000  0.5394840000000  0.4898590000000 1.0
C      1  0.4637370000000  0.5164750000000  0.5540680000000 1.0
C      1  0.5401120000000  0.4847890000000  0.5539300000000 1.0
C      1  0.5375590000000  0.5167170000000  0.4534870000000 1.0
C      1  0.5171190000000  0.4422040000000  0.4570990000000 1.0
C      1  0.5545370000000  0.4550880000000  0.4863260000000 1.0
C      1  0.5399900000000  0.4876490000000  0.4528130000000 1.0
C      1  0.5106870000000  0.5549280000000  0.5401120000000 1.0
C      1  0.4844020000000  0.4468640000000  0.5401570000000 1.0
C      1  0.4939150000000  0.5382360000000  0.4639790000000 1.0
C      1  0.5536050000000  0.5486190000000  0.5177510000000 1.0
C      1  0.4540020000000  0.4601490000000  0.5074940000000 1.0
C      1  0.4534150000000  0.5416410000000  0.4897170000000 1.0
C      1  0.5370500000000  0.5140500000000  0.5454860000000 1.0
C      1  0.4594820000000  0.4884630000000  0.5461170000000 1.0
C      1  0.4544130000000  0.5195720000000  0.4449870000000 1.0
C      1  0.5225260000000  0.4672170000000  0.4118790000000 1.0
C      1  0.4739970000000  0.4075460000000  0.5110890000000 1.0
C      1  0.4079630000000  0.4891910000000  0.4827990000000 1.0
C      1  0.4840680000000  0.5415210000000  0.5907690000000 1.0
C      1  0.5276530000000  0.4545420000000  0.5893630000000 1.0
C      1  0.5207650000000  0.5284170000000  0.4059760000000 1.0
C      1  0.4611430000000  0.5926710000000  0.5116820000000 1.0
C      1  0.5342580000000  0.4072590000000  0.4869020000000 1.0
C      1  0.5153670000000  0.5918510000000  0.4823330000000 1.0
C      1  0.4121960000000  0.5165340000000  0.5426310000000 1.0
C      1  0.5862310000000  0.5133370000000  0.5226570000000 1.0
C      1  0.5897050000000  0.4799150000000  0.4636270000000 1.0
END
