TITL C-1154830-9999-601 0.002032286139562 125000 -338.07617366401 0 0 60 (C1) n - 1
REM
REM in /home/nfs/bkarasulu/CARBON/AIRSS/Generating-Clusters/AIREBO/Higher-Symm/Only-C60
REM
REM
REM
REM
REM
REM ./C.cell (28575a23ae977d3b5fae324c64b13b57)
REM
REM compiler GCC version 9.2.1 20190827 (Red Hat 9.2.1-1)
REM options -cpp -mtune=generic -march=x86-64 -g -O0 -fpre-include=/usr/include/finclude/math-vector-fortran.h
REM seed -1909764102 -388303854 -72542414 1533250172 550739130 -313814706 531542102 1888902718 -1001580009 1654132109 1764488988 773233162 626067017 -1405378247 -754965688 -330319046 -68634183 -1425537897 1581935046 -1298261901 -701119595 406988640 957029179 -1885882362 -298804841 2085936720 -1215447136 2137263534 315544018 622153890 1346670330 -713074141 -1586501456
REM
CELL 1.54180   50.00000   50.00000   50.00000   90.00000   90.00000   90.00000
LATT -1
SFAC C  
C      1  0.4769700000000  0.4681100000000  0.5312980000000 1.0
C      1  0.5236970000000  0.4675710000000  0.5331070000000 1.0
C      1  0.5362570000000  0.4582240000000  0.4897860000000 1.0
C      1  0.4990260000000  0.4656480000000  0.4601090000000 1.0
C      1  0.4626400000000  0.4608080000000  0.4874890000000 1.0
C      1  0.5772050000000  0.4857950000000  0.5264180000000 1.0
C      1  0.5574810000000  0.4874560000000  0.4455910000000 1.0
C      1  0.4623250000000  0.4772690000000  0.4253170000000 1.0
C      1  0.4222420000000  0.4872950000000  0.5174140000000 1.0
C      1  0.4807070000000  0.4833750000000  0.5796920000000 1.0
C      1  0.5080010000000  0.4447080000000  0.5915660000000 1.0
C      1  0.5892780000000  0.4391140000000  0.5265460000000 1.0
C      1  0.5484770000000  0.4474860000000  0.4197950000000 1.0
C      1  0.4417460000000  0.4337500000000  0.4304300000000 1.0
C      1  0.4130880000000  0.4428640000000  0.5347080000000 1.0
C      1  0.4529040000000  0.5559140000000  0.4909780000000 1.0
C      1  0.4620530000000  0.5441720000000  0.5413800000000 1.0
C      1  0.5347800000000  0.5439920000000  0.5408440000000 1.0
C      1  0.5510570000000  0.5483600000000  0.4897460000000 1.0
C      1  0.4964050000000  0.5446690000000  0.4453450000000 1.0
C      1  0.4999500000000  0.4597740000000  0.5455780000000 1.0
C      1  0.5439360000000  0.4543860000000  0.5165620000000 1.0
C      1  0.5257300000000  0.4571770000000  0.4618570000000 1.0
C      1  0.4733810000000  0.4527990000000  0.4625340000000 1.0
C      1  0.4564410000000  0.4559230000000  0.5157820000000 1.0
C      1  0.4608880000000  0.5068610000000  0.5913620000000 1.0
C      1  0.5830750000000  0.5182590000000  0.5297860000000 1.0
C      1  0.5767800000000  0.5134670000000  0.4460720000000 1.0
C      1  0.4683880000000  0.5053520000000  0.4102630000000 1.0
C      1  0.4165700000000  0.5197200000000  0.5141000000000 1.0
C      1  0.4290600000000  0.4613650000000  0.5236080000000 1.0
C      1  0.4963320000000  0.4611620000000  0.5739110000000 1.0
C      1  0.5716820000000  0.4592440000000  0.5237480000000 1.0
C      1  0.5449860000000  0.4631470000000  0.4413590000000 1.0
C      1  0.4579020000000  0.4536860000000  0.4382740000000 1.0
C      1  0.5576740000000  0.5380130000000  0.5183150000000 1.0
C      1  0.5602980000000  0.5296390000000  0.4684820000000 1.0
C      1  0.4814310000000  0.5287220000000  0.4290720000000 1.0
C      1  0.4455810000000  0.5371370000000  0.5150250000000 1.0
C      1  0.4628080000000  0.5256770000000  0.5648250000000 1.0
C      1  0.4751830000000  0.5001370000000  0.5551530000000 1.0
C      1  0.5525450000000  0.5060180000000  0.5217390000000 1.0
C      1  0.5463430000000  0.5032160000000  0.4691610000000 1.0
C      1  0.4774290000000  0.4999940000000  0.4431320000000 1.0
C      1  0.4458920000000  0.5054140000000  0.5042040000000 1.0
C      1  0.4988840000000  0.5314380000000  0.4727150000000 1.0
C      1  0.4790530000000  0.5429160000000  0.4937200000000 1.0
C      1  0.4846570000000  0.5316830000000  0.5213640000000 1.0
C      1  0.5163460000000  0.5263220000000  0.5217790000000 1.0
C      1  0.5211510000000  0.5394390000000  0.4934560000000 1.0
C      1  0.4802190000000  0.4995200000000  0.5236820000000 1.0
C      1  0.5246730000000  0.4953380000000  0.5173810000000 1.0
C      1  0.5243640000000  0.4897980000000  0.4849560000000 1.0
C      1  0.4945470000000  0.4976740000000  0.4706310000000 1.0
C      1  0.4709410000000  0.4915270000000  0.4927700000000 1.0
C      1  0.5334200000000  0.5555840000000  0.5636190000000 1.0
C      1  0.5555870000000  0.5755180000000  0.4849870000000 1.0
C      1  0.5050490000000  0.5701630000000  0.4409910000000 1.0
C      1  0.4416440000000  0.5765930000000  0.4781040000000 1.0
C      1  0.4628410000000  0.5736150000000  0.5483790000000 1.0
END
