TITL C-1154829-9094-178 -0.00202931481199627 125000 -314.465714453611 0 0 60 (C1) n - 1
REM
REM in /home/nfs/bkarasulu/CARBON/AIRSS/Generating-Clusters/AIREBO/Higher-Symm/Only-C60
REM
REM
REM
REM
REM
REM ./C.cell (28575a23ae977d3b5fae324c64b13b57)
REM
REM compiler GCC version 9.2.1 20190827 (Red Hat 9.2.1-1)
REM options -cpp -mtune=generic -march=x86-64 -g -O0 -fpre-include=/usr/include/finclude/math-vector-fortran.h
REM seed -1224681391 1456610974 1020817975 26793669 -994782423 182095877 12584534 -1656285831 967707106 1023767767 1097031744 575382679 1686484858 537323471 956621491 -1036881263 1203822547 1015403885 1634995068 -298606395 268196251 -349830728 1238186876 458008278 -551231794 965453507 -1708167915 482283577 -10144410 -1086198830 1253897849 1810472400 1766123017
REM
CELL 1.54180   50.00000   50.00000   50.00000   90.00000   90.00000   90.00000
LATT -1
SFAC C  
C      1  0.5118450000000  0.5429160000000  0.4219410000000 1.0
C      1  0.4561790000000  0.4886990000000  0.4236420000000 1.0
C      1  0.5304920000000  0.4676020000000  0.4233900000000 1.0
C      1  0.5260710000000  0.5554860000000  0.5012030000000 1.0
C      1  0.4389990000000  0.4947680000000  0.5017950000000 1.0
C      1  0.5364550000000  0.4491980000000  0.5018360000000 1.0
C      1  0.5258660000000  0.4850380000000  0.4509850000000 1.0
C      1  0.4998690000000  0.5307810000000  0.4499610000000 1.0
C      1  0.4734780000000  0.4856010000000  0.4515040000000 1.0
C      1  0.5160060000000  0.5237720000000  0.5082160000000 1.0
C      1  0.4715740000000  0.5016900000000  0.5086830000000 1.0
C      1  0.5157200000000  0.4751020000000  0.5092850000000 1.0
C      1  0.5287650000000  0.5235530000000  0.4407540000000 1.0
C      1  0.4648490000000  0.5136330000000  0.4413950000000 1.0
C      1  0.5054140000000  0.4634800000000  0.4425020000000 1.0
C      1  0.5232440000000  0.4224740000000  0.4949030000000 1.0
C      1  0.5560010000000  0.5581110000000  0.4949620000000 1.0
C      1  0.4215900000000  0.5190030000000  0.4947720000000 1.0
C      1  0.5057460000000  0.5292330000000  0.5633350000000 1.0
C      1  0.4695190000000  0.4901750000000  0.5647380000000 1.0
C      1  0.5227320000000  0.4781830000000  0.5652200000000 1.0
C      1  0.5454190000000  0.4524510000000  0.5317980000000 1.0
C      1  0.5179220000000  0.5618190000000  0.5309750000000 1.0
C      1  0.4360600000000  0.4843320000000  0.5313290000000 1.0
C      1  0.4729530000000  0.4323610000000  0.4638920000000 1.0
C      1  0.5727240000000  0.5106380000000  0.4622500000000 1.0
C      1  0.4551670000000  0.5595280000000  0.4604230000000 1.0
C      1  0.5728960000000  0.4734030000000  0.4771000000000 1.0
C      1  0.4873210000000  0.5766270000000  0.4769470000000 1.0
C      1  0.4407360000000  0.4515780000000  0.4775910000000 1.0
C      1  0.4832020000000  0.4578610000000  0.4625380000000 1.0
C      1  0.5455260000000  0.5074590000000  0.4604300000000 1.0
C      1  0.4707430000000  0.5368710000000  0.4600780000000 1.0
C      1  0.5412080000000  0.5199770000000  0.5307290000000 1.0
C      1  0.4609800000000  0.5246870000000  0.5313910000000 1.0
C      1  0.4971840000000  0.4551060000000  0.5296180000000 1.0
C      1  0.4488270000000  0.4575530000000  0.5335540000000 1.0
C      1  0.5630690000000  0.4765280000000  0.5344970000000 1.0
C      1  0.4883750000000  0.5646550000000  0.5330100000000 1.0
C      1  0.4568500000000  0.4309350000000  0.5300450000000 1.0
C      1  0.5823390000000  0.4967470000000  0.5307630000000 1.0
C      1  0.4613020000000  0.5715600000000  0.5306320000000 1.0
C      1  0.4229320000000  0.5428990000000  0.5083520000000 1.0
C      1  0.5011010000000  0.4124910000000  0.5077780000000 1.0
C      1  0.5758490000000  0.5443370000000  0.5081490000000 1.0
C      1  0.4755530000000  0.4785780000000  0.5333330000000 1.0
C      1  0.5325030000000  0.4901250000000  0.5349030000000 1.0
C      1  0.4925980000000  0.5309250000000  0.5320130000000 1.0
C      1  0.5221830000000  0.4539720000000  0.5480380000000 1.0
C      1  0.5276590000000  0.5414910000000  0.5478150000000 1.0
C      1  0.4481660000000  0.5030890000000  0.5487530000000 1.0
C      1  0.4839160000000  0.5265120000000  0.4889620000000 1.0
C      1  0.4870250000000  0.4758250000000  0.4910160000000 1.0
C      1  0.5284170000000  0.4992140000000  0.4881810000000 1.0
C      1  0.4543640000000  0.4723790000000  0.4861480000000 1.0
C      1  0.5481380000000  0.4732970000000  0.4857580000000 1.0
C      1  0.4986620000000  0.5538860000000  0.4859980000000 1.0
C      1  0.4841350000000  0.4289930000000  0.5225980000000 1.0
C      1  0.5703860000000  0.5216510000000  0.5235690000000 1.0
C      1  0.4451980000000  0.5491610000000  0.5240210000000 1.0
END
