TITL C-1154828-9214-523 0.00154510414356536 125000 -335.82629206307 0 0 60 (C1) n - 1
REM
REM in /home/nfs/bkarasulu/CARBON/AIRSS/Generating-Clusters/AIREBO/Higher-Symm/Only-C60
REM
REM
REM
REM
REM
REM ./C.cell (28575a23ae977d3b5fae324c64b13b57)
REM
REM compiler GCC version 9.2.1 20190827 (Red Hat 9.2.1-1)
REM options -cpp -mtune=generic -march=x86-64 -g -O0 -fpre-include=/usr/include/finclude/math-vector-fortran.h
REM seed -888843442 2134937074 -1713067668 -1296402258 -1186595849 1535614951 -1017376312 -1410440067 584536521 1791866974 -1801649004 -47691791 479813935 -1011097268 2033842219 -846525588 -1244296748 529081820 -118194848 2048273745 -1909382666 246799462 1184770957 843053187 494281296 58902006 -1421031896 -52610484 -2124027321 1814634620 -179199695 733152593 119538822
REM
CELL 1.54180   50.00000   50.00000   50.00000   90.00000   90.00000   90.00000
LATT -1
SFAC C  
C      1  0.4435400000000  0.4752110000000  0.5313420000000 1.0
C      1  0.4643690000000  0.5332290000000  0.4401860000000 1.0
C      1  0.5297200000000  0.4464600000000  0.4692020000000 1.0
C      1  0.4448060000000  0.5281450000000  0.4677030000000 1.0
C      1  0.5488190000000  0.4745510000000  0.4707190000000 1.0
C      1  0.5550840000000  0.5325370000000  0.5310380000000 1.0
C      1  0.4761780000000  0.4633340000000  0.5535280000000 1.0
C      1  0.5247820000000  0.5323960000000  0.5451540000000 1.0
C      1  0.5351560000000  0.4658390000000  0.4417280000000 1.0
C      1  0.5317780000000  0.5546460000000  0.5206890000000 1.0
C      1  0.4567380000000  0.4436870000000  0.5336020000000 1.0
C      1  0.4655460000000  0.5550500000000  0.4662350000000 1.0
C      1  0.5599640000000  0.4680200000000  0.5328680000000 1.0
C      1  0.5233330000000  0.5313510000000  0.4514730000000 1.0
C      1  0.4696110000000  0.4498990000000  0.4735030000000 1.0
C      1  0.5534110000000  0.5259020000000  0.4668000000000 1.0
C      1  0.4570440000000  0.4816470000000  0.4733230000000 1.0
C      1  0.4472820000000  0.5244200000000  0.5335840000000 1.0
C      1  0.5347900000000  0.4678410000000  0.5524190000000 1.0
C      1  0.4724760000000  0.5325280000000  0.5549270000000 1.0
C      1  0.4868490000000  0.4750370000000  0.4604570000000 1.0
C      1  0.4693480000000  0.5462330000000  0.5234260000000 1.0
C      1  0.5338920000000  0.4483660000000  0.5247170000000 1.0
C      1  0.5336800000000  0.5521260000000  0.4756860000000 1.0
C      1  0.4908050000000  0.4860390000000  0.4335130000000 1.0
C      1  0.4853730000000  0.4263100000000  0.4887350000000 1.0
C      1  0.4292680000000  0.4856340000000  0.4829190000000 1.0
C      1  0.4894550000000  0.5101880000000  0.5729100000000 1.0
C      1  0.5191920000000  0.4840720000000  0.5678760000000 1.0
C      1  0.5151510000000  0.5162130000000  0.4274850000000 1.0
C      1  0.4830210000000  0.5719780000000  0.5136250000000 1.0
C      1  0.5139070000000  0.4239060000000  0.5162540000000 1.0
C      1  0.5173780000000  0.5763380000000  0.4810200000000 1.0
C      1  0.4234020000000  0.5181220000000  0.5170220000000 1.0
C      1  0.5724350000000  0.4854250000000  0.5154970000000 1.0
C      1  0.5741640000000  0.5128200000000  0.4866470000000 1.0
C      1  0.5206660000000  0.4841530000000  0.4269260000000 1.0
C      1  0.5147710000000  0.4226880000000  0.4836610000000 1.0
C      1  0.5742620000000  0.4821680000000  0.4845300000000 1.0
C      1  0.5195060000000  0.5148410000000  0.5696110000000 1.0
C      1  0.4887140000000  0.4786650000000  0.5723750000000 1.0
C      1  0.4825530000000  0.5158200000000  0.4290240000000 1.0
C      1  0.5133860000000  0.5761740000000  0.5117770000000 1.0
C      1  0.4815250000000  0.4249380000000  0.5196480000000 1.0
C      1  0.4866590000000  0.5727880000000  0.4825370000000 1.0
C      1  0.5723130000000  0.5169590000000  0.5173960000000 1.0
C      1  0.4246070000000  0.4871060000000  0.5133080000000 1.0
C      1  0.4240160000000  0.5159580000000  0.4857390000000 1.0
C      1  0.4650450000000  0.4571020000000  0.5034840000000 1.0
C      1  0.4732690000000  0.5108260000000  0.4720330000000 1.0
C      1  0.5102240000000  0.4799120000000  0.4789460000000 1.0
C      1  0.4735450000000  0.5368600000000  0.4939070000000 1.0
C      1  0.5196340000000  0.4591150000000  0.4991120000000 1.0
C      1  0.5309110000000  0.5280450000000  0.4995310000000 1.0
C      1  0.4682570000000  0.4981250000000  0.5358370000000 1.0
C      1  0.5161350000000  0.5069240000000  0.5157010000000 1.0
C      1  0.5311600000000  0.5025860000000  0.4779030000000 1.0
C      1  0.4955780000000  0.5183190000000  0.5343880000000 1.0
C      1  0.4822690000000  0.4720410000000  0.5227430000000 1.0
C      1  0.4992460000000  0.5323870000000  0.4720700000000 1.0
END
