TITL C-1154810-7815-430 -0.000938923911221411 125000 -309.968603867073 0 0 60 (C1) n - 1
REM
REM in /home/nfs/bkarasulu/CARBON/AIRSS/Generating-Clusters/AIREBO/Higher-Symm/Only-C60
REM
REM
REM
REM
REM
REM ./C.cell (28575a23ae977d3b5fae324c64b13b57)
REM
REM compiler GCC version 9.2.1 20190827 (Red Hat 9.2.1-1)
REM options -cpp -mtune=generic -march=x86-64 -g -O0 -fpre-include=/usr/include/finclude/math-vector-fortran.h
REM seed 930682275 731029215 -1153383611 -1278187718 -2054275787 1976979615 611788030 -662604675 1998270626 -1258226465 -420706207 1552371933 260680725 1967364815 -1215692522 -1138112346 1709919352 -1536648051 1057564671 1756888034 83117688 2017525854 2137670040 -853845391 -1298427831 -1943114996 -577233857 1327672224 -1443486418 -956739174 -131902973 1640343627 767857530
REM
CELL 1.54180   50.00000   50.00000   50.00000   90.00000   90.00000   90.00000
LATT -1
SFAC C  
C      1  0.4716960000000  0.4580460000000  0.5547010000000 1.0
C      1  0.4635240000000  0.5515130000000  0.4762080000000 1.0
C      1  0.5502210000000  0.4746480000000  0.4615190000000 1.0
C      1  0.5273060000000  0.4572960000000  0.4434740000000 1.0
C      1  0.5258880000000  0.5412510000000  0.5544110000000 1.0
C      1  0.4784460000000  0.5335620000000  0.4533220000000 1.0
C      1  0.5327110000000  0.5494170000000  0.5213060000000 1.0
C      1  0.5385620000000  0.4459040000000  0.4744600000000 1.0
C      1  0.4600080000000  0.4441580000000  0.5246100000000 1.0
C      1  0.4506510000000  0.4745550000000  0.5341330000000 1.0
C      1  0.4453390000000  0.5268590000000  0.4614570000000 1.0
C      1  0.5508600000000  0.5265210000000  0.5366500000000 1.0
C      1  0.4732920000000  0.5467790000000  0.5570520000000 1.0
C      1  0.4639930000000  0.4475340000000  0.4737850000000 1.0
C      1  0.5530250000000  0.5252870000000  0.4618280000000 1.0
C      1  0.5246380000000  0.5376910000000  0.4499240000000 1.0
C      1  0.5184740000000  0.4678540000000  0.5461920000000 1.0
C      1  0.4798780000000  0.4664590000000  0.4522760000000 1.0
C      1  0.5346420000000  0.4495240000000  0.5238110000000 1.0
C      1  0.5416180000000  0.5563120000000  0.4728400000000 1.0
C      1  0.4628060000000  0.5548110000000  0.5251790000000 1.0
C      1  0.4542290000000  0.5250290000000  0.5391620000000 1.0
C      1  0.4460720000000  0.4720900000000  0.4593650000000 1.0
C      1  0.5515150000000  0.4751550000000  0.5388660000000 1.0
C      1  0.5169890000000  0.5175440000000  0.4272960000000 1.0
C      1  0.5172700000000  0.4233370000000  0.5194500000000 1.0
C      1  0.4289510000000  0.5180970000000  0.5195460000000 1.0
C      1  0.4800140000000  0.5177500000000  0.5687010000000 1.0
C      1  0.4784330000000  0.4817560000000  0.4236690000000 1.0
C      1  0.5213580000000  0.4842260000000  0.5745390000000 1.0
C      1  0.4821890000000  0.4225090000000  0.4796040000000 1.0
C      1  0.4854130000000  0.5744090000000  0.5138080000000 1.0
C      1  0.5172480000000  0.5710040000000  0.4900430000000 1.0
C      1  0.5708630000000  0.5128500000000  0.4849000000000 1.0
C      1  0.5702520000000  0.4875480000000  0.5155850000000 1.0
C      1  0.4250900000000  0.4808960000000  0.4816930000000 1.0
C      1  0.5103140000000  0.4843150000000  0.4317550000000 1.0
C      1  0.5179230000000  0.5783930000000  0.5222180000000 1.0
C      1  0.4289610000000  0.4853420000000  0.5152400000000 1.0
C      1  0.4891730000000  0.4840120000000  0.5680740000000 1.0
C      1  0.4843370000000  0.5144870000000  0.4285630000000 1.0
C      1  0.5119210000000  0.5166480000000  0.5706290000000 1.0
C      1  0.4839990000000  0.5745020000000  0.4819100000000 1.0
C      1  0.4843270000000  0.4273020000000  0.5120130000000 1.0
C      1  0.5152970000000  0.4283230000000  0.4871010000000 1.0
C      1  0.5733220000000  0.4810740000000  0.4818150000000 1.0
C      1  0.5756930000000  0.5205340000000  0.5180800000000 1.0
C      1  0.4300330000000  0.5123340000000  0.4860540000000 1.0
C      1  0.5336880000000  0.4991450000000  0.4518680000000 1.0
C      1  0.4676130000000  0.4967200000000  0.5456650000000 1.0
C      1  0.4975060000000  0.4452600000000  0.5377090000000 1.0
C      1  0.4524280000000  0.5342670000000  0.5004600000000 1.0
C      1  0.5014390000000  0.4444460000000  0.4605600000000 1.0
C      1  0.4991850000000  0.5572530000000  0.5411470000000 1.0
C      1  0.5026890000000  0.5475760000000  0.4702380000000 1.0
C      1  0.5544190000000  0.5390330000000  0.4990490000000 1.0
C      1  0.5491840000000  0.4657330000000  0.5002080000000 1.0
C      1  0.4473620000000  0.4603480000000  0.4975090000000 1.0
C      1  0.4592870000000  0.4998030000000  0.4462720000000 1.0
C      1  0.5364320000000  0.5029680000000  0.5505010000000 1.0
END
