TITL C-1154810-7815-483 0.0024914867777602 125000 -328.85304876932 0 0 60 (C1) n - 1
REM
REM in /home/nfs/bkarasulu/CARBON/AIRSS/Generating-Clusters/AIREBO/Higher-Symm/Only-C60
REM
REM
REM
REM
REM
REM ./C.cell (28575a23ae977d3b5fae324c64b13b57)
REM
REM compiler GCC version 9.2.1 20190827 (Red Hat 9.2.1-1)
REM options -cpp -mtune=generic -march=x86-64 -g -O0 -fpre-include=/usr/include/finclude/math-vector-fortran.h
REM seed 1023487930 1800521740 -1060799946 -2106055723 -1265479902 324801125 2079449703 -1743033067 2025115876 1510310215 539574263 372465747 -423666912 969192443 67707350 1033468723 -972451858 447686893 1714444796 1936626204 808878295 2026364658 -852797093 804340853 60889991 -1127982102 -1785180930 -1620978016 891274094 -1069368815 1469556117 -1149959539 -1097959484
REM
CELL 1.54180   50.00000   50.00000   50.00000   90.00000   90.00000   90.00000
LATT -1
SFAC C  
C      1  0.4830830000000  0.5545470000000  0.4752640000000 1.0
C      1  0.4887270000000  0.5601620000000  0.5308740000000 1.0
C      1  0.5342820000000  0.5632110000000  0.4964350000000 1.0
C      1  0.5191850000000  0.5615740000000  0.4719570000000 1.0
C      1  0.5178360000000  0.5589600000000  0.5292150000000 1.0
C      1  0.4682850000000  0.5548430000000  0.5006590000000 1.0
C      1  0.4693340000000  0.5830260000000  0.5290410000000 1.0
C      1  0.5434760000000  0.5857150000000  0.5138800000000 1.0
C      1  0.4862450000000  0.5786550000000  0.4572510000000 1.0
C      1  0.5344280000000  0.5836590000000  0.5401160000000 1.0
C      1  0.4515030000000  0.5808160000000  0.5079160000000 1.0
C      1  0.5129450000000  0.5854320000000  0.4522800000000 1.0
C      1  0.4570950000000  0.5258110000000  0.5074980000000 1.0
C      1  0.5267400000000  0.5293690000000  0.5340980000000 1.0
C      1  0.5160680000000  0.5324960000000  0.4624760000000 1.0
C      1  0.5421950000000  0.5353900000000  0.5054010000000 1.0
C      1  0.4764310000000  0.5321550000000  0.5350280000000 1.0
C      1  0.4847530000000  0.5259360000000  0.4630380000000 1.0
C      1  0.4845190000000  0.4280300000000  0.5247270000000 1.0
C      1  0.5265610000000  0.4292200000000  0.4995600000000 1.0
C      1  0.4843070000000  0.4248240000000  0.4748840000000 1.0
C      1  0.5133100000000  0.4265090000000  0.5245170000000 1.0
C      1  0.4700040000000  0.4268630000000  0.5002580000000 1.0
C      1  0.5126840000000  0.4273390000000  0.4751020000000 1.0
C      1  0.5265620000000  0.4746930000000  0.4643770000000 1.0
C      1  0.4531240000000  0.4712510000000  0.4868620000000 1.0
C      1  0.5182820000000  0.4717570000000  0.5448370000000 1.0
C      1  0.4684640000000  0.4690760000000  0.4605770000000 1.0
C      1  0.5417220000000  0.4791770000000  0.4929470000000 1.0
C      1  0.4878640000000  0.4733890000000  0.5456070000000 1.0
C      1  0.5260330000000  0.5056340000000  0.5023190000000 1.0
C      1  0.4828490000000  0.4948910000000  0.4752380000000 1.0
C      1  0.4807720000000  0.5005320000000  0.5273710000000 1.0
C      1  0.4675060000000  0.4951930000000  0.5018890000000 1.0
C      1  0.5131510000000  0.5013110000000  0.4759320000000 1.0
C      1  0.5121210000000  0.4992470000000  0.5280330000000 1.0
C      1  0.5596250000000  0.5156460000000  0.4838910000000 1.0
C      1  0.4584800000000  0.5130130000000  0.4496050000000 1.0
C      1  0.4894940000000  0.5167830000000  0.5624350000000 1.0
C      1  0.4430800000000  0.5156600000000  0.4781650000000 1.0
C      1  0.5441180000000  0.5154190000000  0.4555610000000 1.0
C      1  0.5233870000000  0.5136920000000  0.5626450000000 1.0
C      1  0.5616460000000  0.4708630000000  0.5195730000000 1.0
C      1  0.4815760000000  0.4644960000000  0.4310200000000 1.0
C      1  0.4543770000000  0.4750970000000  0.5448580000000 1.0
C      1  0.4379520000000  0.4731410000000  0.5172320000000 1.0
C      1  0.5139060000000  0.4698340000000  0.4336780000000 1.0
C      1  0.5502730000000  0.4651790000000  0.5495620000000 1.0
C      1  0.5188060000000  0.5030190000000  0.4364870000000 1.0
C      1  0.4273860000000  0.4992490000000  0.4981440000000 1.0
C      1  0.5485080000000  0.4981760000000  0.5456830000000 1.0
C      1  0.4851030000000  0.4975200000000  0.4351270000000 1.0
C      1  0.5636440000000  0.5038060000000  0.5155320000000 1.0
C      1  0.4658010000000  0.4990840000000  0.5661810000000 1.0
C      1  0.5222100000000  0.4440670000000  0.4546340000000 1.0
C      1  0.4469950000000  0.4437030000000  0.5017020000000 1.0
C      1  0.5270840000000  0.4405800000000  0.5446390000000 1.0
C      1  0.4738800000000  0.4387100000000  0.4523870000000 1.0
C      1  0.5480270000000  0.4470320000000  0.5003450000000 1.0
C      1  0.4721930000000  0.4455420000000  0.5434500000000 1.0
END
