TITL C-1154821-8623-98 0.00115736684952343 125000 -360.71110584383 0 0 60 (C1) n - 1
REM
REM in /home/nfs/bkarasulu/CARBON/AIRSS/Generating-Clusters/AIREBO/Higher-Symm/Only-C60
REM
REM
REM
REM
REM
REM ./C.cell (28575a23ae977d3b5fae324c64b13b57)
REM
REM compiler GCC version 9.2.1 20190827 (Red Hat 9.2.1-1)
REM options -cpp -mtune=generic -march=x86-64 -g -O0 -fpre-include=/usr/include/finclude/math-vector-fortran.h
REM seed -2005218574 1085148223 1080906753 -838785129 -636240593 -480496195 -3866279 -714085805 2023085035 1916745286 -333965465 -1509171084 1833075218 -1814811127 620172380 -1607496481 1610976029 2056906185 -1962281090 -2041667235 1066603269 1418561206 74773656 -1697470010 -2140972368 112665418 629544403 -173503803 262376338 1486212506 422919845 -1940399530 -2106361089
REM
CELL 1.54180   50.00000   50.00000   50.00000   90.00000   90.00000   90.00000
LATT -1
SFAC C  
C      1  0.4669260000000  0.4453850000000  0.4908940000000 1.0
C      1  0.4433380000000  0.4885570000000  0.4659450000000 1.0
C      1  0.4880720000000  0.4766870000000  0.4396670000000 1.0
C      1  0.4759310000000  0.5614240000000  0.5119910000000 1.0
C      1  0.5321990000000  0.4457630000000  0.5141140000000 1.0
C      1  0.5377450000000  0.5551440000000  0.4877020000000 1.0
C      1  0.4423640000000  0.5107860000000  0.5362440000000 1.0
C      1  0.5542830000000  0.4855230000000  0.5317030000000 1.0
C      1  0.5635460000000  0.5124210000000  0.4746400000000 1.0
C      1  0.4873600000000  0.5397310000000  0.5599990000000 1.0
C      1  0.5109500000000  0.4681030000000  0.5589530000000 1.0
C      1  0.5079800000000  0.5381440000000  0.4412420000000 1.0
C      1  0.4621200000000  0.4874850000000  0.4366220000000 1.0
C      1  0.4395710000000  0.4645800000000  0.4865620000000 1.0
C      1  0.4923790000000  0.4327800000000  0.4727260000000 1.0
C      1  0.4696950000000  0.5161260000000  0.5560330000000 1.0
C      1  0.5249780000000  0.5136510000000  0.4387010000000 1.0
C      1  0.5371320000000  0.4832940000000  0.5611590000000 1.0
C      1  0.4416160000000  0.5245310000000  0.5103070000000 1.0
C      1  0.5653030000000  0.5382090000000  0.4866130000000 1.0
C      1  0.5628420000000  0.4600970000000  0.5107100000000 1.0
C      1  0.4870510000000  0.5638840000000  0.5380760000000 1.0
C      1  0.5142150000000  0.5612160000000  0.4658070000000 1.0
C      1  0.5135920000000  0.4404080000000  0.5390030000000 1.0
C      1  0.4614510000000  0.5598850000000  0.4829650000000 1.0
C      1  0.5617310000000  0.4844970000000  0.4599080000000 1.0
C      1  0.4776430000000  0.4642840000000  0.5646440000000 1.0
C      1  0.4630750000000  0.4395210000000  0.5234110000000 1.0
C      1  0.5355110000000  0.5595140000000  0.5189820000000 1.0
C      1  0.5402350000000  0.4438050000000  0.4823430000000 1.0
C      1  0.5604200000000  0.5187100000000  0.5358240000000 1.0
C      1  0.4372700000000  0.4804650000000  0.5381590000000 1.0
C      1  0.4361340000000  0.5216100000000  0.4624600000000 1.0
C      1  0.4772180000000  0.5375790000000  0.4389630000000 1.0
C      1  0.5168610000000  0.4650480000000  0.4435110000000 1.0
C      1  0.5190420000000  0.5334700000000  0.5600470000000 1.0
C      1  0.4586490000000  0.4843280000000  0.5610050000000 1.0
C      1  0.5641790000000  0.4623600000000  0.4784730000000 1.0
C      1  0.4805310000000  0.5587620000000  0.4612970000000 1.0
C      1  0.4580350000000  0.5170420000000  0.4421620000000 1.0
C      1  0.5379410000000  0.5130810000000  0.5554550000000 1.0
C      1  0.5372970000000  0.4856050000000  0.4430630000000 1.0
C      1  0.5591420000000  0.5394070000000  0.5172900000000 1.0
C      1  0.4407160000000  0.5386230000000  0.4847910000000 1.0
C      1  0.4419480000000  0.4613770000000  0.5174090000000 1.0
C      1  0.4835810000000  0.4441730000000  0.5423830000000 1.0
C      1  0.5191220000000  0.4439380000000  0.4632400000000 1.0
C      1  0.5170250000000  0.5568050000000  0.5398430000000 1.0
C      1  0.5148490000000  0.5085830000000  0.4693110000000 1.0
C      1  0.4970460000000  0.4808460000000  0.5338870000000 1.0
C      1  0.5098990000000  0.4684350000000  0.5107040000000 1.0
C      1  0.4705920000000  0.5117300000000  0.5067260000000 1.0
C      1  0.5047290000000  0.5337730000000  0.4807600000000 1.0
C      1  0.4940190000000  0.4634400000000  0.4874730000000 1.0
C      1  0.4871450000000  0.5353400000000  0.5008840000000 1.0
C      1  0.4690780000000  0.4943510000000  0.4830690000000 1.0
C      1  0.5376430000000  0.5019730000000  0.4862350000000 1.0
C      1  0.5339360000000  0.4870960000000  0.5080340000000 1.0
C      1  0.4804760000000  0.4997720000000  0.5313570000000 1.0
C      1  0.4946410000000  0.4868470000000  0.4685230000000 1.0
END
