TITL C-1154824-75-453 0.00123958451971076 125000 -351.546524783903 0 0 60 (C1) n - 1
REM
REM in /home/nfs/bkarasulu/CARBON/AIRSS/Generating-Clusters/AIREBO/Higher-Symm/Only-C60
REM
REM
REM
REM
REM
REM ./C.cell (28575a23ae977d3b5fae324c64b13b57)
REM
REM compiler GCC version 9.2.1 20190827 (Red Hat 9.2.1-1)
REM options -cpp -mtune=generic -march=x86-64 -g -O0 -fpre-include=/usr/include/finclude/math-vector-fortran.h
REM seed 878375425 -141836996 -1993699615 -777334379 394192589 -1978873302 910759993 654298491 -282063081 1112214519 442651632 -1866280059 -1153035395 266660383 -1057073422 55084536 -1729091543 1878243335 -1566106749 -810617690 -284573692 1741562085 2020347134 108784133 -510421736 -206417468 -569575776 -1438505776 2002200729 826852065 -1948967226 -1880625718 -1959294287
REM
CELL 1.54180   50.00000   50.00000   50.00000   90.00000   90.00000   90.00000
LATT -1
SFAC C  
C      1  0.4657590000000  0.4606560000000  0.4755350000000 1.0
C      1  0.5346800000000  0.4658700000000  0.5262680000000 1.0
C      1  0.5342860000000  0.4590760000000  0.4755030000000 1.0
C      1  0.4677700000000  0.4637000000000  0.5244220000000 1.0
C      1  0.5290960000000  0.5096220000000  0.5122260000000 1.0
C      1  0.4707380000000  0.5086630000000  0.4807350000000 1.0
C      1  0.4726410000000  0.5112170000000  0.5140520000000 1.0
C      1  0.5297750000000  0.5119760000000  0.4802360000000 1.0
C      1  0.5751370000000  0.4925110000000  0.5140460000000 1.0
C      1  0.4242100000000  0.4951000000000  0.4825250000000 1.0
C      1  0.4260460000000  0.4923630000000  0.5129250000000 1.0
C      1  0.5771210000000  0.4952000000000  0.4834080000000 1.0
C      1  0.4892400000000  0.4941020000000  0.5599290000000 1.0
C      1  0.5054100000000  0.4942380000000  0.4222230000000 1.0
C      1  0.5166760000000  0.4950500000000  0.5687140000000 1.0
C      1  0.4802880000000  0.4902770000000  0.4343300000000 1.0
C      1  0.4832550000000  0.4844520000000  0.4653120000000 1.0
C      1  0.5157090000000  0.4851590000000  0.5207880000000 1.0
C      1  0.5172150000000  0.4838300000000  0.4677430000000 1.0
C      1  0.4859150000000  0.4878400000000  0.5279980000000 1.0
C      1  0.4451450000000  0.5441640000000  0.4862820000000 1.0
C      1  0.5554820000000  0.5422040000000  0.5161520000000 1.0
C      1  0.5574980000000  0.5443000000000  0.4879610000000 1.0
C      1  0.4448460000000  0.5420760000000  0.5144120000000 1.0
C      1  0.5200430000000  0.4288890000000  0.4695280000000 1.0
C      1  0.4701600000000  0.4424020000000  0.5494050000000 1.0
C      1  0.4929280000000  0.4219020000000  0.4690290000000 1.0
C      1  0.5269110000000  0.4447700000000  0.5478150000000 1.0
C      1  0.4564090000000  0.4990180000000  0.5525700000000 1.0
C      1  0.5488180000000  0.5124460000000  0.4428970000000 1.0
C      1  0.5458040000000  0.4989710000000  0.5550130000000 1.0
C      1  0.4401960000000  0.5177730000000  0.4399330000000 1.0
C      1  0.5623680000000  0.4679810000000  0.4853860000000 1.0
C      1  0.4395540000000  0.4654590000000  0.5147860000000 1.0
C      1  0.4398960000000  0.4679450000000  0.4846110000000 1.0
C      1  0.5610350000000  0.4652730000000  0.5158800000000 1.0
C      1  0.5152660000000  0.5683540000000  0.4643200000000 1.0
C      1  0.4857600000000  0.5638580000000  0.5372010000000 1.0
C      1  0.4881790000000  0.5779260000000  0.4621060000000 1.0
C      1  0.5124400000000  0.5724740000000  0.5419360000000 1.0
C      1  0.5167230000000  0.5373360000000  0.5082260000000 1.0
C      1  0.4842460000000  0.5363580000000  0.4853990000000 1.0
C      1  0.4867590000000  0.5390450000000  0.5183360000000 1.0
C      1  0.5139600000000  0.5389760000000  0.4752410000000 1.0
C      1  0.4843170000000  0.4359040000000  0.5189040000000 1.0
C      1  0.5284870000000  0.4347970000000  0.4988440000000 1.0
C      1  0.5141480000000  0.4320140000000  0.5222570000000 1.0
C      1  0.4765740000000  0.4370350000000  0.4864900000000 1.0
C      1  0.4663050000000  0.4692680000000  0.5638790000000 1.0
C      1  0.5264180000000  0.4976850000000  0.4405860000000 1.0
C      1  0.5348880000000  0.4688600000000  0.5659900000000 1.0
C      1  0.4553270000000  0.4995810000000  0.4261240000000 1.0
C      1  0.5607860000000  0.5171810000000  0.4720650000000 1.0
C      1  0.4433130000000  0.5125230000000  0.5269300000000 1.0
C      1  0.4412020000000  0.5166410000000  0.4706740000000 1.0
C      1  0.5561670000000  0.5119510000000  0.5283430000000 1.0
C      1  0.4679790000000  0.5606210000000  0.4734090000000 1.0
C      1  0.5321140000000  0.5579970000000  0.5273820000000 1.0
C      1  0.5440410000000  0.5652130000000  0.4737760000000 1.0
C      1  0.4565400000000  0.5619250000000  0.5310040000000 1.0
END
