TITL C-1154810-7815-263 -0.000159873953999942 125000 -311.51953118692 0 0 60 (C1) n - 1
REM
REM in /home/nfs/bkarasulu/CARBON/AIRSS/Generating-Clusters/AIREBO/Higher-Symm/Only-C60
REM
REM
REM
REM
REM
REM ./C.cell (28575a23ae977d3b5fae324c64b13b57)
REM
REM compiler GCC version 9.2.1 20190827 (Red Hat 9.2.1-1)
REM options -cpp -mtune=generic -march=x86-64 -g -O0 -fpre-include=/usr/include/finclude/math-vector-fortran.h
REM seed 851276614 621759979 -1595301116 1565192378 158426013 -1242469750 539680404 -1188590873 1214245042 1538090399 -1923500219 225180154 -1076395786 710519727 -1270612206 -1789280254 -1881361742 -222856600 -668166320 -314737515 1705469695 868609561 -1442235655 -404080426 -284659682 -796990859 119550315 814813608 -23835260 524337204 -1254333783 1678654053 1080418770
REM
CELL 1.54180   50.00000   50.00000   50.00000   90.00000   90.00000   90.00000
LATT -1
SFAC C  
C      1  0.5202770000000  0.4404180000000  0.5382230000000 1.0
C      1  0.4671490000000  0.4491860000000  0.5421480000000 1.0
C      1  0.4419310000000  0.4944000000000  0.5407210000000 1.0
C      1  0.4565780000000  0.5315070000000  0.5432690000000 1.0
C      1  0.5045450000000  0.5512530000000  0.5405070000000 1.0
C      1  0.5458320000000  0.5247430000000  0.5418940000000 1.0
C      1  0.5560100000000  0.4807910000000  0.5366360000000 1.0
C      1  0.4739080000000  0.5239190000000  0.5666130000000 1.0
C      1  0.5015610000000  0.5336890000000  0.5631640000000 1.0
C      1  0.5271740000000  0.5200340000000  0.5658680000000 1.0
C      1  0.5306470000000  0.4900180000000  0.5536820000000 1.0
C      1  0.5112580000000  0.4650460000000  0.5560250000000 1.0
C      1  0.4799800000000  0.4740030000000  0.5582180000000 1.0
C      1  0.4603680000000  0.4966590000000  0.5624880000000 1.0
C      1  0.5413650000000  0.4353750000000  0.5201760000000 1.0
C      1  0.4765150000000  0.4257520000000  0.5306900000000 1.0
C      1  0.4281380000000  0.4713240000000  0.5335520000000 1.0
C      1  0.4362590000000  0.5369870000000  0.5225510000000 1.0
C      1  0.4904090000000  0.5735160000000  0.5279760000000 1.0
C      1  0.5537470000000  0.5461150000000  0.5249630000000 1.0
C      1  0.5732890000000  0.4954820000000  0.5200560000000 1.0
C      1  0.5602240000000  0.5089000000000  0.4925260000000 1.0
C      1  0.5403530000000  0.4543490000000  0.4934800000000 1.0
C      1  0.4879650000000  0.4308700000000  0.4998460000000 1.0
C      1  0.4436030000000  0.4552520000000  0.5104230000000 1.0
C      1  0.4452490000000  0.5260800000000  0.4916240000000 1.0
C      1  0.4799070000000  0.5602080000000  0.5056560000000 1.0
C      1  0.5372310000000  0.5467150000000  0.4976730000000 1.0
C      1  0.5663600000000  0.5295560000000  0.4670410000000 1.0
C      1  0.5574440000000  0.4713650000000  0.4702070000000 1.0
C      1  0.5081610000000  0.4328130000000  0.4764040000000 1.0
C      1  0.4589340000000  0.4362740000000  0.4887440000000 1.0
C      1  0.4405850000000  0.4959260000000  0.4788100000000 1.0
C      1  0.4685240000000  0.5437360000000  0.4795880000000 1.0
C      1  0.5205400000000  0.5647500000000  0.4762200000000 1.0
C      1  0.4921660000000  0.5312560000000  0.4080130000000 1.0
C      1  0.5192700000000  0.5350690000000  0.4131230000000 1.0
C      1  0.5282910000000  0.5235480000000  0.4367880000000 1.0
C      1  0.5189660000000  0.4595510000000  0.4358310000000 1.0
C      1  0.4911420000000  0.4688860000000  0.4395550000000 1.0
C      1  0.4768570000000  0.4867890000000  0.4230390000000 1.0
C      1  0.4779740000000  0.5148370000000  0.4262160000000 1.0
C      1  0.5011310000000  0.5422520000000  0.4683820000000 1.0
C      1  0.5323080000000  0.5270420000000  0.4703760000000 1.0
C      1  0.5339030000000  0.4937610000000  0.4772260000000 1.0
C      1  0.5180860000000  0.4646260000000  0.4696220000000 1.0
C      1  0.4855350000000  0.4744580000000  0.4701550000000 1.0
C      1  0.4574760000000  0.4691810000000  0.4820700000000 1.0
C      1  0.4772270000000  0.5242750000000  0.4542760000000 1.0
C      1  0.4754430000000  0.5317370000000  0.5170130000000 1.0
C      1  0.5153260000000  0.5341280000000  0.5180930000000 1.0
C      1  0.5352740000000  0.5067640000000  0.5149770000000 1.0
C      1  0.5289400000000  0.4732950000000  0.5174670000000 1.0
C      1  0.4987100000000  0.4568500000000  0.5189900000000 1.0
C      1  0.4696090000000  0.4746480000000  0.5197450000000 1.0
C      1  0.4567550000000  0.5037460000000  0.5145360000000 1.0
C      1  0.5005800000000  0.4919120000000  0.5379200000000 1.0
C      1  0.4929400000000  0.5042490000000  0.4768330000000 1.0
C      1  0.5101220000000  0.5030220000000  0.4475030000000 1.0
C      1  0.4959390000000  0.5086410000000  0.5086740000000 1.0
END
