TITL C-1154825-9328-460 9.82078363308047e-05 125000 -349.621255940943 0 0 60 (C1) n - 1
REM
REM in /home/nfs/bkarasulu/CARBON/AIRSS/Generating-Clusters/AIREBO/Higher-Symm/Only-C60
REM
REM
REM
REM
REM
REM ./C.cell (28575a23ae977d3b5fae324c64b13b57)
REM
REM compiler GCC version 9.2.1 20190827 (Red Hat 9.2.1-1)
REM options -cpp -mtune=generic -march=x86-64 -g -O0 -fpre-include=/usr/include/finclude/math-vector-fortran.h
REM seed 140404834 -2143442511 1942091344 -156476606 1126769042 -1845288825 -1124797014 -1475290538 1469470175 1059855279 1729398085 -1580466686 1795248090 408522714 1929951435 2437195 694114386 1688948073 672392809 -2015502679 143023967 1086020615 1409702953 754614840 -170340761 1888761227 -1511273362 1800667319 2092152238 1314588557 -1346360708 702582736 -1471163874
REM
CELL 1.54180   50.00000   50.00000   50.00000   90.00000   90.00000   90.00000
LATT -1
SFAC C  
C      1  0.4524960000000  0.4618120000000  0.4693010000000 1.0
C      1  0.5389190000000  0.4486320000000  0.5342040000000 1.0
C      1  0.5426630000000  0.5350100000000  0.4710580000000 1.0
C      1  0.4560020000000  0.5485960000000  0.5319650000000 1.0
C      1  0.5494490000000  0.5540620000000  0.5342320000000 1.0
C      1  0.4459910000000  0.5469420000000  0.4681070000000 1.0
C      1  0.4541130000000  0.4442970000000  0.5322850000000 1.0
C      1  0.5543310000000  0.4522210000000  0.4679220000000 1.0
C      1  0.4963500000000  0.5487030000000  0.4734670000000 1.0
C      1  0.4492940000000  0.4966860000000  0.5248380000000 1.0
C      1  0.5038780000000  0.4545110000000  0.4769000000000 1.0
C      1  0.5468600000000  0.5009410000000  0.5233640000000 1.0
C      1  0.4615170000000  0.4522260000000  0.5072050000000 1.0
C      1  0.5462190000000  0.4619260000000  0.4918990000000 1.0
C      1  0.5427360000000  0.5488330000000  0.5082910000000 1.0
C      1  0.4529960000000  0.5395620000000  0.4933350000000 1.0
C      1  0.5344370000000  0.5117380000000  0.5509770000000 1.0
C      1  0.4870170000000  0.5356640000000  0.4473440000000 1.0
C      1  0.4692200000000  0.4865170000000  0.5485720000000 1.0
C      1  0.5151560000000  0.4680430000000  0.4490440000000 1.0
C      1  0.5123440000000  0.4870720000000  0.5435480000000 1.0
C      1  0.5085210000000  0.5131090000000  0.4468330000000 1.0
C      1  0.4917520000000  0.5117350000000  0.5490850000000 1.0
C      1  0.4918360000000  0.4892150000000  0.4612010000000 1.0
C      1  0.4991420000000  0.4336350000000  0.5012570000000 1.0
C      1  0.5686260000000  0.4940600000000  0.4992660000000 1.0
C      1  0.4967340000000  0.5717990000000  0.4970250000000 1.0
C      1  0.4253570000000  0.4990780000000  0.5020290000000 1.0
C      1  0.5032440000000  0.5496130000000  0.5457400000000 1.0
C      1  0.4470180000000  0.5045040000000  0.4494030000000 1.0
C      1  0.4956430000000  0.4439290000000  0.5534640000000 1.0
C      1  0.5567750000000  0.4931780000000  0.4450830000000 1.0
C      1  0.5023290000000  0.4855320000000  0.5149540000000 1.0
C      1  0.5235740000000  0.5076710000000  0.4769190000000 1.0
C      1  0.5009340000000  0.5269770000000  0.5202960000000 1.0
C      1  0.4864780000000  0.5004290000000  0.4895980000000 1.0
C      1  0.5580880000000  0.4693970000000  0.5205570000000 1.0
C      1  0.5262440000000  0.5613690000000  0.4833060000000 1.0
C      1  0.4371520000000  0.5268710000000  0.5177230000000 1.0
C      1  0.4732990000000  0.4399620000000  0.4799750000000 1.0
C      1  0.4291110000000  0.4725410000000  0.4810950000000 1.0
C      1  0.5268100000000  0.4266590000000  0.5198340000000 1.0
C      1  0.5702910000000  0.5237770000000  0.4826910000000 1.0
C      1  0.4697380000000  0.5686100000000  0.5176210000000 1.0
C      1  0.5433500000000  0.4677180000000  0.4464510000000 1.0
C      1  0.5318080000000  0.5401230000000  0.5522610000000 1.0
C      1  0.4585740000000  0.5308700000000  0.4478230000000 1.0
C      1  0.4703440000000  0.4578980000000  0.5521360000000 1.0
C      1  0.4723200000000  0.5380490000000  0.5533420000000 1.0
C      1  0.4641860000000  0.4817200000000  0.4523780000000 1.0
C      1  0.5194380000000  0.4600140000000  0.5520130000000 1.0
C      1  0.5407960000000  0.5167920000000  0.4424060000000 1.0
C      1  0.4247070000000  0.5012780000000  0.4680440000000 1.0
C      1  0.4982070000000  0.4231700000000  0.5332830000000 1.0
C      1  0.5760100000000  0.4967390000000  0.4661860000000 1.0
C      1  0.4987200000000  0.5763330000000  0.5300200000000 1.0
C      1  0.5284350000000  0.5209110000000  0.5069100000000 1.0
C      1  0.4819400000000  0.5309870000000  0.4953640000000 1.0
C      1  0.4701510000000  0.4804680000000  0.5090610000000 1.0
C      1  0.5203300000000  0.4792880000000  0.4895110000000 1.0
END
