TITL C-1154821-8623-496 0.00403806790224618 125000 -349.971591826119 0 0 60 (C1) n - 1
REM
REM in /home/nfs/bkarasulu/CARBON/AIRSS/Generating-Clusters/AIREBO/Higher-Symm/Only-C60
REM
REM
REM
REM
REM
REM ./C.cell (28575a23ae977d3b5fae324c64b13b57)
REM
REM compiler GCC version 9.2.1 20190827 (Red Hat 9.2.1-1)
REM options -cpp -mtune=generic -march=x86-64 -g -O0 -fpre-include=/usr/include/finclude/math-vector-fortran.h
REM seed 720785898 -1822875239 -72051416 1401844279 -2096066082 -1670073051 -189991963 160133721 -459289267 -1427865525 1459767366 1008999334 1063463641 952463565 -31027237 -899403066 1692831215 -1718771240 -1140076506 -1211276686 558353174 690330275 -1726193189 1838794185 1654392872 -1755543184 -335423888 -1236262127 451128982 -822997746 1338603389 178463810 -1383091089
REM
CELL 1.54180   50.00000   50.00000   50.00000   90.00000   90.00000   90.00000
LATT -1
SFAC C  
C      1  0.5315440000000  0.4923870000000  0.4375190000000 1.0
C      1  0.4954060000000  0.4408010000000  0.5374600000000 1.0
C      1  0.4409030000000  0.5361950000000  0.4941130000000 1.0
C      1  0.5200450000000  0.5127130000000  0.5372470000000 1.0
C      1  0.4663770000000  0.4767300000000  0.5506140000000 1.0
C      1  0.4709930000000  0.5227730000000  0.4498420000000 1.0
C      1  0.4779050000000  0.5497470000000  0.4663760000000 1.0
C      1  0.5182870000000  0.4503600000000  0.4673880000000 1.0
C      1  0.5072520000000  0.5438030000000  0.5321140000000 1.0
C      1  0.4517290000000  0.4675080000000  0.5236960000000 1.0
C      1  0.5439940000000  0.5217120000000  0.5161700000000 1.0
C      1  0.5443060000000  0.4651170000000  0.4778500000000 1.0
C      1  0.4696210000000  0.4905760000000  0.4499980000000 1.0
C      1  0.5232670000000  0.4529330000000  0.5324550000000 1.0
C      1  0.5445830000000  0.5306600000000  0.4876040000000 1.0
C      1  0.4636110000000  0.5057620000000  0.5594390000000 1.0
C      1  0.5312770000000  0.4821180000000  0.5433220000000 1.0
C      1  0.5344980000000  0.5222480000000  0.4535200000000 1.0
C      1  0.5067530000000  0.5600330000000  0.4659420000000 1.0
C      1  0.4911660000000  0.4471430000000  0.4814970000000 1.0
C      1  0.4757700000000  0.5510850000000  0.5316410000000 1.0
C      1  0.5623600000000  0.4626780000000  0.5042950000000 1.0
C      1  0.4491590000000  0.5347960000000  0.5233810000000 1.0
C      1  0.4640700000000  0.4640830000000  0.4931900000000 1.0
C      1  0.4419620000000  0.5129020000000  0.5390650000000 1.0
C      1  0.5155640000000  0.5413290000000  0.4440900000000 1.0
C      1  0.5389950000000  0.4433710000000  0.5115770000000 1.0
C      1  0.4524480000000  0.4820760000000  0.4730170000000 1.0
C      1  0.5640590000000  0.5104250000000  0.4720810000000 1.0
C      1  0.5599520000000  0.4818240000000  0.5297890000000 1.0
C      1  0.5108500000000  0.4761080000000  0.5673100000000 1.0
C      1  0.4796490000000  0.5353560000000  0.5596830000000 1.0
C      1  0.4866690000000  0.4730170000000  0.4373350000000 1.0
C      1  0.5319840000000  0.5582420000000  0.4873650000000 1.0
C      1  0.4657340000000  0.4297380000000  0.4903520000000 1.0
C      1  0.4708890000000  0.5711480000000  0.5083240000000 1.0
C      1  0.5664950000000  0.5079860000000  0.5246390000000 1.0
C      1  0.4936760000000  0.5311700000000  0.4292050000000 1.0
C      1  0.4650210000000  0.4375550000000  0.5228420000000 1.0
C      1  0.5492380000000  0.4864480000000  0.4626110000000 1.0
C      1  0.4446340000000  0.5141640000000  0.4697390000000 1.0
C      1  0.4310870000000  0.4907280000000  0.5258660000000 1.0
C      1  0.4886900000000  0.4618010000000  0.5583030000000 1.0
C      1  0.5127750000000  0.5320500000000  0.5635890000000 1.0
C      1  0.5125170000000  0.4680120000000  0.4429870000000 1.0
C      1  0.4600040000000  0.5581470000000  0.4860900000000 1.0
C      1  0.5260240000000  0.4300200000000  0.4910140000000 1.0
C      1  0.5250370000000  0.5644360000000  0.5181300000000 1.0
C      1  0.4848500000000  0.5122140000000  0.5840620000000 1.0
C      1  0.5239410000000  0.5009580000000  0.4081410000000 1.0
C      1  0.5107920000000  0.5849430000000  0.4869360000000 1.0
C      1  0.5895220000000  0.4787970000000  0.4969800000000 1.0
C      1  0.4899800000000  0.4147820000000  0.5183780000000 1.0
C      1  0.4901160000000  0.5910740000000  0.5030950000000 1.0
C      1  0.5079140000000  0.4098120000000  0.4988610000000 1.0
C      1  0.5893300000000  0.5013190000000  0.4846510000000 1.0
C      1  0.4112890000000  0.4963860000000  0.5065400000000 1.0
C      1  0.4162430000000  0.5151300000000  0.4873720000000 1.0
C      1  0.5016250000000  0.5173940000000  0.4059190000000 1.0
C      1  0.5055720000000  0.4951780000000  0.5873880000000 1.0
END
