TITL C-1154808-8168-57 0.00481953339485725 125000 -308.419166252103 0 0 60 (C1) n - 1
REM
REM in /home/nfs/bkarasulu/CARBON/AIRSS/Generating-Clusters/AIREBO/Higher-Symm/Only-C60
REM
REM
REM
REM
REM
REM ./C.cell (28575a23ae977d3b5fae324c64b13b57)
REM
REM compiler GCC version 9.2.1 20190827 (Red Hat 9.2.1-1)
REM options -cpp -mtune=generic -march=x86-64 -g -O0 -fpre-include=/usr/include/finclude/math-vector-fortran.h
REM seed -308088866 -894251798 -1884148380 -300214705 1122183418 -959800381 -894505388 1700018263 9444344 -543664950 -68799005 -1096000931 1641273303 -317983025 -412330272 -1567966688 1368277825 232941817 2068319869 -1708642363 -542181557 3400978 1647448568 -357040293 1718273810 584909960 -55816452 -1920577487 -1302131018 800224263 -1743302267 46652615 -1436018954
REM
CELL 1.54180   50.00000   50.00000   50.00000   90.00000   90.00000   90.00000
LATT -1
SFAC C  
C      1  0.4302120000000  0.5088810000000  0.4469280000000 1.0
C      1  0.5063370000000  0.4549570000000  0.4265740000000 1.0
C      1  0.4671610000000  0.4283910000000  0.4943810000000 1.0
C      1  0.4324770000000  0.4940670000000  0.5396860000000 1.0
C      1  0.5702180000000  0.4989210000000  0.5513180000000 1.0
C      1  0.5647340000000  0.4930930000000  0.4459730000000 1.0
C      1  0.5067060000000  0.5461670000000  0.5736410000000 1.0
C      1  0.4927420000000  0.4717180000000  0.5741280000000 1.0
C      1  0.5152540000000  0.5428620000000  0.4390550000000 1.0
C      1  0.4358400000000  0.5681370000000  0.4981860000000 1.0
C      1  0.5478660000000  0.4314830000000  0.4821140000000 1.0
C      1  0.5450640000000  0.5644200000000  0.5147600000000 1.0
C      1  0.4693130000000  0.4055160000000  0.5088230000000 1.0
C      1  0.5055190000000  0.4346760000000  0.4458390000000 1.0
C      1  0.4538830000000  0.5096790000000  0.4320690000000 1.0
C      1  0.4272150000000  0.5414100000000  0.4922160000000 1.0
C      1  0.5645280000000  0.5476350000000  0.5102860000000 1.0
C      1  0.5675880000000  0.4498080000000  0.4876310000000 1.0
C      1  0.5038680000000  0.5682170000000  0.5566950000000 1.0
C      1  0.4919520000000  0.5595950000000  0.4488410000000 1.0
C      1  0.4859960000000  0.4628170000000  0.5970730000000 1.0
C      1  0.4137360000000  0.4861540000000  0.5550970000000 1.0
C      1  0.5386400000000  0.4891660000000  0.4372120000000 1.0
C      1  0.5455380000000  0.5014130000000  0.5637580000000 1.0
C      1  0.4791320000000  0.5028740000000  0.4515420000000 1.0
C      1  0.4999750000000  0.4479120000000  0.4764430000000 1.0
C      1  0.4590040000000  0.4805290000000  0.4968820000000 1.0
C      1  0.4813580000000  0.5090170000000  0.5384230000000 1.0
C      1  0.5208120000000  0.5033520000000  0.5417460000000 1.0
C      1  0.5165970000000  0.4938760000000  0.4620310000000 1.0
C      1  0.5106880000000  0.5605050000000  0.5277630000000 1.0
C      1  0.4983890000000  0.4607690000000  0.5250190000000 1.0
C      1  0.4923360000000  0.5494130000000  0.4811090000000 1.0
C      1  0.4509220000000  0.5195310000000  0.4965460000000 1.0
C      1  0.5591140000000  0.4787850000000  0.4988230000000 1.0
C      1  0.5573090000000  0.5185890000000  0.4995490000000 1.0
C      1  0.4796100000000  0.4567500000000  0.5018150000000 1.0
C      1  0.4919360000000  0.4714250000000  0.4532260000000 1.0
C      1  0.4532060000000  0.5019750000000  0.4711180000000 1.0
C      1  0.4663340000000  0.5486270000000  0.4956010000000 1.0
C      1  0.5169930000000  0.5613640000000  0.4958000000000 1.0
C      1  0.5231090000000  0.4352540000000  0.4924030000000 1.0
C      1  0.5069530000000  0.5310280000000  0.5426740000000 1.0
C      1  0.5010890000000  0.5229960000000  0.4611290000000 1.0
C      1  0.4979920000000  0.4816480000000  0.5459700000000 1.0
C      1  0.4563570000000  0.5010520000000  0.5221110000000 1.0
C      1  0.5478910000000  0.4971670000000  0.4750840000000 1.0
C      1  0.5498420000000  0.4989080000000  0.5242670000000 1.0
C      1  0.4580640000000  0.5583910000000  0.5469330000000 1.0
C      1  0.5528450000000  0.4592980000000  0.5238290000000 1.0
C      1  0.5571970000000  0.5357530000000  0.4714500000000 1.0
C      1  0.5463630000000  0.4346950000000  0.5432440000000 1.0
C      1  0.5409590000000  0.5500490000000  0.4469560000000 1.0
C      1  0.4561100000000  0.5681680000000  0.5212450000000 1.0
C      1  0.5230960000000  0.4452350000000  0.5207870000000 1.0
C      1  0.5415260000000  0.5637820000000  0.4750880000000 1.0
C      1  0.4695830000000  0.5352470000000  0.5554860000000 1.0
C      1  0.4415300000000  0.4644150000000  0.4741640000000 1.0
C      1  0.4614210000000  0.4578620000000  0.4501880000000 1.0
C      1  0.4519670000000  0.4345760000000  0.4712710000000 1.0
END
