TITL C-1154826-9507-562 0.000400754852086554 125000 -330.559940787797 0 0 60 (C1) n - 1
REM
REM in /home/nfs/bkarasulu/CARBON/AIRSS/Generating-Clusters/AIREBO/Higher-Symm/Only-C60
REM
REM
REM
REM
REM
REM ./C.cell (28575a23ae977d3b5fae324c64b13b57)
REM
REM compiler GCC version 9.2.1 20190827 (Red Hat 9.2.1-1)
REM options -cpp -mtune=generic -march=x86-64 -g -O0 -fpre-include=/usr/include/finclude/math-vector-fortran.h
REM seed 1977515568 715926156 696575454 314392493 1190190501 1164854808 1390169456 1277845750 -1429402424 -1631623128 35574570 -963064521 -1869213706 466044654 -818144758 -1420457590 -603446861 -1372514600 843825554 372176118 999320565 -1972614480 -1818155681 -541752434 1427096926 1307501245 1468373569 -1028150358 1740556358 -1192042406 -492833745 619270716 392826432
REM
CELL 1.54180   50.00000   50.00000   50.00000   90.00000   90.00000   90.00000
LATT -1
SFAC C  
C      1  0.4705450000000  0.4746420000000  0.4899040000000 1.0
C      1  0.4815190000000  0.5052540000000  0.5284540000000 1.0
C      1  0.4752990000000  0.5241530000000  0.4790250000000 1.0
C      1  0.5278400000000  0.5043170000000  0.4358250000000 1.0
C      1  0.5265980000000  0.4389930000000  0.5056760000000 1.0
C      1  0.5234020000000  0.5580210000000  0.5450840000000 1.0
C      1  0.5398550000000  0.4658210000000  0.4560860000000 1.0
C      1  0.5467000000000  0.4715670000000  0.5579420000000 1.0
C      1  0.5450020000000  0.5633060000000  0.5020880000000 1.0
C      1  0.4674660000000  0.5415810000000  0.4443310000000 1.0
C      1  0.4534840000000  0.4395520000000  0.4814480000000 1.0
C      1  0.4651310000000  0.5228810000000  0.5600810000000 1.0
C      1  0.4780140000000  0.5590140000000  0.5206470000000 1.0
C      1  0.4798820000000  0.4864280000000  0.4372900000000 1.0
C      1  0.4833380000000  0.4543030000000  0.5378780000000 1.0
C      1  0.5069950000000  0.4794610000000  0.4322770000000 1.0
C      1  0.5163320000000  0.4588600000000  0.5353660000000 1.0
C      1  0.5039800000000  0.5718450000000  0.5218820000000 1.0
C      1  0.5143340000000  0.4512870000000  0.4463150000000 1.0
C      1  0.5173200000000  0.4719800000000  0.5667210000000 1.0
C      1  0.5172740000000  0.5717110000000  0.4921670000000 1.0
C      1  0.4407050000000  0.4655730000000  0.4960110000000 1.0
C      1  0.4496420000000  0.5113030000000  0.5368990000000 1.0
C      1  0.4460310000000  0.5288210000000  0.4623530000000 1.0
C      1  0.4254150000000  0.5018000000000  0.4578440000000 1.0
C      1  0.4376020000000  0.4604890000000  0.5272460000000 1.0
C      1  0.4292430000000  0.5229410000000  0.5128330000000 1.0
C      1  0.4514220000000  0.4937680000000  0.4432940000000 1.0
C      1  0.4573810000000  0.4477570000000  0.5403760000000 1.0
C      1  0.4494690000000  0.5478370000000  0.5206610000000 1.0
C      1  0.5213410000000  0.5215820000000  0.4589010000000 1.0
C      1  0.4974380000000  0.4509310000000  0.5003910000000 1.0
C      1  0.5214580000000  0.5285050000000  0.5458770000000 1.0
C      1  0.5395050000000  0.5163430000000  0.4805980000000 1.0
C      1  0.5309230000000  0.4726090000000  0.5078550000000 1.0
C      1  0.5420580000000  0.5153000000000  0.5318480000000 1.0
C      1  0.5676650000000  0.4940590000000  0.4607150000000 1.0
C      1  0.5693060000000  0.4638750000000  0.5143070000000 1.0
C      1  0.5678210000000  0.5458170000000  0.5297240000000 1.0
C      1  0.5439220000000  0.4843580000000  0.4825950000000 1.0
C      1  0.5499950000000  0.4858170000000  0.5314430000000 1.0
C      1  0.5498150000000  0.5311670000000  0.5049960000000 1.0
C      1  0.4873260000000  0.4790050000000  0.5166910000000 1.0
C      1  0.4747200000000  0.5284800000000  0.5084250000000 1.0
C      1  0.4730620000000  0.4947370000000  0.4686980000000 1.0
C      1  0.5548840000000  0.5599040000000  0.5467220000000 1.0
C      1  0.5589900000000  0.5024030000000  0.4380270000000 1.0
C      1  0.5577210000000  0.4434130000000  0.5029270000000 1.0
C      1  0.4814940000000  0.4377520000000  0.4790370000000 1.0
C      1  0.4971690000000  0.5148490000000  0.5563920000000 1.0
C      1  0.4976180000000  0.5399370000000  0.4600600000000 1.0
C      1  0.5032250000000  0.4923180000000  0.5760170000000 1.0
C      1  0.5058180000000  0.5680190000000  0.4686410000000 1.0
C      1  0.4966560000000  0.4325700000000  0.4560180000000 1.0
C      1  0.5405310000000  0.4415600000000  0.5555600000000 1.0
C      1  0.5348570000000  0.5859510000000  0.5242190000000 1.0
C      1  0.5387880000000  0.4714980000000  0.4231910000000 1.0
C      1  0.4275370000000  0.4907450000000  0.5239970000000 1.0
C      1  0.4206010000000  0.5227380000000  0.4836530000000 1.0
C      1  0.4205390000000  0.4884920000000  0.4884720000000 1.0
END
