TITL C-1154804-8633-107 0.000638550498742911 125000 -316.252524858221 0 0 60 (C1) n - 1
REM
REM in /home/nfs/bkarasulu/CARBON/AIRSS/Generating-Clusters/AIREBO/Higher-Symm/Only-C60
REM
REM
REM
REM
REM
REM ./C.cell (28575a23ae977d3b5fae324c64b13b57)
REM
REM compiler GCC version 9.2.1 20190827 (Red Hat 9.2.1-1)
REM options -cpp -mtune=generic -march=x86-64 -g -O0 -fpre-include=/usr/include/finclude/math-vector-fortran.h
REM seed 284379177 1778078889 -520048984 732871986 119035203 1212289040 934760345 2120496677 1572872588 -418532483 -760900799 -2044857726 127544728 1099038344 1710890857 -608768301 1309179597 2087332638 -216320792 1022342734 893779582 -2118862297 970649926 1503287078 1033543986 -2006637257 -742371165 346211407 -843853971 -97019765 -540994680 1885173125 1965299540
REM
CELL 1.54180   50.00000   50.00000   50.00000   90.00000   90.00000   90.00000
LATT -1
SFAC C  
C      1  0.5564500000000  0.5205540000000  0.5297570000000 1.0
C      1  0.4413540000000  0.4737090000000  0.4858170000000 1.0
C      1  0.5437070000000  0.4124860000000  0.5116120000000 1.0
C      1  0.4752220000000  0.5894880000000  0.4717500000000 1.0
C      1  0.5329460000000  0.4362850000000  0.4979220000000 1.0
C      1  0.4747570000000  0.5690470000000  0.4929970000000 1.0
C      1  0.5349130000000  0.5168190000000  0.5499790000000 1.0
C      1  0.4563890000000  0.4715310000000  0.4614450000000 1.0
C      1  0.5033110000000  0.5769300000000  0.5097160000000 1.0
C      1  0.5022010000000  0.4247930000000  0.4889950000000 1.0
C      1  0.4446750000000  0.5730120000000  0.5083390000000 1.0
C      1  0.5591760000000  0.4475150000000  0.4794110000000 1.0
C      1  0.5123460000000  0.5652900000000  0.5301200000000 1.0
C      1  0.4874890000000  0.4344340000000  0.4706490000000 1.0
C      1  0.4558720000000  0.4960370000000  0.4092930000000 1.0
C      1  0.4959930000000  0.4689150000000  0.5603510000000 1.0
C      1  0.6076500000000  0.5250070000000  0.4910660000000 1.0
C      1  0.4099070000000  0.4836390000000  0.5403780000000 1.0
C      1  0.4386570000000  0.5289470000000  0.4790500000000 1.0
C      1  0.5616610000000  0.4699760000000  0.5247440000000 1.0
C      1  0.4885400000000  0.4581480000000  0.4498830000000 1.0
C      1  0.5082860000000  0.5410640000000  0.5491660000000 1.0
C      1  0.5069750000000  0.4788460000000  0.4789340000000 1.0
C      1  0.4926320000000  0.5251540000000  0.5114030000000 1.0
C      1  0.5355000000000  0.4616320000000  0.5195000000000 1.0
C      1  0.4637930000000  0.5407930000000  0.4775250000000 1.0
C      1  0.5595940000000  0.5453380000000  0.5181710000000 1.0
C      1  0.4436820000000  0.4548560000000  0.5055840000000 1.0
C      1  0.5174350000000  0.4884790000000  0.5607820000000 1.0
C      1  0.4621630000000  0.4899440000000  0.4330960000000 1.0
C      1  0.5407740000000  0.4686000000000  0.4410950000000 1.0
C      1  0.4510110000000  0.5397400000000  0.5465000000000 1.0
C      1  0.5994670000000  0.5038830000000  0.5065740000000 1.0
C      1  0.4062780000000  0.4953380000000  0.5158910000000 1.0
C      1  0.4501200000000  0.4573560000000  0.5334460000000 1.0
C      1  0.5643100000000  0.5464000000000  0.4899520000000 1.0
C      1  0.4275780000000  0.4643300000000  0.5491620000000 1.0
C      1  0.5918240000000  0.5461550000000  0.4827490000000 1.0
C      1  0.4470430000000  0.5200060000000  0.5168080000000 1.0
C      1  0.5545000000000  0.4967980000000  0.4828040000000 1.0
C      1  0.4856530000000  0.5198360000000  0.4724560000000 1.0
C      1  0.5166780000000  0.4851790000000  0.5171170000000 1.0
C      1  0.5692840000000  0.4976540000000  0.5120140000000 1.0
C      1  0.4298500000000  0.5008010000000  0.4952270000000 1.0
C      1  0.5152500000000  0.4567860000000  0.4333040000000 1.0
C      1  0.4755380000000  0.5398930000000  0.5582760000000 1.0
C      1  0.4718840000000  0.5044840000000  0.4995120000000 1.0
C      1  0.5242770000000  0.5005560000000  0.4912540000000 1.0
C      1  0.5041810000000  0.5093930000000  0.5374690000000 1.0
C      1  0.4843660000000  0.4906850000000  0.4588560000000 1.0
C      1  0.5468500000000  0.5291790000000  0.4755960000000 1.0
C      1  0.4765820000000  0.4666560000000  0.5382720000000 1.0
C      1  0.5153190000000  0.5274210000000  0.4770650000000 1.0
C      1  0.4859650000000  0.4810560000000  0.5160770000000 1.0
C      1  0.5139310000000  0.4440610000000  0.4092990000000 1.0
C      1  0.4859300000000  0.5128060000000  0.5661450000000 1.0
C      1  0.4785230000000  0.5471990000000  0.5187910000000 1.0
C      1  0.5207280000000  0.4564360000000  0.4734060000000 1.0
C      1  0.4362160000000  0.5513190000000  0.5222890000000 1.0
C      1  0.5568160000000  0.4713270000000  0.4651580000000 1.0
END
