TITL C-1154821-8623-585 0.00185063209691681 125000 -332.571437019641 0 0 60 (C1) n - 1
REM
REM in /home/nfs/bkarasulu/CARBON/AIRSS/Generating-Clusters/AIREBO/Higher-Symm/Only-C60
REM
REM
REM
REM
REM
REM ./C.cell (28575a23ae977d3b5fae324c64b13b57)
REM
REM compiler GCC version 9.2.1 20190827 (Red Hat 9.2.1-1)
REM options -cpp -mtune=generic -march=x86-64 -g -O0 -fpre-include=/usr/include/finclude/math-vector-fortran.h
REM seed -165290750 -1677221778 674392504 850429405 -1439516946 -605940196 -619696803 -1619767190 532224814 -2090973919 -2030155734 -925153894 -1979565897 -380136749 -911386943 533801925 -1780985881 -1563307842 319048965 -1172939937 -833213165 -543289216 -644974165 1959614052 933899178 390305518 -268429782 -240028507 -1381671566 -1935961046 -513656538 -1394889929 1150175851
REM
CELL 1.54180   50.00000   50.00000   50.00000   90.00000   90.00000   90.00000
LATT -1
SFAC C  
C      1  0.5078650000000  0.5629910000000  0.5422210000000 1.0
C      1  0.4900670000000  0.5608220000000  0.4491680000000 1.0
C      1  0.4816450000000  0.4716320000000  0.4473600000000 1.0
C      1  0.5004230000000  0.4235850000000  0.5038030000000 1.0
C      1  0.4790140000000  0.4847650000000  0.5681750000000 1.0
C      1  0.4939650000000  0.4787880000000  0.4910360000000 1.0
C      1  0.4917420000000  0.4968980000000  0.5265100000000 1.0
C      1  0.4998210000000  0.5142470000000  0.5078210000000 1.0
C      1  0.4810490000000  0.5231760000000  0.4826310000000 1.0
C      1  0.5002940000000  0.5003640000000  0.4680550000000 1.0
C      1  0.5227370000000  0.4491840000000  0.4693200000000 1.0
C      1  0.5338120000000  0.4415230000000  0.5424790000000 1.0
C      1  0.5191960000000  0.5192230000000  0.5574580000000 1.0
C      1  0.5177800000000  0.5630670000000  0.4916380000000 1.0
C      1  0.5188340000000  0.5064700000000  0.4409610000000 1.0
C      1  0.4262930000000  0.4911450000000  0.5251910000000 1.0
C      1  0.4333850000000  0.5188000000000  0.5147900000000 1.0
C      1  0.4279820000000  0.5196640000000  0.4864740000000 1.0
C      1  0.4145110000000  0.4913540000000  0.4796120000000 1.0
C      1  0.4097890000000  0.4786010000000  0.5053510000000 1.0
C      1  0.5040490000000  0.5335820000000  0.4445520000000 1.0
C      1  0.5111090000000  0.4703770000000  0.4561910000000 1.0
C      1  0.5117020000000  0.4353800000000  0.5302280000000 1.0
C      1  0.5025200000000  0.4968120000000  0.5526120000000 1.0
C      1  0.5026400000000  0.5583070000000  0.5153300000000 1.0
C      1  0.5531100000000  0.5231040000000  0.4782580000000 1.0
C      1  0.5502770000000  0.4904430000000  0.4767070000000 1.0
C      1  0.5563770000000  0.4763670000000  0.5037250000000 1.0
C      1  0.5610860000000  0.4973100000000  0.5288450000000 1.0
C      1  0.5522860000000  0.5248970000000  0.5117630000000 1.0
C      1  0.5473880000000  0.5070230000000  0.4488040000000 1.0
C      1  0.5512970000000  0.4563450000000  0.4775410000000 1.0
C      1  0.5543980000000  0.4658590000000  0.5343010000000 1.0
C      1  0.5466670000000  0.5224350000000  0.5452930000000 1.0
C      1  0.5462580000000  0.5525930000000  0.4927210000000 1.0
C      1  0.4770190000000  0.4361680000000  0.4649410000000 1.0
C      1  0.4637070000000  0.4412570000000  0.5490230000000 1.0
C      1  0.4764950000000  0.5367420000000  0.5675830000000 1.0
C      1  0.4739250000000  0.5736570000000  0.4921930000000 1.0
C      1  0.4746750000000  0.5126770000000  0.4205640000000 1.0
C      1  0.4794600000000  0.4424900000000  0.5223450000000 1.0
C      1  0.4651180000000  0.5109160000000  0.5524670000000 1.0
C      1  0.4740750000000  0.5445760000000  0.5081170000000 1.0
C      1  0.4695510000000  0.5343400000000  0.4433480000000 1.0
C      1  0.4613200000000  0.4652290000000  0.4730160000000 1.0
C      1  0.5735630000000  0.4389980000000  0.4674150000000 1.0
C      1  0.5622680000000  0.4417110000000  0.5563710000000 1.0
C      1  0.5658950000000  0.5382160000000  0.5628160000000 1.0
C      1  0.5677890000000  0.5738400000000  0.4930450000000 1.0
C      1  0.5682120000000  0.5075460000000  0.4272070000000 1.0
C      1  0.4966500000000  0.5730810000000  0.4734500000000 1.0
C      1  0.4915910000000  0.4931570000000  0.4297400000000 1.0
C      1  0.5027820000000  0.4302560000000  0.4768810000000 1.0
C      1  0.4690290000000  0.4590490000000  0.5692340000000 1.0
C      1  0.5037600000000  0.5426130000000  0.5611590000000 1.0
C      1  0.4557690000000  0.5298570000000  0.5268010000000 1.0
C      1  0.4541130000000  0.5206160000000  0.4665800000000 1.0
C      1  0.4422770000000  0.4887280000000  0.4667810000000 1.0
C      1  0.4709160000000  0.4670890000000  0.5056550000000 1.0
C      1  0.4586730000000  0.4900580000000  0.5263440000000 1.0
END
