TITL C-1154827-9204-26 -0.00500335425537998 125000 -345.234532242639 0 0 60 (C1) n - 1
REM
REM in /home/nfs/bkarasulu/CARBON/AIRSS/Generating-Clusters/AIREBO/Higher-Symm/Only-C60
REM
REM
REM
REM
REM
REM ./C.cell (28575a23ae977d3b5fae324c64b13b57)
REM
REM compiler GCC version 9.2.1 20190827 (Red Hat 9.2.1-1)
REM options -cpp -mtune=generic -march=x86-64 -g -O0 -fpre-include=/usr/include/finclude/math-vector-fortran.h
REM seed -104806496 -2071716766 245695489 -2037477647 -895580612 288856240 -685200976 566692847 -1989666998 -44845693 1236190761 -775305902 267337093 -407935468 -2105684320 295684124 978588115 -1045007154 51582209 -845500862 1683381868 -1726410128 1871920655 -1325323936 1661112513 -83963714 -466702105 1522217050 865933394 2026455422 -717970386 1933633147 -1964886374
REM
CELL 1.54180   50.00000   50.00000   50.00000   90.00000   90.00000   90.00000
LATT -1
SFAC C  
C      1  0.5263970000000  0.4751970000000  0.4909380000000 1.0
C      1  0.5190610000000  0.5023050000000  0.4788190000000 1.0
C      1  0.5361850000000  0.5240780000000  0.4899880000000 1.0
C      1  0.5376110000000  0.5285850000000  0.5219970000000 1.0
C      1  0.5314870000000  0.5017320000000  0.5370160000000 1.0
C      1  0.5262040000000  0.4715550000000  0.5222440000000 1.0
C      1  0.4787790000000  0.5318340000000  0.4885710000000 1.0
C      1  0.4897050000000  0.5041030000000  0.4856900000000 1.0
C      1  0.4762070000000  0.4807020000000  0.4910620000000 1.0
C      1  0.4617060000000  0.4806530000000  0.5144660000000 1.0
C      1  0.4618850000000  0.5056860000000  0.5344780000000 1.0
C      1  0.4676030000000  0.5341820000000  0.5180180000000 1.0
C      1  0.4564540000000  0.4580280000000  0.4649900000000 1.0
C      1  0.4611710000000  0.5068930000000  0.4466490000000 1.0
C      1  0.4389600000000  0.5545530000000  0.4836600000000 1.0
C      1  0.4244110000000  0.5380430000000  0.5430070000000 1.0
C      1  0.4326900000000  0.4764490000000  0.5614780000000 1.0
C      1  0.4530430000000  0.4420190000000  0.5145160000000 1.0
C      1  0.5464070000000  0.5420840000000  0.4565330000000 1.0
C      1  0.5402940000000  0.4924680000000  0.4460540000000 1.0
C      1  0.5422490000000  0.4400040000000  0.4821250000000 1.0
C      1  0.5580200000000  0.4582480000000  0.5429010000000 1.0
C      1  0.5752360000000  0.5181570000000  0.5529320000000 1.0
C      1  0.5671890000000  0.5659000000000  0.5094040000000 1.0
C      1  0.4391690000000  0.5479360000000  0.5156880000000 1.0
C      1  0.4333290000000  0.5070580000000  0.5484790000000 1.0
C      1  0.4365990000000  0.4648940000000  0.5311410000000 1.0
C      1  0.4397460000000  0.4495860000000  0.4873350000000 1.0
C      1  0.4463380000000  0.4830020000000  0.4531260000000 1.0
C      1  0.4539650000000  0.5298870000000  0.4670240000000 1.0
C      1  0.5523810000000  0.4523970000000  0.5108430000000 1.0
C      1  0.5598730000000  0.4898600000000  0.5469830000000 1.0
C      1  0.5668890000000  0.5389960000000  0.5291360000000 1.0
C      1  0.5625530000000  0.5448960000000  0.4846850000000 1.0
C      1  0.5580350000000  0.5146360000000  0.4495410000000 1.0
C      1  0.5480640000000  0.4696370000000  0.4661160000000 1.0
C      1  0.4140080000000  0.4782280000000  0.5148150000000 1.0
C      1  0.4177090000000  0.4695460000000  0.4884630000000 1.0
C      1  0.4227340000000  0.4904390000000  0.4688660000000 1.0
C      1  0.4259740000000  0.5171210000000  0.4782750000000 1.0
C      1  0.4192680000000  0.5250320000000  0.5038400000000 1.0
C      1  0.4137680000000  0.5053170000000  0.5226340000000 1.0
C      1  0.5862920000000  0.5176540000000  0.5145050000000 1.0
C      1  0.5853220000000  0.5244900000000  0.4870610000000 1.0
C      1  0.5802890000000  0.5056040000000  0.4669070000000 1.0
C      1  0.5754590000000  0.4792110000000  0.4762440000000 1.0
C      1  0.5768850000000  0.4719300000000  0.5033040000000 1.0
C      1  0.5811160000000  0.4916360000000  0.5224570000000 1.0
C      1  0.5119080000000  0.4995240000000  0.4461490000000 1.0
C      1  0.5198640000000  0.5534140000000  0.4621280000000 1.0
C      1  0.5169260000000  0.5522220000000  0.5102110000000 1.0
C      1  0.5034790000000  0.5088830000000  0.5472010000000 1.0
C      1  0.4980510000000  0.4627180000000  0.5346010000000 1.0
C      1  0.5119610000000  0.4499900000000  0.4766150000000 1.0
C      1  0.4871830000000  0.5065590000000  0.4365930000000 1.0
C      1  0.4855740000000  0.4544550000000  0.4715730000000 1.0
C      1  0.4798220000000  0.4414120000000  0.5269660000000 1.0
C      1  0.4861290000000  0.4859200000000  0.5455780000000 1.0
C      1  0.4907560000000  0.5324150000000  0.5414710000000 1.0
C      1  0.5036260000000  0.5500360000000  0.4859140000000 1.0
END
