TITL C-1154826-9507-190 0.000336668505750753 125000 -336.066297090123 0 0 60 (C1) n - 1
REM
REM in /home/nfs/bkarasulu/CARBON/AIRSS/Generating-Clusters/AIREBO/Higher-Symm/Only-C60
REM
REM
REM
REM
REM
REM ./C.cell (28575a23ae977d3b5fae324c64b13b57)
REM
REM compiler GCC version 9.2.1 20190827 (Red Hat 9.2.1-1)
REM options -cpp -mtune=generic -march=x86-64 -g -O0 -fpre-include=/usr/include/finclude/math-vector-fortran.h
REM seed 1279641363 718976367 111081705 704616915 1069771280 -782752085 -1986459569 76156371 292995108 -1856345985 194041736 2043682800 1959615821 -871111807 956697840 806353472 485237937 542213856 1214540593 1464733160 -769454534 1605855682 900699665 1778734191 896622462 -368196258 1061966132 -1865016689 1630128774 775639527 2049698207 -946112769 622293068
REM
CELL 1.54180   50.00000   50.00000   50.00000   90.00000   90.00000   90.00000
LATT -1
SFAC C  
C      1  0.4903550000000  0.5679820000000  0.4673840000000 1.0
C      1  0.4854330000000  0.4669290000000  0.4270070000000 1.0
C      1  0.4927640000000  0.4335390000000  0.5282620000000 1.0
C      1  0.4924840000000  0.5321280000000  0.5696430000000 1.0
C      1  0.4885740000000  0.4323010000000  0.4665530000000 1.0
C      1  0.4881420000000  0.5289480000000  0.4328050000000 1.0
C      1  0.4896830000000  0.5695980000000  0.5297190000000 1.0
C      1  0.4930120000000  0.4702780000000  0.5659680000000 1.0
C      1  0.4647130000000  0.4309920000000  0.5479250000000 1.0
C      1  0.4624430000000  0.5488680000000  0.5692380000000 1.0
C      1  0.4609290000000  0.5690460000000  0.4498990000000 1.0
C      1  0.4561460000000  0.4500050000000  0.4302060000000 1.0
C      1  0.4611570000000  0.5688340000000  0.5483040000000 1.0
C      1  0.4651270000000  0.4511910000000  0.5686260000000 1.0
C      1  0.4585680000000  0.4298080000000  0.4508870000000 1.0
C      1  0.4603550000000  0.5480600000000  0.4299650000000 1.0
C      1  0.5403460000000  0.5141960000000  0.4646770000000 1.0
C      1  0.5442500000000  0.4585410000000  0.4849860000000 1.0
C      1  0.5456540000000  0.4757320000000  0.5429420000000 1.0
C      1  0.5448530000000  0.5454190000000  0.5212960000000 1.0
C      1  0.5513640000000  0.4830560000000  0.4727490000000 1.0
C      1  0.5403680000000  0.5359320000000  0.4859850000000 1.0
C      1  0.5460620000000  0.5292480000000  0.5452250000000 1.0
C      1  0.5446680000000  0.4565780000000  0.5217510000000 1.0
C      1  0.5155550000000  0.4474450000000  0.4798110000000 1.0
C      1  0.5163290000000  0.4878700000000  0.5501580000000 1.0
C      1  0.5158040000000  0.5550230000000  0.5135620000000 1.0
C      1  0.5123370000000  0.5110510000000  0.4481880000000 1.0
C      1  0.5123640000000  0.5505470000000  0.4841590000000 1.0
C      1  0.5188340000000  0.5167650000000  0.5545710000000 1.0
C      1  0.5135530000000  0.4521630000000  0.5103140000000 1.0
C      1  0.5120870000000  0.4839530000000  0.4366940000000 1.0
C      1  0.4495160000000  0.5310620000000  0.5170600000000 1.0
C      1  0.4469710000000  0.5170450000000  0.4690570000000 1.0
C      1  0.4470670000000  0.4688270000000  0.4828930000000 1.0
C      1  0.4502310000000  0.4829310000000  0.5307840000000 1.0
C      1  0.4513570000000  0.4650220000000  0.5114110000000 1.0
C      1  0.4486620000000  0.4881930000000  0.4650060000000 1.0
C      1  0.4507210000000  0.5350680000000  0.4881120000000 1.0
C      1  0.4527950000000  0.5117030000000  0.5347760000000 1.0
C      1  0.4637140000000  0.4357400000000  0.5150750000000 1.0
C      1  0.4643540000000  0.5161190000000  0.5643470000000 1.0
C      1  0.4620810000000  0.5647250000000  0.4828880000000 1.0
C      1  0.4586170000000  0.4831350000000  0.4350430000000 1.0
C      1  0.4606450000000  0.5623180000000  0.5153600000000 1.0
C      1  0.4634200000000  0.4837060000000  0.5610080000000 1.0
C      1  0.4601310000000  0.4386810000000  0.4828810000000 1.0
C      1  0.4583620000000  0.5158090000000  0.4380760000000 1.0
C      1  0.5670120000000  0.4883300000000  0.5537270000000 1.0
C      1  0.5701160000000  0.5635780000000  0.5133170000000 1.0
C      1  0.5659550000000  0.5185880000000  0.4423640000000 1.0
C      1  0.5654090000000  0.4378260000000  0.4932420000000 1.0
C      1  0.5679500000000  0.5158460000000  0.5540590000000 1.0
C      1  0.5656570000000  0.4323000000000  0.5204220000000 1.0
C      1  0.5716680000000  0.4919830000000  0.4538490000000 1.0
C      1  0.5656360000000  0.5528600000000  0.4880650000000 1.0
C      1  0.5085180000000  0.5447060000000  0.4521130000000 1.0
C      1  0.5060430000000  0.4539830000000  0.4492030000000 1.0
C      1  0.5121240000000  0.4543550000000  0.5444890000000 1.0
C      1  0.5044790000000  0.5435370000000  0.5419110000000 1.0
END
