TITL C-1154824-75-159 0.00315388635127327 125000 -355.327231454613 0 0 60 (C1) n - 1
REM
REM in /home/nfs/bkarasulu/CARBON/AIRSS/Generating-Clusters/AIREBO/Higher-Symm/Only-C60
REM
REM
REM
REM
REM
REM ./C.cell (28575a23ae977d3b5fae324c64b13b57)
REM
REM compiler GCC version 9.2.1 20190827 (Red Hat 9.2.1-1)
REM options -cpp -mtune=generic -march=x86-64 -g -O0 -fpre-include=/usr/include/finclude/math-vector-fortran.h
REM seed -1798034910 -287339963 -1494186535 402162626 -790763159 215881044 -1295289955 -200150548 1944218954 -1860391845 -627682339 -136342390 1965108803 -1961862090 -426016902 -1869627490 140484177 -1531694070 -386550037 906588357 1187188523 -387894115 -1200087002 -2107013500 1830071649 -333427459 -432961496 -1298614056 -1324478303 187004907 646771834 194921030 1258499770
REM
CELL 1.54180   50.00000   50.00000   50.00000   90.00000   90.00000   90.00000
LATT -1
SFAC C  
C      1  0.4684420000000  0.4877830000000  0.4303320000000 1.0
C      1  0.5392230000000  0.4843370000000  0.5703150000000 1.0
C      1  0.4645780000000  0.5188290000000  0.5588220000000 1.0
C      1  0.5383810000000  0.5200740000000  0.4342750000000 1.0
C      1  0.4330350000000  0.4801960000000  0.4640210000000 1.0
C      1  0.5730060000000  0.4850620000000  0.5367750000000 1.0
C      1  0.5826010000000  0.5081310000000  0.4650410000000 1.0
C      1  0.4281260000000  0.5108110000000  0.5315440000000 1.0
C      1  0.4548040000000  0.5126080000000  0.4356190000000 1.0
C      1  0.5465190000000  0.5127650000000  0.5652390000000 1.0
C      1  0.4595810000000  0.4901850000000  0.5606900000000 1.0
C      1  0.5433770000000  0.4902440000000  0.4412020000000 1.0
C      1  0.4328470000000  0.5081930000000  0.4565440000000 1.0
C      1  0.5650180000000  0.5129400000000  0.5425670000000 1.0
C      1  0.5632010000000  0.4850590000000  0.4606870000000 1.0
C      1  0.4350800000000  0.4851670000000  0.5448230000000 1.0
C      1  0.4354550000000  0.4792830000000  0.4941200000000 1.0
C      1  0.5718050000000  0.4805130000000  0.5090540000000 1.0
C      1  0.4265630000000  0.5081890000000  0.5034540000000 1.0
C      1  0.5656590000000  0.5087450000000  0.4927750000000 1.0
C      1  0.4963440000000  0.4894310000000  0.4274880000000 1.0
C      1  0.5134880000000  0.4770240000000  0.5620970000000 1.0
C      1  0.5101840000000  0.5125260000000  0.4411750000000 1.0
C      1  0.4943080000000  0.5260580000000  0.5620800000000 1.0
C      1  0.4612110000000  0.4514840000000  0.4814100000000 1.0
C      1  0.5236170000000  0.4336360000000  0.5063930000000 1.0
C      1  0.4725920000000  0.5684330000000  0.5079790000000 1.0
C      1  0.5206920000000  0.5606480000000  0.4934630000000 1.0
C      1  0.4838660000000  0.4474140000000  0.4601510000000 1.0
C      1  0.5062170000000  0.4328380000000  0.5246870000000 1.0
C      1  0.5186790000000  0.5513780000000  0.4666190000000 1.0
C      1  0.4984760000000  0.5752570000000  0.5029250000000 1.0
C      1  0.4922450000000  0.4872570000000  0.4773430000000 1.0
C      1  0.5067350000000  0.4843390000000  0.5307530000000 1.0
C      1  0.4926940000000  0.5107260000000  0.5316600000000 1.0
C      1  0.5078840000000  0.5134780000000  0.4730950000000 1.0
C      1  0.4683090000000  0.4883290000000  0.4951940000000 1.0
C      1  0.5259470000000  0.4845050000000  0.5074030000000 1.0
C      1  0.5317980000000  0.5125980000000  0.4936860000000 1.0
C      1  0.4714780000000  0.5132640000000  0.5117290000000 1.0
C      1  0.4819760000000  0.4726510000000  0.5597070000000 1.0
C      1  0.5201030000000  0.4739290000000  0.4395890000000 1.0
C      1  0.4643440000000  0.5320310000000  0.4579400000000 1.0
C      1  0.5269530000000  0.5327690000000  0.5654970000000 1.0
C      1  0.5579700000000  0.4704360000000  0.4844440000000 1.0
C      1  0.4359490000000  0.4648350000000  0.5248960000000 1.0
C      1  0.4408600000000  0.5291930000000  0.4825530000000 1.0
C      1  0.5593190000000  0.5269160000000  0.5186130000000 1.0
C      1  0.4876050000000  0.4566890000000  0.5309150000000 1.0
C      1  0.5093100000000  0.4629710000000  0.4661920000000 1.0
C      1  0.4902670000000  0.5403320000000  0.4618950000000 1.0
C      1  0.5129830000000  0.5361770000000  0.5355230000000 1.0
C      1  0.5292690000000  0.4585870000000  0.4890040000000 1.0
C      1  0.4648170000000  0.4592100000000  0.5116950000000 1.0
C      1  0.4571240000000  0.5420680000000  0.5095180000000 1.0
C      1  0.5309970000000  0.5398870000000  0.5127290000000 1.0
C      1  0.4479090000000  0.5304510000000  0.5390130000000 1.0
C      1  0.5620510000000  0.4695460000000  0.5588430000000 1.0
C      1  0.5386250000000  0.5463410000000  0.4466390000000 1.0
C      1  0.4575080000000  0.4652440000000  0.4495660000000 1.0
END
