TITL C-1154828-9214-488 -0.000275270544981822 125000 -317.41906005772 0 0 60 (C1) n - 1
REM
REM in /home/nfs/bkarasulu/CARBON/AIRSS/Generating-Clusters/AIREBO/Higher-Symm/Only-C60
REM
REM
REM
REM
REM
REM ./C.cell (28575a23ae977d3b5fae324c64b13b57)
REM
REM compiler GCC version 9.2.1 20190827 (Red Hat 9.2.1-1)
REM options -cpp -mtune=generic -march=x86-64 -g -O0 -fpre-include=/usr/include/finclude/math-vector-fortran.h
REM seed 1858010210 2018404631 -1845500197 1967096550 -665851086 -1464556708 -1768434775 -672926531 -816273283 989467441 -980685468 1481852092 -509798456 967226849 -1351372869 1497331337 875128307 931794235 1424336222 1758173030 -1019517244 1463303094 978169876 157726581 -426293064 884173058 1221091324 -1755538494 262398358 293926175 -279135957 -877332573 209321068
REM
CELL 1.54180   50.00000   50.00000   50.00000   90.00000   90.00000   90.00000
LATT -1
SFAC C  
C      1  0.4974030000000  0.5692810000000  0.5665800000000 1.0
C      1  0.4961500000000  0.5837690000000  0.4561800000000 1.0
C      1  0.5005320000000  0.4850330000000  0.4068730000000 1.0
C      1  0.5042920000000  0.4042020000000  0.4808480000000 1.0
C      1  0.5070680000000  0.4709640000000  0.5678020000000 1.0
C      1  0.5212010000000  0.4870270000000  0.5265850000000 1.0
C      1  0.5215450000000  0.5199740000000  0.5236630000000 1.0
C      1  0.5198990000000  0.5278190000000  0.4907420000000 1.0
C      1  0.5192240000000  0.4992000000000  0.4727290000000 1.0
C      1  0.5187550000000  0.4738310000000  0.4953460000000 1.0
C      1  0.4343330000000  0.4570260000000  0.4985680000000 1.0
C      1  0.4359730000000  0.4823760000000  0.5393020000000 1.0
C      1  0.4452580000000  0.5324940000000  0.5292710000000 1.0
C      1  0.4414940000000  0.5380080000000  0.4792680000000 1.0
C      1  0.4386720000000  0.4885020000000  0.4557910000000 1.0
C      1  0.4693610000000  0.4488860000000  0.4608710000000 1.0
C      1  0.4109620000000  0.4385630000000  0.5392350000000 1.0
C      1  0.4709890000000  0.5134670000000  0.5653310000000 1.0
C      1  0.4699540000000  0.5678150000000  0.5068830000000 1.0
C      1  0.4700530000000  0.5248020000000  0.4399370000000 1.0
C      1  0.5457750000000  0.5165000000000  0.4624780000000 1.0
C      1  0.5456180000000  0.4693420000000  0.4749920000000 1.0
C      1  0.5465610000000  0.4661910000000  0.5227330000000 1.0
C      1  0.5480650000000  0.5123190000000  0.5418840000000 1.0
C      1  0.5465100000000  0.5434720000000  0.5033580000000 1.0
C      1  0.5694750000000  0.4802580000000  0.5136280000000 1.0
C      1  0.5699590000000  0.5074310000000  0.5249210000000 1.0
C      1  0.5692410000000  0.5265690000000  0.5025040000000 1.0
C      1  0.5686490000000  0.5109840000000  0.4775820000000 1.0
C      1  0.5687290000000  0.4824980000000  0.4844360000000 1.0
C      1  0.4604640000000  0.4728500000000  0.4990690000000 1.0
C      1  0.4616800000000  0.4873800000000  0.5237870000000 1.0
C      1  0.4651350000000  0.5145760000000  0.5170220000000 1.0
C      1  0.4634920000000  0.5176260000000  0.4888860000000 1.0
C      1  0.4612520000000  0.4918420000000  0.4774800000000 1.0
C      1  0.5184550000000  0.4708790000000  0.4539180000000 1.0
C      1  0.5274740000000  0.4428370000000  0.5063030000000 1.0
C      1  0.5204180000000  0.4997360000000  0.5581210000000 1.0
C      1  0.5186850000000  0.5537660000000  0.5211380000000 1.0
C      1  0.5181620000000  0.5363130000000  0.4578570000000 1.0
C      1  0.5328850000000  0.4553030000000  0.4316460000000 1.0
C      1  0.5502080000000  0.4229040000000  0.5045020000000 1.0
C      1  0.5343820000000  0.5050900000000  0.5853490000000 1.0
C      1  0.5318960000000  0.5798710000000  0.5302990000000 1.0
C      1  0.5318020000000  0.5532140000000  0.4361610000000 1.0
C      1  0.4456820000000  0.5110050000000  0.5517570000000 1.0
C      1  0.4458870000000  0.5522150000000  0.5071570000000 1.0
C      1  0.4455420000000  0.5195410000000  0.4533240000000 1.0
C      1  0.4427110000000  0.4582270000000  0.4665530000000 1.0
C      1  0.4261580000000  0.4570080000000  0.5271310000000 1.0
C      1  0.4967000000000  0.5622030000000  0.4996770000000 1.0
C      1  0.4971070000000  0.5181000000000  0.4425760000000 1.0
C      1  0.4970720000000  0.4503570000000  0.4656180000000 1.0
C      1  0.5086270000000  0.4354670000000  0.5317910000000 1.0
C      1  0.4972590000000  0.5213090000000  0.5577860000000 1.0
C      1  0.5033480000000  0.5629560000000  0.4726450000000 1.0
C      1  0.5051880000000  0.4933540000000  0.4326260000000 1.0
C      1  0.5086760000000  0.4312090000000  0.4821040000000 1.0
C      1  0.5078680000000  0.4467430000000  0.5561900000000 1.0
C      1  0.5040850000000  0.5475200000000  0.5512070000000 1.0
END
