TITL C-1154823-9327-348 -0.00103435417279339 125000 -340.035007183672 0 0 60 (C1) n - 1
REM
REM in /home/nfs/bkarasulu/CARBON/AIRSS/Generating-Clusters/AIREBO/Higher-Symm/Only-C60
REM
REM
REM
REM
REM
REM ./C.cell (28575a23ae977d3b5fae324c64b13b57)
REM
REM compiler GCC version 9.2.1 20190827 (Red Hat 9.2.1-1)
REM options -cpp -mtune=generic -march=x86-64 -g -O0 -fpre-include=/usr/include/finclude/math-vector-fortran.h
REM seed 741729229 -859011324 -197896318 1726522713 1389532952 1966599539 -553525278 542078347 -1509602386 -1516768774 -812586090 -1069436012 -1209172395 594162373 404927638 -158645007 -1806931878 -25745607 1779465923 -1147562657 1803589092 -1874610133 1180915522 -1227837855 -449323606 -2064800916 -2090209999 1926295715 -1489585976 -779867124 1333684080 1604280117 1555148144
REM
CELL 1.54180   50.00000   50.00000   50.00000   90.00000   90.00000   90.00000
LATT -1
SFAC C  
C      1  0.5467290000000  0.5055690000000  0.4954260000000 1.0
C      1  0.5154060000000  0.5100720000000  0.5384600000000 1.0
C      1  0.4641820000000  0.5067890000000  0.5221550000000 1.0
C      1  0.4631250000000  0.5058090000000  0.4694280000000 1.0
C      1  0.5118200000000  0.5087160000000  0.4558750000000 1.0
C      1  0.4548180000000  0.4907100000000  0.4965730000000 1.0
C      1  0.4864860000000  0.4916460000000  0.5383390000000 1.0
C      1  0.5369760000000  0.4926530000000  0.5234210000000 1.0
C      1  0.5358920000000  0.4914490000000  0.4673890000000 1.0
C      1  0.4862290000000  0.4902750000000  0.4557120000000 1.0
C      1  0.5362970000000  0.5550960000000  0.4723920000000 1.0
C      1  0.5545320000000  0.5544410000000  0.5209490000000 1.0
C      1  0.4584260000000  0.5362290000000  0.5484410000000 1.0
C      1  0.4427480000000  0.5361370000000  0.4856250000000 1.0
C      1  0.4949180000000  0.5602640000000  0.4689990000000 1.0
C      1  0.4653340000000  0.4392290000000  0.4719500000000 1.0
C      1  0.4435590000000  0.4601900000000  0.5403770000000 1.0
C      1  0.5401020000000  0.4638660000000  0.5509390000000 1.0
C      1  0.5526770000000  0.4585450000000  0.4894790000000 1.0
C      1  0.5067650000000  0.4406540000000  0.4621290000000 1.0
C      1  0.4549230000000  0.5358210000000  0.4570830000000 1.0
C      1  0.5245410000000  0.5288280000000  0.4351630000000 1.0
C      1  0.5756380000000  0.5178870000000  0.4985600000000 1.0
C      1  0.4986500000000  0.5166800000000  0.5669880000000 1.0
C      1  0.4367920000000  0.5230200000000  0.5305990000000 1.0
C      1  0.5437500000000  0.4683370000000  0.4477280000000 1.0
C      1  0.4731590000000  0.4699660000000  0.4354590000000 1.0
C      1  0.4252420000000  0.4814760000000  0.5022050000000 1.0
C      1  0.5018220000000  0.4863290000000  0.5676040000000 1.0
C      1  0.5632380000000  0.4738810000000  0.5326940000000 1.0
C      1  0.4692760000000  0.5426760000000  0.5185710000000 1.0
C      1  0.4755550000000  0.5279490000000  0.4903730000000 1.0
C      1  0.5046220000000  0.5313600000000  0.4778900000000 1.0
C      1  0.5305340000000  0.5323060000000  0.4951880000000 1.0
C      1  0.5256780000000  0.5371540000000  0.5262400000000 1.0
C      1  0.5279640000000  0.4595770000000  0.5208580000000 1.0
C      1  0.5224890000000  0.4741030000000  0.4912930000000 1.0
C      1  0.4964500000000  0.4666410000000  0.4761570000000 1.0
C      1  0.4714100000000  0.4633260000000  0.4949220000000 1.0
C      1  0.4722190000000  0.4642710000000  0.5284630000000 1.0
C      1  0.4851530000000  0.4363700000000  0.5210050000000 1.0
C      1  0.4700180000000  0.4225690000000  0.5011820000000 1.0
C      1  0.4886980000000  0.4145910000000  0.4737180000000 1.0
C      1  0.5168830000000  0.4211030000000  0.4914020000000 1.0
C      1  0.5122100000000  0.4349900000000  0.5152040000000 1.0
C      1  0.5090650000000  0.5654740000000  0.5325710000000 1.0
C      1  0.5329200000000  0.5749980000000  0.5160380000000 1.0
C      1  0.5220850000000  0.5779950000000  0.4868820000000 1.0
C      1  0.4901550000000  0.5795790000000  0.4933480000000 1.0
C      1  0.4850360000000  0.5676170000000  0.5183260000000 1.0
C      1  0.4763070000000  0.5327140000000  0.5689860000000 1.0
C      1  0.4255420000000  0.5341360000000  0.5073230000000 1.0
C      1  0.4724760000000  0.5555630000000  0.4502070000000 1.0
C      1  0.5409870000000  0.5476980000000  0.4467550000000 1.0
C      1  0.5775120000000  0.5405000000000  0.5143400000000 1.0
C      1  0.5224280000000  0.4685250000000  0.5714080000000 1.0
C      1  0.5717860000000  0.4601930000000  0.5094500000000 1.0
C      1  0.5289260000000  0.4480820000000  0.4439850000000 1.0
C      1  0.4592960000000  0.4509270000000  0.4447340000000 1.0
C      1  0.4215430000000  0.4664490000000  0.5250380000000 1.0
END
