TITL C-1154803-8277-519 -0.00332925155034007 125000 -325.500130574377 0 0 60 (C1) n - 1
REM
REM in /home/nfs/bkarasulu/CARBON/AIRSS/Generating-Clusters/AIREBO/Higher-Symm/Only-C60
REM
REM
REM
REM
REM
REM ./C.cell (28575a23ae977d3b5fae324c64b13b57)
REM
REM compiler GCC version 9.2.1 20190827 (Red Hat 9.2.1-1)
REM options -cpp -mtune=generic -march=x86-64 -g -O0 -fpre-include=/usr/include/finclude/math-vector-fortran.h
REM seed 688966897 1863624385 1594243038 1622953983 -1057139770 -161646345 1485084301 -799415583 1884009883 2081500802 -1240522969 -1745624925 -1053209766 -231970467 -1789220261 -907190354 47987433 2034895847 814758446 806381353 465726440 -476702862 729396605 1870813202 -594329277 1236163640 -806586306 -304347626 1501046054 1893869542 -1629131691 1137563011 -1517531905
REM
CELL 1.54180   50.00000   50.00000   50.00000   90.00000   90.00000   90.00000
LATT -1
SFAC C  
C      1  0.4115540000000  0.5207950000000  0.4924830000000 1.0
C      1  0.4214310000000  0.5108180000000  0.5228970000000 1.0
C      1  0.4179810000000  0.4778680000000  0.5179040000000 1.0
C      1  0.4179490000000  0.4897800000000  0.4891850000000 1.0
C      1  0.5723270000000  0.4843290000000  0.4955890000000 1.0
C      1  0.5691650000000  0.4897980000000  0.5274590000000 1.0
C      1  0.5745440000000  0.5182990000000  0.5164730000000 1.0
C      1  0.5876700000000  0.5133330000000  0.4883190000000 1.0
C      1  0.5327200000000  0.4560550000000  0.4933850000000 1.0
C      1  0.5159500000000  0.4898200000000  0.4228820000000 1.0
C      1  0.5338670000000  0.5535040000000  0.4945520000000 1.0
C      1  0.5171350000000  0.4997330000000  0.5614490000000 1.0
C      1  0.4887670000000  0.5670220000000  0.5074220000000 1.0
C      1  0.4725050000000  0.5092610000000  0.4344200000000 1.0
C      1  0.4844170000000  0.4419590000000  0.4992370000000 1.0
C      1  0.4674500000000  0.5034170000000  0.5436730000000 1.0
C      1  0.5176920000000  0.5539280000000  0.5426450000000 1.0
C      1  0.5167130000000  0.4461330000000  0.5427950000000 1.0
C      1  0.5087130000000  0.4472200000000  0.4548500000000 1.0
C      1  0.5124420000000  0.5363770000000  0.4436330000000 1.0
C      1  0.4876340000000  0.4553820000000  0.5565140000000 1.0
C      1  0.4909140000000  0.5417150000000  0.5446370000000 1.0
C      1  0.4925610000000  0.5506520000000  0.4616340000000 1.0
C      1  0.4836170000000  0.4622660000000  0.4507340000000 1.0
C      1  0.4320870000000  0.5356470000000  0.4798600000000 1.0
C      1  0.4088490000000  0.5214390000000  0.5453590000000 1.0
C      1  0.4359180000000  0.4585310000000  0.5221700000000 1.0
C      1  0.4263160000000  0.4765620000000  0.4595490000000 1.0
C      1  0.5757710000000  0.4639190000000  0.4679430000000 1.0
C      1  0.5666580000000  0.4741600000000  0.5550400000000 1.0
C      1  0.5736970000000  0.5478240000000  0.5333150000000 1.0
C      1  0.5734330000000  0.5226360000000  0.4667600000000 1.0
C      1  0.4788800000000  0.4766150000000  0.5346670000000 1.0
C      1  0.4748910000000  0.4682220000000  0.4798320000000 1.0
C      1  0.4804400000000  0.5206930000000  0.4638730000000 1.0
C      1  0.4796000000000  0.5370160000000  0.5146160000000 1.0
C      1  0.5244690000000  0.5216990000000  0.5365940000000 1.0
C      1  0.5244450000000  0.5298290000000  0.4735240000000 1.0
C      1  0.5205190000000  0.4775520000000  0.4520510000000 1.0
C      1  0.5244810000000  0.4666410000000  0.5207470000000 1.0
C      1  0.5156600000000  0.4688110000000  0.5683550000000 1.0
C      1  0.5117180000000  0.4406650000000  0.4819600000000 1.0
C      1  0.5021400000000  0.5174310000000  0.4261650000000 1.0
C      1  0.5175950000000  0.5694180000000  0.5190690000000 1.0
C      1  0.4883680000000  0.5172760000000  0.5575980000000 1.0
C      1  0.5040540000000  0.5646410000000  0.4819650000000 1.0
C      1  0.4855050000000  0.4815750000000  0.4308170000000 1.0
C      1  0.4886330000000  0.4333460000000  0.5301870000000 1.0
C      1  0.5465080000000  0.4802230000000  0.4738240000000 1.0
C      1  0.5481450000000  0.5125860000000  0.4672220000000 1.0
C      1  0.5464430000000  0.5369280000000  0.5191480000000 1.0
C      1  0.5391680000000  0.4848490000000  0.5402500000000 1.0
C      1  0.4582050000000  0.5171310000000  0.4847830000000 1.0
C      1  0.4506730000000  0.4860280000000  0.4799550000000 1.0
C      1  0.4620840000000  0.4593150000000  0.5165410000000 1.0
C      1  0.4525840000000  0.5182010000000  0.5183740000000 1.0
C      1  0.5024440000000  0.5188900000000  0.4970800000000 1.0
C      1  0.5004080000000  0.4785210000000  0.4998220000000 1.0
C      1  0.5020880000000  0.4994070000000  0.5245770000000 1.0
C      1  0.5028450000000  0.4963100000000  0.4716430000000 1.0
END
