TITL C-1154808-8168-500 0.000840028627232514 125000 -313.296338683717 0 0 60 (C1) n - 1
REM
REM in /home/nfs/bkarasulu/CARBON/AIRSS/Generating-Clusters/AIREBO/Higher-Symm/Only-C60
REM
REM
REM
REM
REM
REM ./C.cell (28575a23ae977d3b5fae324c64b13b57)
REM
REM compiler GCC version 9.2.1 20190827 (Red Hat 9.2.1-1)
REM options -cpp -mtune=generic -march=x86-64 -g -O0 -fpre-include=/usr/include/finclude/math-vector-fortran.h
REM seed -758585302 113638254 -1093259489 2111702879 -275967477 -749232386 325033628 -943936058 583724655 -2140641423 707499408 1908191036 -1209686894 -346695809 -1571787500 -1933082601 -1149695165 -827730861 -740159578 1993651552 -521078275 1385182964 -2041038816 321744073 1359600159 -385186483 -1110630121 1305430059 -952219032 -1171169865 -323332305 68437945 -11245544
REM
CELL 1.54180   50.00000   50.00000   50.00000   90.00000   90.00000   90.00000
LATT -1
SFAC C  
C      1  0.4568210000000  0.5350720000000  0.4631930000000 1.0
C      1  0.4828410000000  0.5237580000000  0.4482990000000 1.0
C      1  0.5069960000000  0.5246810000000  0.4702770000000 1.0
C      1  0.5568830000000  0.5378130000000  0.5104570000000 1.0
C      1  0.5425670000000  0.5262640000000  0.5385000000000 1.0
C      1  0.4903910000000  0.5303520000000  0.5574910000000 1.0
C      1  0.4411070000000  0.5401070000000  0.5166740000000 1.0
C      1  0.5334430000000  0.5557410000000  0.4967250000000 1.0
C      1  0.5212100000000  0.5476400000000  0.5253120000000 1.0
C      1  0.4902600000000  0.5568980000000  0.5375000000000 1.0
C      1  0.4680420000000  0.5521750000000  0.5116450000000 1.0
C      1  0.4693820000000  0.5579090000000  0.4817820000000 1.0
C      1  0.4926780000000  0.5695620000000  0.4732140000000 1.0
C      1  0.5157320000000  0.5531330000000  0.4754330000000 1.0
C      1  0.5674940000000  0.4861730000000  0.5171400000000 1.0
C      1  0.5325560000000  0.4784400000000  0.5631030000000 1.0
C      1  0.4496050000000  0.4969340000000  0.5626130000000 1.0
C      1  0.4380500000000  0.4979180000000  0.5099570000000 1.0
C      1  0.4541740000000  0.4835450000000  0.4581970000000 1.0
C      1  0.5081340000000  0.4833360000000  0.4280730000000 1.0
C      1  0.5546940000000  0.5023080000000  0.4608390000000 1.0
C      1  0.4415880000000  0.4706790000000  0.5175250000000 1.0
C      1  0.4547410000000  0.4521030000000  0.4550700000000 1.0
C      1  0.5135420000000  0.4567470000000  0.4287280000000 1.0
C      1  0.5494050000000  0.4702660000000  0.4577750000000 1.0
C      1  0.5681200000000  0.4603070000000  0.5083670000000 1.0
C      1  0.5321270000000  0.4520710000000  0.5553460000000 1.0
C      1  0.4642490000000  0.4736050000000  0.5608290000000 1.0
C      1  0.5229490000000  0.5325270000000  0.5631930000000 1.0
C      1  0.4621700000000  0.5251940000000  0.5630450000000 1.0
C      1  0.4283750000000  0.5325700000000  0.4928360000000 1.0
C      1  0.4360010000000  0.5466020000000  0.4438040000000 1.0
C      1  0.5090790000000  0.5341570000000  0.4314770000000 1.0
C      1  0.5928750000000  0.5144070000000  0.4869110000000 1.0
C      1  0.5824010000000  0.5537360000000  0.5159140000000 1.0
C      1  0.4476220000000  0.4506260000000  0.5587030000000 1.0
C      1  0.4304210000000  0.4528750000000  0.5366210000000 1.0
C      1  0.4843930000000  0.4361520000000  0.4602340000000 1.0
C      1  0.5117130000000  0.4406830000000  0.4527430000000 1.0
C      1  0.5349510000000  0.4458720000000  0.4707610000000 1.0
C      1  0.5454900000000  0.4420310000000  0.4976630000000 1.0
C      1  0.5342010000000  0.4481780000000  0.5255850000000 1.0
C      1  0.4435960000000  0.5165160000000  0.5359120000000 1.0
C      1  0.4442720000000  0.5068620000000  0.4775960000000 1.0
C      1  0.4790540000000  0.4944610000000  0.4409240000000 1.0
C      1  0.5240060000000  0.5067920000000  0.4468920000000 1.0
C      1  0.5633010000000  0.5096820000000  0.4929310000000 1.0
C      1  0.5460460000000  0.4965910000000  0.5386900000000 1.0
C      1  0.5091970000000  0.5020530000000  0.5560640000000 1.0
C      1  0.4924180000000  0.4748780000000  0.4636950000000 1.0
C      1  0.5211680000000  0.4833470000000  0.4714740000000 1.0
C      1  0.5336210000000  0.4937400000000  0.4975610000000 1.0
C      1  0.5201680000000  0.4791480000000  0.5251820000000 1.0
C      1  0.4907530000000  0.4769720000000  0.5421290000000 1.0
C      1  0.4713070000000  0.4647010000000  0.5162500000000 1.0
C      1  0.4721630000000  0.4578720000000  0.4829470000000 1.0
C      1  0.4981670000000  0.5124390000000  0.4959850000000 1.0
C      1  0.5004110000000  0.4495570000000  0.5072900000000 1.0
C      1  0.4940510000000  0.5324830000000  0.5154880000000 1.0
C      1  0.4955780000000  0.4839150000000  0.5021880000000 1.0
END
