TITL C-1154810-7815-154 -0.00191620569518273 125000 -327.968953362122 0 0 60 (C1) n - 1
REM
REM in /home/nfs/bkarasulu/CARBON/AIRSS/Generating-Clusters/AIREBO/Higher-Symm/Only-C60
REM
REM
REM
REM
REM
REM ./C.cell (28575a23ae977d3b5fae324c64b13b57)
REM
REM compiler GCC version 9.2.1 20190827 (Red Hat 9.2.1-1)
REM options -cpp -mtune=generic -march=x86-64 -g -O0 -fpre-include=/usr/include/finclude/math-vector-fortran.h
REM seed 1592499049 1866589369 -1881866041 -568074535 1184101856 -962793664 1935736194 -2956804 1039440886 2081198251 -1211425155 310039748 -2097058651 -173937803 1362881082 464892702 1014668425 -1823627270 -1511158966 336539272 2065058508 1397581602 -618417720 -261694563 1138254937 -1099551919 -2063448095 -268243055 -496802540 -1589845238 290933156 -1190236580 -298720354
REM
CELL 1.54180   50.00000   50.00000   50.00000   90.00000   90.00000   90.00000
LATT -1
SFAC C  
C      1  0.5338800000000  0.5698300000000  0.5269140000000 1.0
C      1  0.5428170000000  0.4263760000000  0.5168440000000 1.0
C      1  0.4415930000000  0.4971190000000  0.5474380000000 1.0
C      1  0.4271090000000  0.5028310000000  0.5676520000000 1.0
C      1  0.5096060000000  0.4503830000000  0.5490530000000 1.0
C      1  0.5276740000000  0.5490390000000  0.5436300000000 1.0
C      1  0.5267390000000  0.5413310000000  0.4322840000000 1.0
C      1  0.5191040000000  0.4621940000000  0.4138870000000 1.0
C      1  0.4894070000000  0.5640180000000  0.5138650000000 1.0
C      1  0.4941010000000  0.4485110000000  0.5108240000000 1.0
C      1  0.4441200000000  0.4478350000000  0.5035510000000 1.0
C      1  0.4448910000000  0.5511410000000  0.4991510000000 1.0
C      1  0.4809640000000  0.5148530000000  0.4785130000000 1.0
C      1  0.4858430000000  0.4883060000000  0.4706200000000 1.0
C      1  0.5579410000000  0.5334300000000  0.5074520000000 1.0
C      1  0.5690640000000  0.4665820000000  0.5015850000000 1.0
C      1  0.4975660000000  0.5887640000000  0.5245730000000 1.0
C      1  0.5152850000000  0.4256770000000  0.5181740000000 1.0
C      1  0.4969520000000  0.5410000000000  0.4721590000000 1.0
C      1  0.4918170000000  0.4559540000000  0.4618600000000 1.0
C      1  0.5066900000000  0.5195030000000  0.5733400000000 1.0
C      1  0.5064640000000  0.4883500000000  0.5741480000000 1.0
C      1  0.4690110000000  0.4359080000000  0.4976650000000 1.0
C      1  0.4662250000000  0.5678370000000  0.4944630000000 1.0
C      1  0.5504140000000  0.5540940000000  0.4662140000000 1.0
C      1  0.5474990000000  0.4385710000000  0.4574180000000 1.0
C      1  0.4826700000000  0.5411600000000  0.5338630000000 1.0
C      1  0.4855960000000  0.4754510000000  0.5292120000000 1.0
C      1  0.4901070000000  0.4695370000000  0.5601440000000 1.0
C      1  0.5023070000000  0.5402270000000  0.5533740000000 1.0
C      1  0.5463040000000  0.5254850000000  0.4594560000000 1.0
C      1  0.5364100000000  0.4660960000000  0.4657080000000 1.0
C      1  0.4783560000000  0.5661440000000  0.4694400000000 1.0
C      1  0.4749340000000  0.4323200000000  0.4709590000000 1.0
C      1  0.4461660000000  0.4852380000000  0.4735320000000 1.0
C      1  0.4469830000000  0.5131240000000  0.4580920000000 1.0
C      1  0.5356170000000  0.4819650000000  0.5633410000000 1.0
C      1  0.5363430000000  0.5118010000000  0.5625530000000 1.0
C      1  0.5260140000000  0.4804000000000  0.4403830000000 1.0
C      1  0.5262020000000  0.5091480000000  0.4397020000000 1.0
C      1  0.4645910000000  0.4798600000000  0.4454580000000 1.0
C      1  0.4718600000000  0.5126000000000  0.4393040000000 1.0
C      1  0.4450360000000  0.4759790000000  0.4992580000000 1.0
C      1  0.4517370000000  0.5207930000000  0.4908740000000 1.0
C      1  0.4597870000000  0.4900880000000  0.5220530000000 1.0
C      1  0.4598250000000  0.5237640000000  0.5239590000000 1.0
C      1  0.5342790000000  0.4677480000000  0.5352360000000 1.0
C      1  0.5434140000000  0.5235180000000  0.5348280000000 1.0
C      1  0.4306770000000  0.5412720000000  0.5242290000000 1.0
C      1  0.4221940000000  0.4344650000000  0.5113930000000 1.0
C      1  0.5574560000000  0.4814200000000  0.4819090000000 1.0
C      1  0.5497000000000  0.5100100000000  0.4858270000000 1.0
C      1  0.4945480000000  0.4697710000000  0.4329330000000 1.0
C      1  0.4981540000000  0.5262430000000  0.4442850000000 1.0
C      1  0.5413290000000  0.5603000000000  0.4963160000000 1.0
C      1  0.5544680000000  0.4518690000000  0.5205350000000 1.0
C      1  0.5244240000000  0.5128120000000  0.5087180000000 1.0
C      1  0.5145560000000  0.4827180000000  0.5137010000000 1.0
C      1  0.5125580000000  0.4637140000000  0.4864830000000 1.0
C      1  0.5126210000000  0.5435230000000  0.4996640000000 1.0
END
