TITL C-1154825-9328-567 0.00331646593630257 125000 -332.959252354249 0 0 60 (C1) n - 1
REM
REM in /home/nfs/bkarasulu/CARBON/AIRSS/Generating-Clusters/AIREBO/Higher-Symm/Only-C60
REM
REM
REM
REM
REM
REM ./C.cell (28575a23ae977d3b5fae324c64b13b57)
REM
REM compiler GCC version 9.2.1 20190827 (Red Hat 9.2.1-1)
REM options -cpp -mtune=generic -march=x86-64 -g -O0 -fpre-include=/usr/include/finclude/math-vector-fortran.h
REM seed -1172634152 701483520 1847950776 -985985096 1656857774 961752437 -2024191200 -1094140757 -682881176 1019168408 -1638864731 -1452910569 782923645 189296328 -109735297 -417557612 728843324 1593465936 2055677775 -2145851953 337009036 879012550 2126431123 347990070 -1594902662 -1402792664 586935527 -456112083 -1095635309 -1299169080 -1430391495 16517082 2052623012
REM
CELL 1.54180   50.00000   50.00000   50.00000   90.00000   90.00000   90.00000
LATT -1
SFAC C  
C      1  0.5058120000000  0.4794950000000  0.5657430000000 1.0
C      1  0.5207090000000  0.5032900000000  0.5783140000000 1.0
C      1  0.5237460000000  0.5263540000000  0.5662490000000 1.0
C      1  0.5293810000000  0.5545960000000  0.5548480000000 1.0
C      1  0.4735060000000  0.5423570000000  0.5536410000000 1.0
C      1  0.4647700000000  0.5157210000000  0.5640290000000 1.0
C      1  0.4763500000000  0.4875920000000  0.5599370000000 1.0
C      1  0.4618750000000  0.4382410000000  0.5004650000000 1.0
C      1  0.5171650000000  0.4385510000000  0.5124460000000 1.0
C      1  0.5641180000000  0.4707230000000  0.5107480000000 1.0
C      1  0.5583040000000  0.5331360000000  0.5036560000000 1.0
C      1  0.5168450000000  0.5739320000000  0.5020210000000 1.0
C      1  0.4536430000000  0.5562490000000  0.5084040000000 1.0
C      1  0.4318400000000  0.4923810000000  0.5175010000000 1.0
C      1  0.4639970000000  0.5084960000000  0.4791670000000 1.0
C      1  0.4733020000000  0.4797150000000  0.4679740000000 1.0
C      1  0.4948410000000  0.4647990000000  0.4864980000000 1.0
C      1  0.5225970000000  0.4755310000000  0.4823990000000 1.0
C      1  0.5280500000000  0.5079890000000  0.4834720000000 1.0
C      1  0.5078670000000  0.5284840000000  0.4707220000000 1.0
C      1  0.4885320000000  0.5182030000000  0.4938050000000 1.0
C      1  0.5325510000000  0.4566680000000  0.4596420000000 1.0
C      1  0.5519110000000  0.4968500000000  0.4655570000000 1.0
C      1  0.5378960000000  0.5363400000000  0.4570540000000 1.0
C      1  0.4963080000000  0.5557190000000  0.4576790000000 1.0
C      1  0.4542170000000  0.5303320000000  0.4597400000000 1.0
C      1  0.4435330000000  0.4843140000000  0.4522800000000 1.0
C      1  0.4858930000000  0.4525640000000  0.4558720000000 1.0
C      1  0.5458330000000  0.5015770000000  0.4388900000000 1.0
C      1  0.5195360000000  0.5223190000000  0.4325690000000 1.0
C      1  0.4931840000000  0.5366600000000  0.4344760000000 1.0
C      1  0.4682860000000  0.5232160000000  0.4356780000000 1.0
C      1  0.4653040000000  0.4948470000000  0.4319970000000 1.0
C      1  0.4895060000000  0.4761330000000  0.4316010000000 1.0
C      1  0.5194530000000  0.4603530000000  0.4358030000000 1.0
C      1  0.5171330000000  0.5306960000000  0.5336250000000 1.0
C      1  0.4872910000000  0.5355450000000  0.5230330000000 1.0
C      1  0.4646650000000  0.5112210000000  0.5303190000000 1.0
C      1  0.4673410000000  0.4781580000000  0.5309520000000 1.0
C      1  0.4910700000000  0.4598210000000  0.5172440000000 1.0
C      1  0.5349800000000  0.4826810000000  0.5132580000000 1.0
C      1  0.5345720000000  0.5156820000000  0.5151500000000 1.0
C      1  0.4403520000000  0.5415190000000  0.4826180000000 1.0
C      1  0.4389830000000  0.4876340000000  0.4858620000000 1.0
C      1  0.4781230000000  0.4291550000000  0.4743450000000 1.0
C      1  0.5470600000000  0.4380390000000  0.4758730000000 1.0
C      1  0.5720700000000  0.4876890000000  0.4823740000000 1.0
C      1  0.5542110000000  0.5493310000000  0.4751100000000 1.0
C      1  0.4963570000000  0.5748660000000  0.4771450000000 1.0
C      1  0.4425010000000  0.5240810000000  0.5113070000000 1.0
C      1  0.4494350000000  0.4643220000000  0.5081770000000 1.0
C      1  0.4922760000000  0.4230110000000  0.5023390000000 1.0
C      1  0.5432840000000  0.4447650000000  0.5036810000000 1.0
C      1  0.5731450000000  0.5043030000000  0.5093450000000 1.0
C      1  0.5421290000000  0.5633260000000  0.5010210000000 1.0
C      1  0.4845320000000  0.5633210000000  0.5056770000000 1.0
C      1  0.4985300000000  0.4985140000000  0.5133650000000 1.0
C      1  0.5110050000000  0.4793940000000  0.5351250000000 1.0
C      1  0.5189340000000  0.4904500000000  0.4223810000000 1.0
C      1  0.5096620000000  0.4551450000000  0.5790240000000 1.0
END
