TITL C-1154810-7815-687 0.000809914813705839 125000 -316.035010614488 0 0 60 (C1) n - 1
REM
REM in /home/nfs/bkarasulu/CARBON/AIRSS/Generating-Clusters/AIREBO/Higher-Symm/Only-C60
REM
REM
REM
REM
REM
REM ./C.cell (28575a23ae977d3b5fae324c64b13b57)
REM
REM compiler GCC version 9.2.1 20190827 (Red Hat 9.2.1-1)
REM options -cpp -mtune=generic -march=x86-64 -g -O0 -fpre-include=/usr/include/finclude/math-vector-fortran.h
REM seed -968653580 -884814456 -848594201 -278124167 1395481234 300803326 1573259428 -2050484246 -247082708 -694430208 355919891 -864379019 492861933 -1479315867 -1548517417 2024939488 -1817954485 -1837768850 1589206322 1477737614 1250970436 976527197 -507992344 -1285755518 -992157530 -1875578070 1091845218 -449429300 -144643525 644075816 1213377487 2003542358 -757391402
REM
CELL 1.54180   50.00000   50.00000   50.00000   90.00000   90.00000   90.00000
LATT -1
SFAC C  
C      1  0.5543250000000  0.4952660000000  0.4341810000000 1.0
C      1  0.5271870000000  0.4271280000000  0.4914830000000 1.0
C      1  0.5305970000000  0.4709670000000  0.5634730000000 1.0
C      1  0.5425590000000  0.5510360000000  0.5347890000000 1.0
C      1  0.5344170000000  0.5634980000000  0.4733580000000 1.0
C      1  0.5119090000000  0.5178060000000  0.4447100000000 1.0
C      1  0.5140700000000  0.4522400000000  0.4512820000000 1.0
C      1  0.5080870000000  0.4550860000000  0.5244050000000 1.0
C      1  0.5151910000000  0.5172180000000  0.5617680000000 1.0
C      1  0.5024920000000  0.5612970000000  0.5053400000000 1.0
C      1  0.4732810000000  0.5120130000000  0.5375490000000 1.0
C      1  0.4606290000000  0.5445550000000  0.4983490000000 1.0
C      1  0.4743540000000  0.5187190000000  0.4617550000000 1.0
C      1  0.4617560000000  0.4660940000000  0.4767210000000 1.0
C      1  0.4661750000000  0.4588680000000  0.5294590000000 1.0
C      1  0.5452930000000  0.5121730000000  0.5315160000000 1.0
C      1  0.5379950000000  0.5260730000000  0.4864870000000 1.0
C      1  0.5326110000000  0.4920470000000  0.4671020000000 1.0
C      1  0.5543950000000  0.4721330000000  0.4839870000000 1.0
C      1  0.5525390000000  0.4809010000000  0.5315920000000 1.0
C      1  0.5608730000000  0.5509480000000  0.4824000000000 1.0
C      1  0.5639930000000  0.5050390000000  0.4646560000000 1.0
C      1  0.5527440000000  0.4446010000000  0.4816320000000 1.0
C      1  0.5623350000000  0.4682760000000  0.5616300000000 1.0
C      1  0.5645660000000  0.5334750000000  0.5147350000000 1.0
C      1  0.4619730000000  0.5435130000000  0.5315270000000 1.0
C      1  0.4530860000000  0.5451110000000  0.4658020000000 1.0
C      1  0.4648320000000  0.4880570000000  0.4505250000000 1.0
C      1  0.4528190000000  0.4483950000000  0.4996570000000 1.0
C      1  0.4471240000000  0.4634460000000  0.5568110000000 1.0
C      1  0.4317240000000  0.5217130000000  0.4750540000000 1.0
C      1  0.4452140000000  0.4955710000000  0.4759890000000 1.0
C      1  0.4352160000000  0.4684660000000  0.5191720000000 1.0
C      1  0.4484990000000  0.4926350000000  0.5402140000000 1.0
C      1  0.4430590000000  0.5221880000000  0.5133810000000 1.0
C      1  0.5103680000000  0.4897740000000  0.5583830000000 1.0
C      1  0.5122880000000  0.5509560000000  0.5293820000000 1.0
C      1  0.5153380000000  0.5386700000000  0.4676150000000 1.0
C      1  0.5286920000000  0.4739280000000  0.4408160000000 1.0
C      1  0.5054870000000  0.4432340000000  0.5001480000000 1.0
C      1  0.4900290000000  0.4830330000000  0.5314250000000 1.0
C      1  0.4978110000000  0.5324330000000  0.5450870000000 1.0
C      1  0.4884770000000  0.5404310000000  0.4837850000000 1.0
C      1  0.5016080000000  0.5016700000000  0.4728290000000 1.0
C      1  0.4938100000000  0.4604260000000  0.4753790000000 1.0
C      1  0.4380260000000  0.4520520000000  0.5776500000000 1.0
C      1  0.4587810000000  0.5626580000000  0.5538980000000 1.0
C      1  0.4499310000000  0.5680960000000  0.4473770000000 1.0
C      1  0.4650190000000  0.4792630000000  0.4222250000000 1.0
C      1  0.4466660000000  0.4195770000000  0.4942420000000 1.0
C      1  0.5317260000000  0.4313760000000  0.4603310000000 1.0
C      1  0.5324830000000  0.4551310000000  0.5372950000000 1.0
C      1  0.5433420000000  0.5279250000000  0.5597260000000 1.0
C      1  0.5196080000000  0.5790500000000  0.4909820000000 1.0
C      1  0.5293820000000  0.5108250000000  0.4256320000000 1.0
C      1  0.5496320000000  0.4983190000000  0.5023600000000 1.0
C      1  0.4569510000000  0.4917660000000  0.5072510000000 1.0
C      1  0.4893540000000  0.4858530000000  0.4975460000000 1.0
C      1  0.5767360000000  0.5220040000000  0.4850930000000 1.0
C      1  0.4137280000000  0.5267530000000  0.4983240000000 1.0
END
