TITL C-1154829-9094-401 -0.00030627881171128 125000 -314.366514230518 0 0 60 (C1) n - 1
REM
REM in /home/nfs/bkarasulu/CARBON/AIRSS/Generating-Clusters/AIREBO/Higher-Symm/Only-C60
REM
REM
REM
REM
REM
REM ./C.cell (28575a23ae977d3b5fae324c64b13b57)
REM
REM compiler GCC version 9.2.1 20190827 (Red Hat 9.2.1-1)
REM options -cpp -mtune=generic -march=x86-64 -g -O0 -fpre-include=/usr/include/finclude/math-vector-fortran.h
REM seed -512796086 -651085650 -864615770 -27570658 1912890123 -2130199707 1184204297 1807310644 -871807420 790575316 -1190282699 1735936783 1012907172 1000743072 -1377153231 165972550 -789232379 -754659681 179673880 -811779986 1674444859 -141066074 1845883111 1958375884 1982701562 -862401752 172336327 704269273 88093943 894901683 -1745505716 -424443437 -948195718
REM
CELL 1.54180   50.00000   50.00000   50.00000   90.00000   90.00000   90.00000
LATT -1
SFAC C  
C      1  0.4990440000000  0.5471200000000  0.4754280000000 1.0
C      1  0.5319040000000  0.4744430000000  0.4745330000000 1.0
C      1  0.4484500000000  0.4706490000000  0.4693570000000 1.0
C      1  0.5505280000000  0.5153220000000  0.5435730000000 1.0
C      1  0.4854650000000  0.4668050000000  0.5344330000000 1.0
C      1  0.4718890000000  0.5336580000000  0.5469450000000 1.0
C      1  0.5008000000000  0.4375880000000  0.5426800000000 1.0
C      1  0.4295750000000  0.5333760000000  0.5285570000000 1.0
C      1  0.5828840000000  0.5194490000000  0.5420910000000 1.0
C      1  0.4566020000000  0.4455620000000  0.4496390000000 1.0
C      1  0.4797530000000  0.5648450000000  0.4554240000000 1.0
C      1  0.5540560000000  0.4844930000000  0.4515600000000 1.0
C      1  0.4725390000000  0.5050920000000  0.5047610000000 1.0
C      1  0.5175830000000  0.5227440000000  0.5224030000000 1.0
C      1  0.5133630000000  0.4805360000000  0.5094560000000 1.0
C      1  0.5709820000000  0.5028350000000  0.4619770000000 1.0
C      1  0.4674870000000  0.4247760000000  0.4633240000000 1.0
C      1  0.4550840000000  0.5684860000000  0.4668530000000 1.0
C      1  0.4532860000000  0.5091170000000  0.5325260000000 1.0
C      1  0.5326180000000  0.5441810000000  0.5417980000000 1.0
C      1  0.5191670000000  0.4676240000000  0.5390130000000 1.0
C      1  0.4663150000000  0.4760040000000  0.4407230000000 1.0
C      1  0.4960450000000  0.5497560000000  0.4357660000000 1.0
C      1  0.5315920000000  0.4746760000000  0.4347030000000 1.0
C      1  0.4850290000000  0.4325820000000  0.4900710000000 1.0
C      1  0.4483130000000  0.5465700000000  0.4892590000000 1.0
C      1  0.5606820000000  0.5184910000000  0.4891600000000 1.0
C      1  0.5669730000000  0.5051820000000  0.5156810000000 1.0
C      1  0.4758130000000  0.4380220000000  0.5190890000000 1.0
C      1  0.4575990000000  0.5513650000000  0.5216730000000 1.0
C      1  0.5459590000000  0.5464500000000  0.4794470000000 1.0
C      1  0.5157330000000  0.4312270000000  0.4816770000000 1.0
C      1  0.4456900000000  0.5166600000000  0.4758900000000 1.0
C      1  0.4801110000000  0.4626470000000  0.4769950000000 1.0
C      1  0.4779080000000  0.5339500000000  0.4920120000000 1.0
C      1  0.5317610000000  0.5084510000000  0.4743660000000 1.0
C      1  0.5119080000000  0.5242090000000  0.4516460000000 1.0
C      1  0.5036120000000  0.4701220000000  0.4534920000000 1.0
C      1  0.4896590000000  0.5002010000000  0.4458970000000 1.0
C      1  0.4889620000000  0.5267640000000  0.5216240000000 1.0
C      1  0.5256180000000  0.5040670000000  0.5043050000000 1.0
C      1  0.4842810000000  0.4788730000000  0.5024170000000 1.0
C      1  0.4384670000000  0.4919260000000  0.4868810000000 1.0
C      1  0.5225290000000  0.5563950000000  0.4927310000000 1.0
C      1  0.5336370000000  0.4502750000000  0.4931990000000 1.0
C      1  0.5165270000000  0.5222930000000  0.5622920000000 1.0
C      1  0.5305830000000  0.4919420000000  0.5581260000000 1.0
C      1  0.4664280000000  0.4840260000000  0.5513360000000 1.0
C      1  0.5665810000000  0.4729730000000  0.5185760000000 1.0
C      1  0.4489240000000  0.4587970000000  0.5202920000000 1.0
C      1  0.4878980000000  0.5666300000000  0.5239890000000 1.0
C      1  0.5135360000000  0.4375920000000  0.4535330000000 1.0
C      1  0.4596250000000  0.5133650000000  0.4522050000000 1.0
C      1  0.5396720000000  0.5438520000000  0.4516160000000 1.0
C      1  0.4398530000000  0.4840210000000  0.5139300000000 1.0
C      1  0.5148150000000  0.5622070000000  0.5191230000000 1.0
C      1  0.5441770000000  0.4568940000000  0.5186230000000 1.0
C      1  0.4910830000000  0.5297140000000  0.5701480000000 1.0
C      1  0.5416670000000  0.4809110000000  0.5844320000000 1.0
C      1  0.4613780000000  0.4812210000000  0.5767440000000 1.0
END
