TITL C-1154808-8168-524 -0.000561225404472491 125000 -322.39981910849 0 0 60 (C1) n - 1
REM
REM in /home/nfs/bkarasulu/CARBON/AIRSS/Generating-Clusters/AIREBO/Higher-Symm/Only-C60
REM
REM
REM
REM
REM
REM ./C.cell (28575a23ae977d3b5fae324c64b13b57)
REM
REM compiler GCC version 9.2.1 20190827 (Red Hat 9.2.1-1)
REM options -cpp -mtune=generic -march=x86-64 -g -O0 -fpre-include=/usr/include/finclude/math-vector-fortran.h
REM seed 402498579 1928571613 1152601739 193092588 2122584125 -865490293 181717045 678249468 708093656 -2086294147 1057725265 1586245062 -1252217221 -2052517245 675286669 1493860463 1904640550 -975359380 -2041450056 305254268 -256957353 -1759155861 -158508218 1457982585 -1609607037 -480106671 1336242814 -2051345788 1325902458 982742520 953930184 1015982409 17040050
REM
CELL 1.54180   50.00000   50.00000   50.00000   90.00000   90.00000   90.00000
LATT -1
SFAC C  
C      1  0.4773660000000  0.5114710000000  0.4834330000000 1.0
C      1  0.5208930000000  0.5172240000000  0.5043190000000 1.0
C      1  0.4749310000000  0.4843840000000  0.4693880000000 1.0
C      1  0.5205560000000  0.4917320000000  0.5239280000000 1.0
C      1  0.4545080000000  0.5569430000000  0.4973720000000 1.0
C      1  0.5372440000000  0.5539780000000  0.5192780000000 1.0
C      1  0.4710780000000  0.4421370000000  0.4882880000000 1.0
C      1  0.5274050000000  0.4414040000000  0.5141130000000 1.0
C      1  0.5642660000000  0.5157060000000  0.5341130000000 1.0
C      1  0.4340400000000  0.5167990000000  0.4678270000000 1.0
C      1  0.5591330000000  0.4873740000000  0.5333000000000 1.0
C      1  0.4333240000000  0.4875440000000  0.4664530000000 1.0
C      1  0.4715960000000  0.4623790000000  0.5579960000000 1.0
C      1  0.5341420000000  0.4878470000000  0.4227280000000 1.0
C      1  0.4632010000000  0.5289100000000  0.5622130000000 1.0
C      1  0.5373340000000  0.5134430000000  0.4411300000000 1.0
C      1  0.4389540000000  0.4788090000000  0.4403200000000 1.0
C      1  0.5538490000000  0.4764040000000  0.5604240000000 1.0
C      1  0.4396470000000  0.5270020000000  0.4416390000000 1.0
C      1  0.5577500000000  0.5276890000000  0.5592600000000 1.0
C      1  0.5255030000000  0.4929260000000  0.5542280000000 1.0
C      1  0.4706920000000  0.4833750000000  0.4364860000000 1.0
C      1  0.5266480000000  0.5261360000000  0.5617790000000 1.0
C      1  0.4609810000000  0.5150710000000  0.4282370000000 1.0
C      1  0.4797060000000  0.5629830000000  0.5051140000000 1.0
C      1  0.5287600000000  0.5714380000000  0.4977410000000 1.0
C      1  0.4747130000000  0.4329140000000  0.5144960000000 1.0
C      1  0.5230640000000  0.4269120000000  0.4906150000000 1.0
C      1  0.5561610000000  0.5333910000000  0.5134240000000 1.0
C      1  0.4434500000000  0.5313760000000  0.4902370000000 1.0
C      1  0.5413810000000  0.4689550000000  0.5121500000000 1.0
C      1  0.4514430000000  0.4680790000000  0.4856120000000 1.0
C      1  0.5499620000000  0.5193860000000  0.4882170000000 1.0
C      1  0.4576310000000  0.5118690000000  0.5090040000000 1.0
C      1  0.5455060000000  0.4728320000000  0.4826340000000 1.0
C      1  0.4479270000000  0.4811560000000  0.5124230000000 1.0
C      1  0.5016540000000  0.5781910000000  0.5493070000000 1.0
C      1  0.5054100000000  0.5581760000000  0.4537170000000 1.0
C      1  0.5017840000000  0.4361610000000  0.5580340000000 1.0
C      1  0.5096950000000  0.4367380000000  0.4408390000000 1.0
C      1  0.5024500000000  0.4871550000000  0.4294860000000 1.0
C      1  0.5107680000000  0.4971590000000  0.5839590000000 1.0
C      1  0.4905020000000  0.5167030000000  0.4281120000000 1.0
C      1  0.5105270000000  0.5240410000000  0.5912930000000 1.0
C      1  0.5540590000000  0.5075260000000  0.4646930000000 1.0
C      1  0.4505230000000  0.5080660000000  0.5411090000000 1.0
C      1  0.5486420000000  0.4766960000000  0.4513890000000 1.0
C      1  0.4462600000000  0.4758320000000  0.5435180000000 1.0
C      1  0.4990420000000  0.4368590000000  0.4717330000000 1.0
C      1  0.5008680000000  0.4421150000000  0.5311930000000 1.0
C      1  0.5029950000000  0.5612090000000  0.4848990000000 1.0
C      1  0.5048870000000  0.5604440000000  0.5278260000000 1.0
C      1  0.4814880000000  0.4834420000000  0.5355360000000 1.0
C      1  0.5163270000000  0.4660860000000  0.4508460000000 1.0
C      1  0.4837220000000  0.5153380000000  0.5396430000000 1.0
C      1  0.5117570000000  0.5279430000000  0.4467950000000 1.0
C      1  0.5028750000000  0.5279340000000  0.4797050000000 1.0
C      1  0.5095000000000  0.5292160000000  0.5339930000000 1.0
C      1  0.4997250000000  0.4688770000000  0.4805430000000 1.0
C      1  0.4997930000000  0.4701120000000  0.5119090000000 1.0
END
