TITL C-1154823-9327-336 0.000658145028194613 125000 -271.935609654136 0 0 60 (C1) n - 1
REM
REM in /home/nfs/bkarasulu/CARBON/AIRSS/Generating-Clusters/AIREBO/Higher-Symm/Only-C60
REM
REM
REM
REM
REM
REM ./C.cell (28575a23ae977d3b5fae324c64b13b57)
REM
REM compiler GCC version 9.2.1 20190827 (Red Hat 9.2.1-1)
REM options -cpp -mtune=generic -march=x86-64 -g -O0 -fpre-include=/usr/include/finclude/math-vector-fortran.h
REM seed -700426776 166726295 -1646087002 2100313551 440588029 -911406091 -910015497 -778168556 981185119 -737860213 131353867 979156249 -1708478037 1522017539 1848706919 863476109 -953934715 173478516 -1577050638 1534870807 -1084241893 1961347563 1204279480 671062367 1513651891 1954144929 846790613 2037606420 233358072 -623391884 1156118930 158600596 -848790923
REM
CELL 1.54180   50.00000   50.00000   50.00000   90.00000   90.00000   90.00000
LATT -1
SFAC C  
C      1  0.5269490000000  0.5213050000000  0.4087360000000 1.0
C      1  0.5557070000000  0.5438190000000  0.4357240000000 1.0
C      1  0.5595490000000  0.4832180000000  0.4226810000000 1.0
C      1  0.4975470000000  0.4712170000000  0.4087030000000 1.0
C      1  0.4729580000000  0.4412200000000  0.4306890000000 1.0
C      1  0.4517690000000  0.4899420000000  0.4157340000000 1.0
C      1  0.4690800000000  0.5377960000000  0.4080290000000 1.0
C      1  0.4911530000000  0.4643650000000  0.5037800000000 1.0
C      1  0.4643550000000  0.4819110000000  0.4922770000000 1.0
C      1  0.4632620000000  0.5111160000000  0.5098520000000 1.0
C      1  0.4826900000000  0.5326690000000  0.4920810000000 1.0
C      1  0.5158050000000  0.5306990000000  0.4996700000000 1.0
C      1  0.5377850000000  0.5047180000000  0.4993240000000 1.0
C      1  0.5238100000000  0.4737130000000  0.5004010000000 1.0
C      1  0.4472060000000  0.4908250000000  0.4648040000000 1.0
C      1  0.4641970000000  0.5283140000000  0.4638720000000 1.0
C      1  0.4979280000000  0.5525450000000  0.4690750000000 1.0
C      1  0.5365490000000  0.5255830000000  0.4724720000000 1.0
C      1  0.5557140000000  0.4910090000000  0.4738670000000 1.0
C      1  0.5244030000000  0.4579130000000  0.4724710000000 1.0
C      1  0.4794790000000  0.4604880000000  0.4705990000000 1.0
C      1  0.5303810000000  0.4515890000000  0.5519850000000 1.0
C      1  0.4809350000000  0.4418880000000  0.5520550000000 1.0
C      1  0.4500380000000  0.4844240000000  0.5834700000000 1.0
C      1  0.4548620000000  0.5372290000000  0.5571490000000 1.0
C      1  0.4964910000000  0.5562990000000  0.5560670000000 1.0
C      1  0.5454150000000  0.5409490000000  0.5562210000000 1.0
C      1  0.5682130000000  0.4944160000000  0.5229520000000 1.0
C      1  0.5378950000000  0.5000420000000  0.5330180000000 1.0
C      1  0.5256910000000  0.4792710000000  0.5525090000000 1.0
C      1  0.4765650000000  0.4703230000000  0.5339230000000 1.0
C      1  0.4554410000000  0.4873150000000  0.5544430000000 1.0
C      1  0.4734120000000  0.5129080000000  0.5422740000000 1.0
C      1  0.4994510000000  0.5280140000000  0.5580940000000 1.0
C      1  0.5259060000000  0.5193030000000  0.5563900000000 1.0
C      1  0.5321460000000  0.5238580000000  0.4392480000000 1.0
C      1  0.5421640000000  0.4916030000000  0.4432120000000 1.0
C      1  0.5191710000000  0.4717820000000  0.4493280000000 1.0
C      1  0.4882030000000  0.4674930000000  0.4384690000000 1.0
C      1  0.4691430000000  0.4956270000000  0.4398290000000 1.0
C      1  0.4769600000000  0.5276150000000  0.4323660000000 1.0
C      1  0.5029550000000  0.5387080000000  0.4454780000000 1.0
C      1  0.4363070000000  0.4885970000000  0.5289060000000 1.0
C      1  0.4500660000000  0.5440480000000  0.5281120000000 1.0
C      1  0.4976610000000  0.5638950000000  0.5285650000000 1.0
C      1  0.5486870000000  0.5477630000000  0.5284050000000 1.0
C      1  0.5693990000000  0.4665360000000  0.5167600000000 1.0
C      1  0.5239200000000  0.4345460000000  0.5279260000000 1.0
C      1  0.4641530000000  0.4410480000000  0.5218540000000 1.0
C      1  0.5227360000000  0.5542980000000  0.5167770000000 1.0
C      1  0.5616680000000  0.5258860000000  0.5140530000000 1.0
C      1  0.5437390000000  0.4539740000000  0.5144200000000 1.0
C      1  0.4976320000000  0.4341470000000  0.5165890000000 1.0
C      1  0.4438690000000  0.4659190000000  0.5114360000000 1.0
C      1  0.4323380000000  0.5184840000000  0.5185720000000 1.0
C      1  0.4737130000000  0.5542190000000  0.5146660000000 1.0
C      1  0.4986210000000  0.4954430000000  0.5275910000000 1.0
C      1  0.4984380000000  0.5024530000000  0.4943150000000 1.0
C      1  0.4906770000000  0.4985320000000  0.4659820000000 1.0
C      1  0.4996600000000  0.4883670000000  0.5608400000000 1.0
END
