TITL C-1154829-9094-208 0.00181287136349244 125000 -318.168899931588 0 0 60 (C1) n - 1
REM
REM in /home/nfs/bkarasulu/CARBON/AIRSS/Generating-Clusters/AIREBO/Higher-Symm/Only-C60
REM
REM
REM
REM
REM
REM ./C.cell (28575a23ae977d3b5fae324c64b13b57)
REM
REM compiler GCC version 9.2.1 20190827 (Red Hat 9.2.1-1)
REM options -cpp -mtune=generic -march=x86-64 -g -O0 -fpre-include=/usr/include/finclude/math-vector-fortran.h
REM seed 919042506 38649411 178533106 -2066263781 280680217 -738782348 -1817585522 -2042289811 -28841678 -1679007569 165593644 1225136029 659064648 -164743523 -2020107993 545548222 -605166601 586181786 1497277605 -1794046303 1434532366 1991122350 -636418325 -9754228 2033184399 1638811171 1999106500 -1164126734 631480503 -1888210492 1764355500 919693247 -2109959297
REM
CELL 1.54180   50.00000   50.00000   50.00000   90.00000   90.00000   90.00000
LATT -1
SFAC C  
C      1  0.4227890000000  0.5041720000000  0.5044680000000 1.0
C      1  0.4750070000000  0.4346640000000  0.4893410000000 1.0
C      1  0.5608760000000  0.4607110000000  0.4963560000000 1.0
C      1  0.5628340000000  0.5419140000000  0.4925620000000 1.0
C      1  0.4820290000000  0.5840650000000  0.4823280000000 1.0
C      1  0.5301270000000  0.5548320000000  0.4927910000000 1.0
C      1  0.4560930000000  0.5393600000000  0.4963160000000 1.0
C      1  0.4507310000000  0.4762790000000  0.4983400000000 1.0
C      1  0.5043400000000  0.4495600000000  0.4883120000000 1.0
C      1  0.5574940000000  0.4940260000000  0.5022910000000 1.0
C      1  0.5207880000000  0.5130610000000  0.4556510000000 1.0
C      1  0.4890420000000  0.5252440000000  0.4552040000000 1.0
C      1  0.4639300000000  0.5040230000000  0.4520640000000 1.0
C      1  0.4920110000000  0.4854110000000  0.4566570000000 1.0
C      1  0.5192460000000  0.4831730000000  0.4415840000000 1.0
C      1  0.5508960000000  0.4817020000000  0.5597390000000 1.0
C      1  0.5295480000000  0.5389010000000  0.5477260000000 1.0
C      1  0.4739890000000  0.5593750000000  0.5476140000000 1.0
C      1  0.4468770000000  0.4523610000000  0.5383050000000 1.0
C      1  0.5050400000000  0.4369930000000  0.5476300000000 1.0
C      1  0.5435300000000  0.5370600000000  0.5185060000000 1.0
C      1  0.4611960000000  0.5722970000000  0.4959460000000 1.0
C      1  0.4303640000000  0.4799030000000  0.5253230000000 1.0
C      1  0.4974720000000  0.4314510000000  0.5147140000000 1.0
C      1  0.5499550000000  0.4718490000000  0.5269610000000 1.0
C      1  0.5186950000000  0.4733330000000  0.5385860000000 1.0
C      1  0.5169100000000  0.5012810000000  0.5519830000000 1.0
C      1  0.4946470000000  0.5155370000000  0.5436620000000 1.0
C      1  0.4790760000000  0.4968180000000  0.5298570000000 1.0
C      1  0.4886930000000  0.4722930000000  0.5387760000000 1.0
C      1  0.4170600000000  0.5171630000000  0.4406080000000 1.0
C      1  0.4355260000000  0.4563490000000  0.4491710000000 1.0
C      1  0.5241510000000  0.4398470000000  0.4686270000000 1.0
C      1  0.5820860000000  0.5094260000000  0.4493070000000 1.0
C      1  0.5365990000000  0.5523020000000  0.4594970000000 1.0
C      1  0.5049740000000  0.5705850000000  0.4753660000000 1.0
C      1  0.4338160000000  0.5215510000000  0.4867580000000 1.0
C      1  0.4548760000000  0.4532500000000  0.4772150000000 1.0
C      1  0.5534630000000  0.4506780000000  0.4723690000000 1.0
C      1  0.5677330000000  0.5151270000000  0.4796400000000 1.0
C      1  0.5072410000000  0.5505590000000  0.4516030000000 1.0
C      1  0.4367860000000  0.5147480000000  0.4594050000000 1.0
C      1  0.4644960000000  0.4699530000000  0.4504280000000 1.0
C      1  0.5350160000000  0.4612640000000  0.4472550000000 1.0
C      1  0.5507010000000  0.5138240000000  0.4511590000000 1.0
C      1  0.5278600000000  0.5659630000000  0.5262180000000 1.0
C      1  0.4606500000000  0.5584980000000  0.5237820000000 1.0
C      1  0.4317870000000  0.4498110000000  0.5095550000000 1.0
C      1  0.5111240000000  0.4066510000000  0.5335450000000 1.0
C      1  0.5841280000000  0.4982830000000  0.5196460000000 1.0
C      1  0.5251580000000  0.4973080000000  0.4949080000000 1.0
C      1  0.5135720000000  0.5258180000000  0.4864110000000 1.0
C      1  0.4800070000000  0.5225800000000  0.4878750000000 1.0
C      1  0.4752340000000  0.4940860000000  0.5002870000000 1.0
C      1  0.5004730000000  0.4799210000000  0.4862200000000 1.0
C      1  0.5319210000000  0.4532500000000  0.5608590000000 1.0
C      1  0.5422830000000  0.5119830000000  0.5643130000000 1.0
C      1  0.4966940000000  0.5435620000000  0.5485900000000 1.0
C      1  0.4668060000000  0.5755130000000  0.5679320000000 1.0
C      1  0.4735550000000  0.4484950000000  0.5418540000000 1.0
END
