TITL C-1154823-9327-406 -0.00126916355664976 125000 -332.948575632054 0 0 60 (C1) n - 1
REM
REM in /home/nfs/bkarasulu/CARBON/AIRSS/Generating-Clusters/AIREBO/Higher-Symm/Only-C60
REM
REM
REM
REM
REM
REM ./C.cell (28575a23ae977d3b5fae324c64b13b57)
REM
REM compiler GCC version 9.2.1 20190827 (Red Hat 9.2.1-1)
REM options -cpp -mtune=generic -march=x86-64 -g -O0 -fpre-include=/usr/include/finclude/math-vector-fortran.h
REM seed -1014282473 462131696 -866637228 -588437998 1632723713 1616582059 2116012431 1388027154 1305041264 1629508454 351696520 -616521539 -1111917203 285443443 394859467 -1128251182 204255442 -1828147000 -1328064525 -1317520034 -1230424057 1662007365 -1245306086 -1364159134 -709613221 1486160364 -1290110510 -1097409103 -1860204017 -1419449460 -735899063 1292109751 -1268077686
REM
CELL 1.54180   50.00000   50.00000   50.00000   90.00000   90.00000   90.00000
LATT -1
SFAC C  
C      1  0.4695120000000  0.5110990000000  0.5095360000000 1.0
C      1  0.4955970000000  0.4928020000000  0.5184390000000 1.0
C      1  0.5255720000000  0.5088660000000  0.5185400000000 1.0
C      1  0.5261820000000  0.4857930000000  0.4940620000000 1.0
C      1  0.5015430000000  0.5049160000000  0.4867940000000 1.0
C      1  0.4721980000000  0.4896600000000  0.4832060000000 1.0
C      1  0.5044230000000  0.4853130000000  0.5829570000000 1.0
C      1  0.5538450000000  0.5078390000000  0.5374720000000 1.0
C      1  0.5488370000000  0.4865490000000  0.4724000000000 1.0
C      1  0.4951970000000  0.5205200000000  0.4187230000000 1.0
C      1  0.4450460000000  0.4905510000000  0.4626280000000 1.0
C      1  0.4414540000000  0.5101870000000  0.5287710000000 1.0
C      1  0.4184680000000  0.5177140000000  0.5116710000000 1.0
C      1  0.4726080000000  0.4928540000000  0.5787830000000 1.0
C      1  0.5497230000000  0.5173040000000  0.5649060000000 1.0
C      1  0.5734990000000  0.4766060000000  0.4855940000000 1.0
C      1  0.5274160000000  0.5130610000000  0.4180370000000 1.0
C      1  0.4521280000000  0.4845540000000  0.4352250000000 1.0
C      1  0.5724990000000  0.4475380000000  0.4884200000000 1.0
C      1  0.5153700000000  0.5353360000000  0.4380170000000 1.0
C      1  0.4614300000000  0.4572260000000  0.4327620000000 1.0
C      1  0.4210840000000  0.5456440000000  0.5044060000000 1.0
C      1  0.4844740000000  0.4657280000000  0.5682270000000 1.0
C      1  0.5411620000000  0.5448770000000  0.5647600000000 1.0
C      1  0.5174210000000  0.4739640000000  0.4487650000000 1.0
C      1  0.4636180000000  0.5322150000000  0.4582290000000 1.0
C      1  0.4477910000000  0.4685460000000  0.5088400000000 1.0
C      1  0.4830900000000  0.5302730000000  0.5486820000000 1.0
C      1  0.5371930000000  0.4684950000000  0.5452980000000 1.0
C      1  0.5542740000000  0.5292710000000  0.4910320000000 1.0
C      1  0.5414890000000  0.5247310000000  0.4660520000000 1.0
C      1  0.4898430000000  0.4807990000000  0.4479070000000 1.0
C      1  0.4457860000000  0.5249310000000  0.4809050000000 1.0
C      1  0.4599770000000  0.4770670000000  0.5348180000000 1.0
C      1  0.5104910000000  0.5223590000000  0.5526370000000 1.0
C      1  0.5526410000000  0.4723410000000  0.5208140000000 1.0
C      1  0.5155470000000  0.4511550000000  0.5385890000000 1.0
C      1  0.5405590000000  0.5489160000000  0.5062570000000 1.0
C      1  0.5249400000000  0.4524840000000  0.4642500000000 1.0
C      1  0.4862460000000  0.5474060000000  0.4669440000000 1.0
C      1  0.4653000000000  0.4514360000000  0.4937770000000 1.0
C      1  0.4776190000000  0.5486610000000  0.5279300000000 1.0
C      1  0.4901960000000  0.4671360000000  0.5370120000000 1.0
C      1  0.5300840000000  0.5392930000000  0.5331020000000 1.0
C      1  0.5398510000000  0.4546570000000  0.4947360000000 1.0
C      1  0.5095630000000  0.5275400000000  0.4689450000000 1.0
C      1  0.4712370000000  0.4608650000000  0.4651170000000 1.0
C      1  0.4546340000000  0.5416630000000  0.5082460000000 1.0
C      1  0.5265940000000  0.4942820000000  0.5634140000000 1.0
C      1  0.5633410000000  0.5013680000000  0.5065790000000 1.0
C      1  0.5371630000000  0.4987630000000  0.4445090000000 1.0
C      1  0.4736690000000  0.5087340000000  0.4372170000000 1.0
C      1  0.4339950000000  0.4951460000000  0.4926050000000 1.0
C      1  0.4633110000000  0.5061310000000  0.5522500000000 1.0
C      1  0.4944060000000  0.5676860000000  0.5157500000000 1.0
C      1  0.5178390000000  0.4357230000000  0.5129470000000 1.0
C      1  0.5218350000000  0.5683520000000  0.4975320000000 1.0
C      1  0.5107820000000  0.4315970000000  0.4799570000000 1.0
C      1  0.4922690000000  0.5693120000000  0.4833650000000 1.0
C      1  0.4861390000000  0.4341680000000  0.5006540000000 1.0
END
