TITL C-1154803-8277-528 9.05796963782106e-05 125000 -338.036250962521 0 0 60 (C1) n - 1
REM
REM in /home/nfs/bkarasulu/CARBON/AIRSS/Generating-Clusters/AIREBO/Higher-Symm/Only-C60
REM
REM
REM
REM
REM
REM ./C.cell (28575a23ae977d3b5fae324c64b13b57)
REM
REM compiler GCC version 9.2.1 20190827 (Red Hat 9.2.1-1)
REM options -cpp -mtune=generic -march=x86-64 -g -O0 -fpre-include=/usr/include/finclude/math-vector-fortran.h
REM seed 1292093880 -1575798091 1753251004 1234948470 -1282457552 -1699330476 739235024 481272780 -936097273 -606682724 -209658001 -1277906582 1552557002 642033709 -1522833337 -87704935 -1256053240 1508062141 44979504 75228068 -1933323728 2012734931 1116446135 -1948106851 800246945 -536565760 -748963560 -963714276 -2023362056 -1123930272 -2035069278 -577481880 831956404
REM
CELL 1.54180   50.00000   50.00000   50.00000   90.00000   90.00000   90.00000
LATT -1
SFAC C  
C      1  0.4966750000000  0.5731900000000  0.5124110000000 1.0
C      1  0.5118470000000  0.4168950000000  0.4858250000000 1.0
C      1  0.5148020000000  0.5766980000000  0.4903300000000 1.0
C      1  0.4923310000000  0.4295460000000  0.5051160000000 1.0
C      1  0.5418640000000  0.5458190000000  0.4898350000000 1.0
C      1  0.5367100000000  0.4576390000000  0.5141010000000 1.0
C      1  0.5383390000000  0.5434890000000  0.5170750000000 1.0
C      1  0.5374200000000  0.4580480000000  0.4841060000000 1.0
C      1  0.4844990000000  0.4828070000000  0.5694780000000 1.0
C      1  0.4812870000000  0.5129340000000  0.4301980000000 1.0
C      1  0.4813130000000  0.4837350000000  0.4326190000000 1.0
C      1  0.4838330000000  0.5121400000000  0.5700970000000 1.0
C      1  0.4642790000000  0.5646880000000  0.5065580000000 1.0
C      1  0.4588050000000  0.4402460000000  0.4813730000000 1.0
C      1  0.4635530000000  0.5605970000000  0.4754020000000 1.0
C      1  0.4600800000000  0.4346720000000  0.5149160000000 1.0
C      1  0.5060720000000  0.4537250000000  0.5238770000000 1.0
C      1  0.5140560000000  0.5495480000000  0.4710590000000 1.0
C      1  0.5078430000000  0.4483480000000  0.4735360000000 1.0
C      1  0.5093430000000  0.5456520000000  0.5256050000000 1.0
C      1  0.4389320000000  0.4825480000000  0.5215050000000 1.0
C      1  0.4545840000000  0.5159660000000  0.4835810000000 1.0
C      1  0.4433970000000  0.4860210000000  0.4885150000000 1.0
C      1  0.4480490000000  0.5138610000000  0.5168090000000 1.0
C      1  0.4723470000000  0.4818950000000  0.5152220000000 1.0
C      1  0.4878110000000  0.5142730000000  0.4848670000000 1.0
C      1  0.4770930000000  0.4831230000000  0.4842730000000 1.0
C      1  0.4802440000000  0.5210470000000  0.5136550000000 1.0
C      1  0.5519860000000  0.5352620000000  0.4634540000000 1.0
C      1  0.5611430000000  0.4706970000000  0.5321480000000 1.0
C      1  0.5536300000000  0.5355270000000  0.5391940000000 1.0
C      1  0.5610450000000  0.4711840000000  0.4652580000000 1.0
C      1  0.5749600000000  0.5190750000000  0.4630570000000 1.0
C      1  0.5783780000000  0.4915100000000  0.5348940000000 1.0
C      1  0.5757500000000  0.5185460000000  0.5366340000000 1.0
C      1  0.5783560000000  0.4920420000000  0.4630410000000 1.0
C      1  0.4801440000000  0.5587080000000  0.5375560000000 1.0
C      1  0.4806410000000  0.4321100000000  0.4670030000000 1.0
C      1  0.4874200000000  0.5666970000000  0.4631310000000 1.0
C      1  0.4829360000000  0.4348080000000  0.5400970000000 1.0
C      1  0.5120540000000  0.4722230000000  0.5585450000000 1.0
C      1  0.5069430000000  0.5242940000000  0.4366050000000 1.0
C      1  0.5076630000000  0.4737120000000  0.4408930000000 1.0
C      1  0.5123230000000  0.5240070000000  0.5644660000000 1.0
C      1  0.4624390000000  0.4656760000000  0.5614580000000 1.0
C      1  0.4585010000000  0.5290030000000  0.4380760000000 1.0
C      1  0.4580320000000  0.4702580000000  0.4436000000000 1.0
C      1  0.4634250000000  0.5291690000000  0.5587130000000 1.0
C      1  0.4467800000000  0.4621780000000  0.4690640000000 1.0
C      1  0.4516560000000  0.5431770000000  0.5300310000000 1.0
C      1  0.4505810000000  0.4579610000000  0.5377970000000 1.0
C      1  0.4513930000000  0.5378960000000  0.4645360000000 1.0
C      1  0.5132760000000  0.5157530000000  0.4675950000000 1.0
C      1  0.4970130000000  0.4854580000000  0.5317230000000 1.0
C      1  0.5020690000000  0.5153180000000  0.5348120000000 1.0
C      1  0.5079470000000  0.4823650000000  0.4724400000000 1.0
C      1  0.5358850000000  0.4624810000000  0.5488680000000 1.0
C      1  0.5350110000000  0.5351360000000  0.4403070000000 1.0
C      1  0.5348330000000  0.4642800000000  0.4494150000000 1.0
C      1  0.5383780000000  0.5343380000000  0.5636430000000 1.0
END
