TITL C-1154816-9297-366 -0.00338679804617812 125000 -349.869222837162 0 0 60 (C1) n - 1
REM
REM in /home/nfs/bkarasulu/CARBON/AIRSS/Generating-Clusters/AIREBO/Higher-Symm/Only-C60
REM
REM
REM
REM
REM
REM ./C.cell (28575a23ae977d3b5fae324c64b13b57)
REM
REM compiler GCC version 9.2.1 20190827 (Red Hat 9.2.1-1)
REM options -cpp -mtune=generic -march=x86-64 -g -O0 -fpre-include=/usr/include/finclude/math-vector-fortran.h
REM seed 421197742 -751242986 -584994318 351857091 565288986 1705371276 237676324 -872050934 450259652 -1106886110 1345160805 -983809010 651365803 -2119241714 470537274 435929092 -1188334296 -717383460 -202469831 1372832479 1133043346 532642089 -76709002 1482932701 1335572946 1501273650 1863960307 -1830944525 1488304561 827804572 -279223703 -1221915735 2132077728
REM
CELL 1.54180   50.00000   50.00000   50.00000   90.00000   90.00000   90.00000
LATT -1
SFAC C  
C      1  0.4571540000000  0.5714490000000  0.5061800000000 1.0
C      1  0.4635600000000  0.4719270000000  0.4368800000000 1.0
C      1  0.4629590000000  0.4639670000000  0.5609470000000 1.0
C      1  0.5381590000000  0.5684560000000  0.5057120000000 1.0
C      1  0.5442650000000  0.4678490000000  0.4346800000000 1.0
C      1  0.5404300000000  0.4594830000000  0.5565470000000 1.0
C      1  0.4619860000000  0.4320200000000  0.5039370000000 1.0
C      1  0.4568190000000  0.5325830000000  0.4283710000000 1.0
C      1  0.4608290000000  0.5463780000000  0.5630770000000 1.0
C      1  0.5367560000000  0.4286990000000  0.5070970000000 1.0
C      1  0.5374650000000  0.5275490000000  0.4338040000000 1.0
C      1  0.5331550000000  0.5436020000000  0.5596260000000 1.0
C      1  0.4603400000000  0.5294720000000  0.4624040000000 1.0
C      1  0.4402600000000  0.4495420000000  0.4876220000000 1.0
C      1  0.4572590000000  0.5153680000000  0.5507470000000 1.0
C      1  0.5413530000000  0.5317370000000  0.4667690000000 1.0
C      1  0.5505920000000  0.4515050000000  0.4860150000000 1.0
C      1  0.5406110000000  0.5129560000000  0.5478890000000 1.0
C      1  0.4492260000000  0.4678040000000  0.4672290000000 1.0
C      1  0.4547920000000  0.5431890000000  0.4869600000000 1.0
C      1  0.4447380000000  0.4896530000000  0.5575330000000 1.0
C      1  0.5610360000000  0.4590420000000  0.4603250000000 1.0
C      1  0.5534460000000  0.5495320000000  0.4860710000000 1.0
C      1  0.5532700000000  0.4861500000000  0.5445430000000 1.0
C      1  0.5619600000000  0.5131430000000  0.4475840000000 1.0
C      1  0.5643460000000  0.4426450000000  0.5154750000000 1.0
C      1  0.5589310000000  0.5399740000000  0.5411510000000 1.0
C      1  0.4359450000000  0.5143040000000  0.4442120000000 1.0
C      1  0.4376650000000  0.4475470000000  0.5195190000000 1.0
C      1  0.4379930000000  0.5405030000000  0.5412440000000 1.0
C      1  0.5681790000000  0.4866280000000  0.4454730000000 1.0
C      1  0.5633090000000  0.5518770000000  0.5168050000000 1.0
C      1  0.5670090000000  0.4575300000000  0.5388250000000 1.0
C      1  0.4360530000000  0.4869440000000  0.4432590000000 1.0
C      1  0.4370070000000  0.5485850000000  0.5154370000000 1.0
C      1  0.4358790000000  0.4617570000000  0.5430800000000 1.0
C      1  0.4867330000000  0.4853200000000  0.4302550000000 1.0
C      1  0.4861980000000  0.4656350000000  0.5460560000000 1.0
C      1  0.4829650000000  0.5689300000000  0.5241470000000 1.0
C      1  0.5178310000000  0.4812310000000  0.4395350000000 1.0
C      1  0.5134580000000  0.4519030000000  0.5435730000000 1.0
C      1  0.5128830000000  0.5574310000000  0.5162800000000 1.0
C      1  0.4849200000000  0.5187840000000  0.4327150000000 1.0
C      1  0.4821640000000  0.5624010000000  0.5560820000000 1.0
C      1  0.4889540000000  0.4395670000000  0.5034290000000 1.0
C      1  0.5158510000000  0.5113410000000  0.4261700000000 1.0
C      1  0.5113950000000  0.5569850000000  0.5492160000000 1.0
C      1  0.5120260000000  0.4325670000000  0.5188490000000 1.0
C      1  0.4815850000000  0.5127990000000  0.5310290000000 1.0
C      1  0.4855040000000  0.5096080000000  0.4650030000000 1.0
C      1  0.4912610000000  0.4703560000000  0.4971870000000 1.0
C      1  0.5148630000000  0.5054240000000  0.5302570000000 1.0
C      1  0.5153750000000  0.5179250000000  0.4777270000000 1.0
C      1  0.5246970000000  0.4675590000000  0.4928430000000 1.0
C      1  0.4824950000000  0.4829820000000  0.5233850000000 1.0
C      1  0.4767280000000  0.4819490000000  0.4741870000000 1.0
C      1  0.4784740000000  0.5382050000000  0.5103120000000 1.0
C      1  0.5216060000000  0.4761150000000  0.5225370000000 1.0
C      1  0.5178950000000  0.4871230000000  0.4701220000000 1.0
C      1  0.5094030000000  0.5265110000000  0.5060690000000 1.0
END
