TITL C-1154816-9297-89 -0.00114341814445035 125000 -338.506975074951 0 0 60 (C1) n - 1
REM
REM in /home/nfs/bkarasulu/CARBON/AIRSS/Generating-Clusters/AIREBO/Higher-Symm/Only-C60
REM
REM
REM
REM
REM
REM ./C.cell (28575a23ae977d3b5fae324c64b13b57)
REM
REM compiler GCC version 9.2.1 20190827 (Red Hat 9.2.1-1)
REM options -cpp -mtune=generic -march=x86-64 -g -O0 -fpre-include=/usr/include/finclude/math-vector-fortran.h
REM seed -1087757929 1153699018 1987137603 -496657788 838501794 -984196913 212132077 9862683 560678828 1249785719 -1828595029 -2006125204 552647399 953042616 1355934441 236258941 -126417330 617765179 88747734 -470712845 -1429087152 -1969269 624122685 1096497399 382050371 -51654376 -138181516 2030699456 1428828306 1317152694 566453504 1174883800 890698846
REM
CELL 1.54180   50.00000   50.00000   50.00000   90.00000   90.00000   90.00000
LATT -1
SFAC C  
C      1  0.5458420000000  0.4484210000000  0.5502230000000 1.0
C      1  0.4327080000000  0.4572690000000  0.5168670000000 1.0
C      1  0.5235160000000  0.4626450000000  0.4334480000000 1.0
C      1  0.5478090000000  0.4667620000000  0.4506240000000 1.0
C      1  0.4380110000000  0.4488940000000  0.4886860000000 1.0
C      1  0.5185110000000  0.4565270000000  0.5621260000000 1.0
C      1  0.5110750000000  0.4310900000000  0.5424300000000 1.0
C      1  0.4600670000000  0.4257600000000  0.4907860000000 1.0
C      1  0.5370980000000  0.4371660000000  0.4606290000000 1.0
C      1  0.5118250000000  0.4331930000000  0.4410880000000 1.0
C      1  0.4506500000000  0.4303370000000  0.5215970000000 1.0
C      1  0.5390750000000  0.4231170000000  0.5300100000000 1.0
C      1  0.5293890000000  0.4589520000000  0.4850010000000 1.0
C      1  0.4990340000000  0.4581980000000  0.5276230000000 1.0
C      1  0.4765190000000  0.4538700000000  0.4810290000000 1.0
C      1  0.5293200000000  0.4529730000000  0.5142520000000 1.0
C      1  0.5019290000000  0.4552770000000  0.4659960000000 1.0
C      1  0.4723790000000  0.4555290000000  0.5144270000000 1.0
C      1  0.4401860000000  0.4999800000000  0.5456320000000 1.0
C      1  0.4800000000000  0.4906800000000  0.4228420000000 1.0
C      1  0.5727210000000  0.4890590000000  0.5277400000000 1.0
C      1  0.4259280000000  0.4881140000000  0.4540390000000 1.0
C      1  0.4862740000000  0.4969400000000  0.5735680000000 1.0
C      1  0.5735670000000  0.4962030000000  0.4783270000000 1.0
C      1  0.5013150000000  0.4822110000000  0.5514730000000 1.0
C      1  0.4503110000000  0.4724540000000  0.4697710000000 1.0
C      1  0.5438770000000  0.4870750000000  0.4758160000000 1.0
C      1  0.5004470000000  0.4810810000000  0.4438540000000 1.0
C      1  0.4521540000000  0.4808620000000  0.5250690000000 1.0
C      1  0.5558470000000  0.4678690000000  0.5295510000000 1.0
C      1  0.4751880000000  0.4950220000000  0.5097100000000 1.0
C      1  0.4978980000000  0.5029490000000  0.4660100000000 1.0
C      1  0.5181090000000  0.5152920000000  0.5130220000000 1.0
C      1  0.4712070000000  0.4970220000000  0.4804610000000 1.0
C      1  0.4990730000000  0.4979590000000  0.5236440000000 1.0
C      1  0.5245650000000  0.5114450000000  0.4828080000000 1.0
C      1  0.4752610000000  0.5754830000000  0.5111910000000 1.0
C      1  0.5067470000000  0.5859000000000  0.4765630000000 1.0
C      1  0.5247470000000  0.5667150000000  0.5145480000000 1.0
C      1  0.4809620000000  0.5755710000000  0.4830360000000 1.0
C      1  0.4986730000000  0.5760580000000  0.5275850000000 1.0
C      1  0.5267110000000  0.5692490000000  0.4873920000000 1.0
C      1  0.5648500000000  0.5420890000000  0.4778700000000 1.0
C      1  0.4927780000000  0.5440810000000  0.5688250000000 1.0
C      1  0.4517190000000  0.5405920000000  0.4642600000000 1.0
C      1  0.5597590000000  0.5343670000000  0.5358160000000 1.0
C      1  0.4836170000000  0.5359030000000  0.4329100000000 1.0
C      1  0.4448850000000  0.5488250000000  0.5430620000000 1.0
C      1  0.4517960000000  0.5669420000000  0.5239580000000 1.0
C      1  0.5029250000000  0.5353390000000  0.4594150000000 1.0
C      1  0.5303180000000  0.5384770000000  0.5288640000000 1.0
C      1  0.4757260000000  0.5522290000000  0.4685580000000 1.0
C      1  0.5073930000000  0.5541650000000  0.5478110000000 1.0
C      1  0.5330690000000  0.5427570000000  0.4726400000000 1.0
C      1  0.4673870000000  0.5136450000000  0.4308770000000 1.0
C      1  0.5745070000000  0.5161580000000  0.5203120000000 1.0
C      1  0.4508640000000  0.5242260000000  0.5551440000000 1.0
C      1  0.4748900000000  0.5224650000000  0.5700210000000 1.0
C      1  0.5764380000000  0.5204890000000  0.4923560000000 1.0
C      1  0.4505540000000  0.5100740000000  0.4568080000000 1.0
END
