TITL C-1154816-9297-59 0.122534742609031 125000 -319.346499253863 0 0 60 (C1) n - 1
REM
REM in /home/nfs/bkarasulu/CARBON/AIRSS/Generating-Clusters/AIREBO/Higher-Symm/Only-C60
REM
REM
REM
REM
REM
REM ./C.cell (28575a23ae977d3b5fae324c64b13b57)
REM
REM compiler GCC version 9.2.1 20190827 (Red Hat 9.2.1-1)
REM options -cpp -mtune=generic -march=x86-64 -g -O0 -fpre-include=/usr/include/finclude/math-vector-fortran.h
REM seed -1136925896 -742269679 -2069860903 -961672867 602599213 1610384125 -678237314 1253888228 -1572218063 -937088793 -1106483710 -31306729 1268856026 -1767676538 -1577059386 478661492 2008754625 51063777 -1798732543 -724164178 -1519027141 -1711369270 2131631334 -705004200 1528926302 -1223448784 -24395055 -1021653196 24866304 1303764600 -1815879531 -841881711 -1436447752
REM
CELL 1.54180   50.00000   50.00000   50.00000   90.00000   90.00000   90.00000
LATT -1
SFAC C  
C      1  0.5754510000000  0.5209780000000  0.5306640000000 1.0
C      1  0.4940090000000  0.5201130000000  0.4185680000000 1.0
C      1  0.4330660000000  0.5137660000000  0.5414680000000 1.0
C      1  0.5810040000000  0.4973730000000  0.5380860000000 1.0
C      1  0.4910100000000  0.4952930000000  0.4140760000000 1.0
C      1  0.4265420000000  0.4893400000000  0.5383890000000 1.0
C      1  0.5544250000000  0.4823200000000  0.5064220000000 1.0
C      1  0.4747890000000  0.4844540000000  0.4611650000000 1.0
C      1  0.4695030000000  0.4778960000000  0.5442830000000 1.0
C      1  0.5422740000000  0.5108840000000  0.4974150000000 1.0
C      1  0.4740150000000  0.5164470000000  0.4590160000000 1.0
C      1  0.4820210000000  0.5074290000000  0.5400170000000 1.0
C      1  0.4906610000000  0.4830750000000  0.5705060000000 1.0
C      1  0.5583670000000  0.4845860000000  0.4723180000000 1.0
C      1  0.4434700000000  0.4734840000000  0.4581840000000 1.0
C      1  0.4938880000000  0.5181410000000  0.5698730000000 1.0
C      1  0.5655840000000  0.5191620000000  0.4752530000000 1.0
C      1  0.4447160000000  0.5290800000000  0.4552860000000 1.0
C      1  0.4573030000000  0.4490120000000  0.4671180000000 1.0
C      1  0.4913850000000  0.4540680000000  0.5545990000000 1.0
C      1  0.5476050000000  0.4568050000000  0.4871990000000 1.0
C      1  0.4607030000000  0.5537970000000  0.4637270000000 1.0
C      1  0.4834140000000  0.5445700000000  0.5547140000000 1.0
C      1  0.5526620000000  0.5474370000000  0.4854880000000 1.0
C      1  0.4255690000000  0.4878510000000  0.4752140000000 1.0
C      1  0.5211970000000  0.4901690000000  0.5779670000000 1.0
C      1  0.5505460000000  0.4851300000000  0.4413460000000 1.0
C      1  0.4276080000000  0.5171270000000  0.4750830000000 1.0
C      1  0.5246670000000  0.5195970000000  0.5769980000000 1.0
C      1  0.5547290000000  0.5141250000000  0.4457210000000 1.0
C      1  0.4748850000000  0.5445560000000  0.4918890000000 1.0
C      1  0.5067620000000  0.5425780000000  0.5305110000000 1.0
C      1  0.5203250000000  0.5432190000000  0.4827730000000 1.0
C      1  0.4695110000000  0.4476250000000  0.4983330000000 1.0
C      1  0.5114980000000  0.4527500000000  0.5284290000000 1.0
C      1  0.5152140000000  0.4514080000000  0.4780630000000 1.0
C      1  0.5407640000000  0.5334080000000  0.5604090000000 1.0
C      1  0.5351870000000  0.5313730000000  0.4370280000000 1.0
C      1  0.4317720000000  0.5288210000000  0.5011050000000 1.0
C      1  0.5413810000000  0.4745350000000  0.5681790000000 1.0
C      1  0.5298090000000  0.4706710000000  0.4319350000000 1.0
C      1  0.4233260000000  0.4756400000000  0.5011040000000 1.0
C      1  0.5317870000000  0.5541420000000  0.5118450000000 1.0
C      1  0.4945700000000  0.5556380000000  0.4670550000000 1.0
C      1  0.4765200000000  0.5523180000000  0.5222350000000 1.0
C      1  0.5265200000000  0.4399260000000  0.5062730000000 1.0
C      1  0.4883610000000  0.4391750000000  0.4721980000000 1.0
C      1  0.4789930000000  0.4434630000000  0.5252400000000 1.0
C      1  0.5141870000000  0.5094190000000  0.5291220000000 1.0
C      1  0.5161440000000  0.5101000000000  0.4762890000000 1.0
C      1  0.4708500000000  0.5107950000000  0.4923660000000 1.0
C      1  0.5243070000000  0.4803010000000  0.5326230000000 1.0
C      1  0.5140780000000  0.4807340000000  0.4670980000000 1.0
C      1  0.4622900000000  0.4794810000000  0.4927910000000 1.0
C      1  0.5565310000000  0.4775420000000  0.5389280000000 1.0
C      1  0.4972380000000  0.4767230000000  0.4384460000000 1.0
C      1  0.4491290000000  0.4715870000000  0.5228800000000 1.0
C      1  0.5433560000000  0.5271530000000  0.5272530000000 1.0
C      1  0.5040860000000  0.5277940000000  0.4498670000000 1.0
C      1  0.4584350000000  0.5236170000000  0.5215710000000 1.0
END
