TITL C-1154826-9507-29 -0.00410129568940493 125000 -333.442184546539 0 0 60 (C1) n - 1
REM
REM in /home/nfs/bkarasulu/CARBON/AIRSS/Generating-Clusters/AIREBO/Higher-Symm/Only-C60
REM
REM
REM
REM
REM
REM ./C.cell (28575a23ae977d3b5fae324c64b13b57)
REM
REM compiler GCC version 9.2.1 20190827 (Red Hat 9.2.1-1)
REM options -cpp -mtune=generic -march=x86-64 -g -O0 -fpre-include=/usr/include/finclude/math-vector-fortran.h
REM seed -2053904375 79555085 -1707637627 -964127625 -974483196 1269124744 -1351318866 -1086483607 1771595294 1871564351 1978423013 1717049635 997499408 -957472439 -2083857692 344228474 1965915756 1444451050 -1644400252 -1121392279 1322530201 -1713283642 39482857 -622457714 1129707605 -934427742 -1763008630 1628018994 2142658746 494469341 -1176522704 1425425044 -1875419169
REM
CELL 1.54180   50.00000   50.00000   50.00000   90.00000   90.00000   90.00000
LATT -1
SFAC C  
C      1  0.4997890000000  0.5819470000000  0.5391220000000 1.0
C      1  0.5381130000000  0.4144560000000  0.4862150000000 1.0
C      1  0.4944860000000  0.5763450000000  0.4623980000000 1.0
C      1  0.4657510000000  0.4183140000000  0.5051500000000 1.0
C      1  0.5164230000000  0.4849250000000  0.4804440000000 1.0
C      1  0.4870340000000  0.5021640000000  0.4828490000000 1.0
C      1  0.4860120000000  0.4926340000000  0.5160500000000 1.0
C      1  0.5145520000000  0.5103510000000  0.5239370000000 1.0
C      1  0.4287310000000  0.5017590000000  0.4874760000000 1.0
C      1  0.4900630000000  0.5001540000000  0.5711490000000 1.0
C      1  0.5702140000000  0.5024180000000  0.5112280000000 1.0
C      1  0.5102840000000  0.5001560000000  0.4294930000000 1.0
C      1  0.4373120000000  0.4787760000000  0.5438120000000 1.0
C      1  0.5412520000000  0.5209130000000  0.5679530000000 1.0
C      1  0.5656410000000  0.4855170000000  0.4596470000000 1.0
C      1  0.4601600000000  0.5136120000000  0.4334270000000 1.0
C      1  0.4433380000000  0.4952780000000  0.5639000000000 1.0
C      1  0.5634100000000  0.5089810000000  0.5593430000000 1.0
C      1  0.5573250000000  0.5028290000000  0.4413290000000 1.0
C      1  0.4382970000000  0.5002060000000  0.4401450000000 1.0
C      1  0.5054900000000  0.4720500000000  0.5348480000000 1.0
C      1  0.5296840000000  0.5270930000000  0.4991440000000 1.0
C      1  0.4940100000000  0.4681380000000  0.4630460000000 1.0
C      1  0.4702630000000  0.5258800000000  0.5005470000000 1.0
C      1  0.4654160000000  0.4789600000000  0.4705910000000 1.0
C      1  0.4689940000000  0.5171670000000  0.5323160000000 1.0
C      1  0.5338730000000  0.4854200000000  0.5331260000000 1.0
C      1  0.5238710000000  0.5138940000000  0.4725870000000 1.0
C      1  0.5409440000000  0.4394030000000  0.4816360000000 1.0
C      1  0.4879090000000  0.5518520000000  0.4594280000000 1.0
C      1  0.4626150000000  0.4425480000000  0.5125210000000 1.0
C      1  0.5081660000000  0.5582790000000  0.5437040000000 1.0
C      1  0.4269960000000  0.4833070000000  0.5137300000000 1.0
C      1  0.5113520000000  0.5196350000000  0.5817380000000 1.0
C      1  0.5738960000000  0.4808220000000  0.4908460000000 1.0
C      1  0.4883770000000  0.5184410000000  0.4199010000000 1.0
C      1  0.4410470000000  0.5280040000000  0.4915630000000 1.0
C      1  0.4969250000000  0.4740050000000  0.5636850000000 1.0
C      1  0.5598420000000  0.5272840000000  0.5033000000000 1.0
C      1  0.5028910000000  0.4733680000000  0.4344820000000 1.0
C      1  0.5955950000000  0.4638440000000  0.4950430000000 1.0
C      1  0.4903270000000  0.5326080000000  0.3967140000000 1.0
C      1  0.3973490000000  0.4910340000000  0.5033610000000 1.0
C      1  0.5091660000000  0.5284590000000  0.6076570000000 1.0
C      1  0.4667390000000  0.5104400000000  0.5592820000000 1.0
C      1  0.5602250000000  0.4933830000000  0.5358780000000 1.0
C      1  0.5309520000000  0.5121120000000  0.4449880000000 1.0
C      1  0.4401190000000  0.4874720000000  0.4650100000000 1.0
C      1  0.5122390000000  0.5530910000000  0.5019290000000 1.0
C      1  0.5023730000000  0.4482110000000  0.4874810000000 1.0
C      1  0.4872320000000  0.5520140000000  0.4993860000000 1.0
C      1  0.5018580000000  0.4501100000000  0.5122330000000 1.0
C      1  0.4286320000000  0.5509160000000  0.4890460000000 1.0
C      1  0.5002950000000  0.4529950000000  0.5808460000000 1.0
C      1  0.5747520000000  0.5489290000000  0.4957300000000 1.0
C      1  0.5004460000000  0.4539640000000  0.4153600000000 1.0
C      1  0.4588540000000  0.4721630000000  0.5184160000000 1.0
C      1  0.5152520000000  0.5292900000000  0.5491610000000 1.0
C      1  0.5438410000000  0.4694330000000  0.4791320000000 1.0
C      1  0.4830030000000  0.5222450000000  0.4555410000000 1.0
END
