TITL C-1154826-9507-687 -0.000817285448499095 125000 -303.551536619247 0 0 60 (C1) n - 1
REM
REM in /home/nfs/bkarasulu/CARBON/AIRSS/Generating-Clusters/AIREBO/Higher-Symm/Only-C60
REM
REM
REM
REM
REM
REM ./C.cell (28575a23ae977d3b5fae324c64b13b57)
REM
REM compiler GCC version 9.2.1 20190827 (Red Hat 9.2.1-1)
REM options -cpp -mtune=generic -march=x86-64 -g -O0 -fpre-include=/usr/include/finclude/math-vector-fortran.h
REM seed -561621312 -998914802 -1930426079 1195020373 110532446 867416818 956101022 -2127395855 -389343960 -485739009 -1998603754 980470684 -2008842300 854343509 842514741 1486996955 1936989434 1739896461 259677449 2052802446 248697759 -1381992520 -1801282865 -172153079 -138741768 288638568 754029357 1193305316 -1016157549 16400695 1184339648 1203669414 -1423589603
REM
CELL 1.54180   50.00000   50.00000   50.00000   90.00000   90.00000   90.00000
LATT -1
SFAC C  
C      1  0.4768470000000  0.4819220000000  0.5293920000000 1.0
C      1  0.5050280000000  0.4344470000000  0.5107720000000 1.0
C      1  0.4935200000000  0.5796730000000  0.4886450000000 1.0
C      1  0.4947620000000  0.5139860000000  0.4200600000000 1.0
C      1  0.4655290000000  0.5701140000000  0.4842120000000 1.0
C      1  0.5375870000000  0.4801670000000  0.5681580000000 1.0
C      1  0.5594060000000  0.4851700000000  0.4840870000000 1.0
C      1  0.4990110000000  0.4420630000000  0.5573800000000 1.0
C      1  0.5151000000000  0.5108820000000  0.4796290000000 1.0
C      1  0.5542820000000  0.5311770000000  0.4971510000000 1.0
C      1  0.5603860000000  0.5143990000000  0.4750950000000 1.0
C      1  0.4478980000000  0.5289800000000  0.4721160000000 1.0
C      1  0.5344080000000  0.4860620000000  0.5071370000000 1.0
C      1  0.5212130000000  0.4567700000000  0.4959940000000 1.0
C      1  0.4542990000000  0.4597340000000  0.5418890000000 1.0
C      1  0.5372180000000  0.4766990000000  0.4402840000000 1.0
C      1  0.4507010000000  0.5239090000000  0.5048320000000 1.0
C      1  0.4485910000000  0.5000060000000  0.5363850000000 1.0
C      1  0.5165000000000  0.5513280000000  0.5139080000000 1.0
C      1  0.4449830000000  0.5118540000000  0.5598660000000 1.0
C      1  0.4338640000000  0.4592400000000  0.4916080000000 1.0
C      1  0.4888890000000  0.4933870000000  0.5590810000000 1.0
C      1  0.5216680000000  0.5509260000000  0.4633890000000 1.0
C      1  0.5036840000000  0.4805780000000  0.4821650000000 1.0
C      1  0.4633540000000  0.5512170000000  0.4629130000000 1.0
C      1  0.5030380000000  0.5134650000000  0.5355280000000 1.0
C      1  0.5157250000000  0.4305370000000  0.4594890000000 1.0
C      1  0.5463040000000  0.5432620000000  0.5592160000000 1.0
C      1  0.4534730000000  0.4713200000000  0.4665810000000 1.0
C      1  0.5160010000000  0.4895850000000  0.5773400000000 1.0
C      1  0.4905140000000  0.4420880000000  0.4663900000000 1.0
C      1  0.4858140000000  0.4710540000000  0.4558140000000 1.0
C      1  0.4329610000000  0.4551120000000  0.5254060000000 1.0
C      1  0.5416660000000  0.5478670000000  0.4361010000000 1.0
C      1  0.4852260000000  0.5408630000000  0.4479260000000 1.0
C      1  0.4833830000000  0.5291580000000  0.5126350000000 1.0
C      1  0.4833550000000  0.4414910000000  0.4932530000000 1.0
C      1  0.5059130000000  0.4233570000000  0.5359360000000 1.0
C      1  0.5258860000000  0.5187700000000  0.5108950000000 1.0
C      1  0.4644500000000  0.5002130000000  0.4725900000000 1.0
C      1  0.5646750000000  0.4735720000000  0.5163370000000 1.0
C      1  0.4909020000000  0.5554220000000  0.5331410000000 1.0
C      1  0.5135070000000  0.5219720000000  0.4475270000000 1.0
C      1  0.5544790000000  0.5586170000000  0.4986490000000 1.0
C      1  0.4502570000000  0.5579150000000  0.5057190000000 1.0
C      1  0.5056810000000  0.4652160000000  0.5362380000000 1.0
C      1  0.4454000000000  0.4903530000000  0.5063140000000 1.0
C      1  0.4839520000000  0.4981270000000  0.5003500000000 1.0
C      1  0.5476030000000  0.5213220000000  0.4513490000000 1.0
C      1  0.5517210000000  0.4655190000000  0.4618720000000 1.0
C      1  0.5321120000000  0.5290420000000  0.5438130000000 1.0
C      1  0.5266940000000  0.5722130000000  0.4886660000000 1.0
C      1  0.4753300000000  0.5111800000000  0.4448200000000 1.0
C      1  0.5127360000000  0.4881480000000  0.4440110000000 1.0
C      1  0.4766680000000  0.4612100000000  0.5633680000000 1.0
C      1  0.5379880000000  0.4727870000000  0.5382370000000 1.0
C      1  0.4678710000000  0.5115100000000  0.5752140000000 1.0
C      1  0.4971930000000  0.5458980000000  0.4864520000000 1.0
C      1  0.5374370000000  0.4441970000000  0.4730650000000 1.0
C      1  0.4653590000000  0.4629490000000  0.5036090000000 1.0
END
