TITL C-1154802-8274-186 -0.00230518127022816 125000 -343.468854631304 0 0 60 (C1) n - 1
REM
REM in /home/nfs/bkarasulu/CARBON/AIRSS/Generating-Clusters/AIREBO/Higher-Symm/Only-C60
REM
REM
REM
REM
REM
REM ./C.cell (28575a23ae977d3b5fae324c64b13b57)
REM
REM compiler GCC version 9.2.1 20190827 (Red Hat 9.2.1-1)
REM options -cpp -mtune=generic -march=x86-64 -g -O0 -fpre-include=/usr/include/finclude/math-vector-fortran.h
REM seed -1980961522 -401074661 -1075969713 -1165982674 -1574862445 1212056780 -1535139706 1794622728 963636977 -1425919949 2146852078 -2110677465 -146079477 -433625080 -2142275477 -1705761847 -697919611 -1195243922 -201811647 1286010602 -374778324 841247618 440698355 563854922 -176851920 1111944571 1570189685 -1916171569 -1466403642 1159524596 586493899 -1219517230 2055081712
REM
CELL 1.54180   50.00000   50.00000   50.00000   90.00000   90.00000   90.00000
LATT -1
SFAC C  
C      1  0.5370080000000  0.4302700000000  0.4687920000000 1.0
C      1  0.5422780000000  0.4333980000000  0.5263510000000 1.0
C      1  0.4905870000000  0.4408300000000  0.5458870000000 1.0
C      1  0.4529000000000  0.4368890000000  0.5056710000000 1.0
C      1  0.4832540000000  0.4392100000000  0.4572610000000 1.0
C      1  0.5539770000000  0.4861170000000  0.5395490000000 1.0
C      1  0.4821960000000  0.4887980000000  0.5673150000000 1.0
C      1  0.4365110000000  0.4874540000000  0.5040120000000 1.0
C      1  0.4821100000000  0.4946950000000  0.4383150000000 1.0
C      1  0.5502090000000  0.4859290000000  0.4620750000000 1.0
C      1  0.5273060000000  0.5313560000000  0.5536730000000 1.0
C      1  0.4581500000000  0.5325160000000  0.5473740000000 1.0
C      1  0.4397850000000  0.5310390000000  0.4741440000000 1.0
C      1  0.5053570000000  0.5435140000000  0.4343770000000 1.0
C      1  0.5452680000000  0.5254600000000  0.4912260000000 1.0
C      1  0.4782320000000  0.5702610000000  0.4696650000000 1.0
C      1  0.5231570000000  0.5684940000000  0.4792110000000 1.0
C      1  0.5150930000000  0.5613940000000  0.5087230000000 1.0
C      1  0.4875320000000  0.5699330000000  0.5272850000000 1.0
C      1  0.4763300000000  0.5567880000000  0.5004370000000 1.0
C      1  0.4790360000000  0.4224310000000  0.5198770000000 1.0
C      1  0.4758690000000  0.4228920000000  0.4861860000000 1.0
C      1  0.5060430000000  0.4198520000000  0.4735290000000 1.0
C      1  0.5283200000000  0.4185920000000  0.4990710000000 1.0
C      1  0.5112080000000  0.4212480000000  0.5276430000000 1.0
C      1  0.5158410000000  0.5296630000000  0.4636540000000 1.0
C      1  0.5232680000000  0.5301450000000  0.5140120000000 1.0
C      1  0.4986760000000  0.5135870000000  0.5242160000000 1.0
C      1  0.4819420000000  0.5249690000000  0.5020410000000 1.0
C      1  0.4923920000000  0.5126500000000  0.4774410000000 1.0
C      1  0.4969430000000  0.4825860000000  0.5236750000000 1.0
C      1  0.4798230000000  0.4733020000000  0.5005370000000 1.0
C      1  0.4939250000000  0.4829480000000  0.4746720000000 1.0
C      1  0.5203270000000  0.4712220000000  0.4841380000000 1.0
C      1  0.5211860000000  0.4699780000000  0.5110810000000 1.0
C      1  0.5062430000000  0.5096380000000  0.4308550000000 1.0
C      1  0.5582590000000  0.4954850000000  0.4882030000000 1.0
C      1  0.5335640000000  0.4979490000000  0.5547890000000 1.0
C      1  0.4570960000000  0.5008830000000  0.5594790000000 1.0
C      1  0.4441450000000  0.4985590000000  0.4791970000000 1.0
C      1  0.5325880000000  0.5014760000000  0.4408760000000 1.0
C      1  0.5669580000000  0.5040960000000  0.5170720000000 1.0
C      1  0.5077470000000  0.5109280000000  0.5727130000000 1.0
C      1  0.4406710000000  0.5082220000000  0.5306150000000 1.0
C      1  0.4550020000000  0.5119250000000  0.4499830000000 1.0
C      1  0.4507840000000  0.5267460000000  0.5061500000000 1.0
C      1  0.4818800000000  0.5313130000000  0.4538890000000 1.0
C      1  0.5482430000000  0.5255370000000  0.4572400000000 1.0
C      1  0.5510610000000  0.5249450000000  0.5306750000000 1.0
C      1  0.4882530000000  0.5240170000000  0.5500330000000 1.0
C      1  0.4836700000000  0.4662230000000  0.4504480000000 1.0
C      1  0.5397360000000  0.4574670000000  0.4661610000000 1.0
C      1  0.5432830000000  0.4614420000000  0.5269630000000 1.0
C      1  0.4901960000000  0.4683930000000  0.5493450000000 1.0
C      1  0.4534860000000  0.4644540000000  0.5056750000000 1.0
C      1  0.4504580000000  0.5592340000000  0.4796200000000 1.0
C      1  0.5031980000000  0.5670080000000  0.4589150000000 1.0
C      1  0.5475380000000  0.5542590000000  0.4745940000000 1.0
C      1  0.5146050000000  0.5568500000000  0.5424190000000 1.0
C      1  0.4592950000000  0.5625400000000  0.5409760000000 1.0
END
