TITL C-1154804-8633-192 0.00136279538619945 125000 -328.570257023077 0 0 60 (C1) n - 1
REM
REM in /home/nfs/bkarasulu/CARBON/AIRSS/Generating-Clusters/AIREBO/Higher-Symm/Only-C60
REM
REM
REM
REM
REM
REM ./C.cell (28575a23ae977d3b5fae324c64b13b57)
REM
REM compiler GCC version 9.2.1 20190827 (Red Hat 9.2.1-1)
REM options -cpp -mtune=generic -march=x86-64 -g -O0 -fpre-include=/usr/include/finclude/math-vector-fortran.h
REM seed 1418565335 -1468566881 -312466624 -17517407 325477407 818272466 -1805397425 1866797551 1262642062 -1786857778 -2142127061 544334851 -1516906264 -562329520 1959772894 1153373634 -784717866 -234654397 -1519938262 1699995048 -240301913 156997735 -313781202 -1107697007 1395346445 1252225045 1678546197 -943432833 508498657 167149398 -595405893 87792173 458674271
REM
CELL 1.54180   50.00000   50.00000   50.00000   90.00000   90.00000   90.00000
LATT -1
SFAC C  
C      1  0.5554910000000  0.4946550000000  0.4580620000000 1.0
C      1  0.4447630000000  0.5161580000000  0.5407260000000 1.0
C      1  0.4760890000000  0.4906790000000  0.5042940000000 1.0
C      1  0.5140190000000  0.5027870000000  0.5064090000000 1.0
C      1  0.4792990000000  0.5646650000000  0.4545940000000 1.0
C      1  0.5233500000000  0.4471900000000  0.5319860000000 1.0
C      1  0.5727220000000  0.4932820000000  0.4824640000000 1.0
C      1  0.4427170000000  0.4908110000000  0.5318310000000 1.0
C      1  0.5211650000000  0.4735060000000  0.5091020000000 1.0
C      1  0.4857380000000  0.5213890000000  0.5034730000000 1.0
C      1  0.5443540000000  0.5548010000000  0.4935170000000 1.0
C      1  0.4589590000000  0.4391830000000  0.5054310000000 1.0
C      1  0.4780970000000  0.4502660000000  0.5628230000000 1.0
C      1  0.5185320000000  0.5370880000000  0.4382160000000 1.0
C      1  0.5599650000000  0.5163180000000  0.4967840000000 1.0
C      1  0.4440050000000  0.4880220000000  0.5008900000000 1.0
C      1  0.4955010000000  0.5533730000000  0.5034660000000 1.0
C      1  0.5087170000000  0.4452260000000  0.4949020000000 1.0
C      1  0.4978520000000  0.4415320000000  0.5458940000000 1.0
C      1  0.5063400000000  0.5563780000000  0.4549850000000 1.0
C      1  0.4791600000000  0.4951660000000  0.4301320000000 1.0
C      1  0.5192670000000  0.5151840000000  0.5739350000000 1.0
C      1  0.4884560000000  0.5034620000000  0.5781830000000 1.0
C      1  0.5006240000000  0.5144900000000  0.4350060000000 1.0
C      1  0.4981860000000  0.4886300000000  0.5533130000000 1.0
C      1  0.5120580000000  0.5014980000000  0.4590320000000 1.0
C      1  0.4368640000000  0.5309210000000  0.4748960000000 1.0
C      1  0.5612560000000  0.4791710000000  0.5115280000000 1.0
C      1  0.4526580000000  0.4641430000000  0.5460650000000 1.0
C      1  0.5458090000000  0.5257930000000  0.4519920000000 1.0
C      1  0.5090180000000  0.4359320000000  0.4622470000000 1.0
C      1  0.4957970000000  0.5714980000000  0.5322340000000 1.0
C      1  0.4615920000000  0.4930900000000  0.4523060000000 1.0
C      1  0.5269020000000  0.5028490000000  0.5442260000000 1.0
C      1  0.5606080000000  0.5476960000000  0.4720220000000 1.0
C      1  0.4417380000000  0.4409280000000  0.5272130000000 1.0
C      1  0.4754540000000  0.4745420000000  0.4750690000000 1.0
C      1  0.5167400000000  0.5294210000000  0.5273740000000 1.0
C      1  0.4583770000000  0.5397840000000  0.4995940000000 1.0
C      1  0.5442050000000  0.4620000000000  0.4875660000000 1.0
C      1  0.4928190000000  0.4686920000000  0.4265510000000 1.0
C      1  0.4935070000000  0.5345750000000  0.5707120000000 1.0
C      1  0.5661110000000  0.5257930000000  0.5257620000000 1.0
C      1  0.4272740000000  0.4695920000000  0.4777300000000 1.0
C      1  0.4369830000000  0.5015270000000  0.4709730000000 1.0
C      1  0.5550190000000  0.4989220000000  0.5329250000000 1.0
C      1  0.4607120000000  0.5357630000000  0.5309590000000 1.0
C      1  0.5383910000000  0.4714540000000  0.4600510000000 1.0
C      1  0.5436870000000  0.5447100000000  0.5197030000000 1.0
C      1  0.4531910000000  0.4536690000000  0.4826090000000 1.0
C      1  0.5504270000000  0.4481780000000  0.5180010000000 1.0
C      1  0.4586500000000  0.5531320000000  0.4687770000000 1.0
C      1  0.4869570000000  0.4456980000000  0.5155500000000 1.0
C      1  0.5160770000000  0.5503370000000  0.4824800000000 1.0
C      1  0.4814880000000  0.4751140000000  0.5317450000000 1.0
C      1  0.5302110000000  0.5193960000000  0.4815390000000 1.0
C      1  0.4896530000000  0.5416780000000  0.5412440000000 1.0
C      1  0.5045520000000  0.4684610000000  0.4584680000000 1.0
C      1  0.4837490000000  0.5853680000000  0.5069330000000 1.0
C      1  0.5181010000000  0.4144340000000  0.4835040000000 1.0
END
