TITL C-1154801-8518-489 -0.00379151141610805 125000 -353.558025652467 0 0 60 (C1) n - 1
REM
REM in /home/nfs/bkarasulu/CARBON/AIRSS/Generating-Clusters/AIREBO/Higher-Symm/Only-C60
REM
REM
REM
REM
REM
REM ./C.cell (28575a23ae977d3b5fae324c64b13b57)
REM
REM compiler GCC version 9.2.1 20190827 (Red Hat 9.2.1-1)
REM options -cpp -mtune=generic -march=x86-64 -g -O0 -fpre-include=/usr/include/finclude/math-vector-fortran.h
REM seed 453414076 156447582 -1457858250 -278446530 904251531 -82666770 -1485342353 453924562 2093539124 -2086291540 81045502 1949424898 -1596069909 439170159 1749609096 1867864778 -1836241598 -1783466828 195266493 1545941127 -401508022 1406812579 -811709104 -1542467284 855498529 -139438663 -882692839 668771205 1385066041 1891738448 749214413 1572653313 388686336
REM
CELL 1.54180   50.00000   50.00000   50.00000   90.00000   90.00000   90.00000
LATT -1
SFAC C  
C      1  0.5276310000000  0.4907720000000  0.4962340000000 1.0
C      1  0.4660800000000  0.4867270000000  0.4978150000000 1.0
C      1  0.4880970000000  0.4828790000000  0.5627650000000 1.0
C      1  0.5164640000000  0.4917310000000  0.5548720000000 1.0
C      1  0.5147100000000  0.4749210000000  0.5187420000000 1.0
C      1  0.4851990000000  0.4772690000000  0.5233950000000 1.0
C      1  0.4960820000000  0.4328000000000  0.5541100000000 1.0
C      1  0.5209910000000  0.4374810000000  0.5539070000000 1.0
C      1  0.5581060000000  0.4977690000000  0.4998110000000 1.0
C      1  0.4355830000000  0.4971680000000  0.4953530000000 1.0
C      1  0.4645850000000  0.5675710000000  0.4977990000000 1.0
C      1  0.5282960000000  0.5631850000000  0.4993050000000 1.0
C      1  0.4264590000000  0.5427180000000  0.4861410000000 1.0
C      1  0.5701990000000  0.5424960000000  0.4915720000000 1.0
C      1  0.5162000000000  0.5553880000000  0.4327080000000 1.0
C      1  0.4908990000000  0.5554110000000  0.4282440000000 1.0
C      1  0.4508040000000  0.5147250000000  0.4518250000000 1.0
C      1  0.5484290000000  0.5147290000000  0.4553690000000 1.0
C      1  0.5245160000000  0.5356400000000  0.4551480000000 1.0
C      1  0.4759470000000  0.5412570000000  0.4497360000000 1.0
C      1  0.5506190000000  0.5510390000000  0.5111190000000 1.0
C      1  0.4442100000000  0.5520530000000  0.5065310000000 1.0
C      1  0.4846300000000  0.5536360000000  0.4756770000000 1.0
C      1  0.5126580000000  0.5416810000000  0.4840010000000 1.0
C      1  0.5610170000000  0.4608490000000  0.5274660000000 1.0
C      1  0.4496610000000  0.4626260000000  0.5342200000000 1.0
C      1  0.5109070000000  0.5169310000000  0.5024590000000 1.0
C      1  0.4825580000000  0.5089420000000  0.5143580000000 1.0
C      1  0.5314630000000  0.4640180000000  0.5418180000000 1.0
C      1  0.4776270000000  0.4559510000000  0.5478590000000 1.0
C      1  0.4364450000000  0.5084750000000  0.5237280000000 1.0
C      1  0.5620690000000  0.5083090000000  0.5273990000000 1.0
C      1  0.5469960000000  0.4903050000000  0.5672490000000 1.0
C      1  0.4678260000000  0.5019470000000  0.5569720000000 1.0
C      1  0.4647230000000  0.4326270000000  0.4974860000000 1.0
C      1  0.5314330000000  0.4186250000000  0.4900660000000 1.0
C      1  0.5449970000000  0.5307820000000  0.5308070000000 1.0
C      1  0.4505610000000  0.5328470000000  0.5257820000000 1.0
C      1  0.4455570000000  0.4902260000000  0.5426590000000 1.0
C      1  0.5637680000000  0.4873200000000  0.5454230000000 1.0
C      1  0.4451020000000  0.4509050000000  0.5085340000000 1.0
C      1  0.5413390000000  0.4440880000000  0.5053750000000 1.0
C      1  0.4804870000000  0.5278690000000  0.5411640000000 1.0
C      1  0.5137800000000  0.5201330000000  0.5362160000000 1.0
C      1  0.4325720000000  0.5186490000000  0.4747010000000 1.0
C      1  0.5653520000000  0.5182990000000  0.4793810000000 1.0
C      1  0.4373490000000  0.4634450000000  0.4612520000000 1.0
C      1  0.5638970000000  0.4655010000000  0.4642860000000 1.0
C      1  0.4842570000000  0.5089030000000  0.4499830000000 1.0
C      1  0.5145560000000  0.5053250000000  0.4458430000000 1.0
C      1  0.4883650000000  0.5849910000000  0.4882660000000 1.0
C      1  0.5144850000000  0.5877420000000  0.4985520000000 1.0
C      1  0.4326310000000  0.4670070000000  0.4884760000000 1.0
C      1  0.5621640000000  0.4665750000000  0.4935260000000 1.0
C      1  0.4744060000000  0.4708710000000  0.4739000000000 1.0
C      1  0.5254650000000  0.4708010000000  0.4735080000000 1.0
C      1  0.5130490000000  0.4445710000000  0.4818690000000 1.0
C      1  0.4841040000000  0.4454840000000  0.4808930000000 1.0
C      1  0.5404380000000  0.4833760000000  0.4484280000000 1.0
C      1  0.4611980000000  0.4836430000000  0.4479150000000 1.0
END
