TITL C-1154804-8633-675 -0.00303039954151099 125000 -319.843877199522 0 0 60 (C2) n - 1
REM
REM in /home/nfs/bkarasulu/CARBON/AIRSS/Generating-Clusters/AIREBO/Higher-Symm/Only-C60
REM
REM
REM
REM
REM
REM ./C.cell (28575a23ae977d3b5fae324c64b13b57)
REM
REM compiler GCC version 9.2.1 20190827 (Red Hat 9.2.1-1)
REM options -cpp -mtune=generic -march=x86-64 -g -O0 -fpre-include=/usr/include/finclude/math-vector-fortran.h
REM seed -480651882 1130040936 -40364828 -275385241 -1551947637 1413843949 -2122549965 1108074075 -631092096 -678575595 -924940569 -793262262 2101773034 -590696820 -512735186 1212146102 -1981336755 -1122805903 1611925871 -1021926997 996810099 1032318395 1885749292 -2075686723 1907679833 -1761010998 320394115 -1263235923 636228990 -794170629 1390482118 -1701099627 536314219
REM
CELL 1.54180   50.00000   50.00000   50.00000   90.00000   90.00000   90.00000
LATT -1
SFAC C  
C      1  0.4756580000000  0.4770290000000  0.4262720000000 1.0
C      1  0.5068620000000  0.4693210000000  0.4358810000000 1.0
C      1  0.5310440000000  0.4915370000000  0.4336280000000 1.0
C      1  0.5243410000000  0.5229740000000  0.4262730000000 1.0
C      1  0.4931370000000  0.5306820000000  0.4358830000000 1.0
C      1  0.4689550000000  0.5084660000000  0.4336290000000 1.0
C      1  0.4777650000000  0.4766180000000  0.5597110000000 1.0
C      1  0.5103960000000  0.4673880000000  0.5623110000000 1.0
C      1  0.5321880000000  0.4909400000000  0.5620040000000 1.0
C      1  0.5222350000000  0.5233790000000  0.5597110000000 1.0
C      1  0.4896050000000  0.5326080000000  0.5623130000000 1.0
C      1  0.4678120000000  0.5090570000000  0.5620050000000 1.0
C      1  0.5559340000000  0.5151950000000  0.5599330000000 1.0
C      1  0.5130550000000  0.5572150000000  0.5610490000000 1.0
C      1  0.4573820000000  0.5414500000000  0.5630220000000 1.0
C      1  0.4440660000000  0.4848020000000  0.5599340000000 1.0
C      1  0.4869490000000  0.4427830000000  0.5610470000000 1.0
C      1  0.5426190000000  0.4585470000000  0.5630190000000 1.0
C      1  0.5530610000000  0.5140250000000  0.4422370000000 1.0
C      1  0.5166660000000  0.5533880000000  0.4394250000000 1.0
C      1  0.4621800000000  0.5396610000000  0.4424080000000 1.0
C      1  0.4469380000000  0.4859770000000  0.4422370000000 1.0
C      1  0.4833330000000  0.4466150000000  0.4394220000000 1.0
C      1  0.5378190000000  0.4603420000000  0.4424050000000 1.0
C      1  0.5560530000000  0.5140010000000  0.5273440000000 1.0
C      1  0.5168800000000  0.5590890000000  0.5279940000000 1.0
C      1  0.4604520000000  0.5430540000000  0.5291950000000 1.0
C      1  0.4439480000000  0.4859980000000  0.5273440000000 1.0
C      1  0.4831220000000  0.4409100000000  0.5279920000000 1.0
C      1  0.5395490000000  0.4569440000000  0.5291920000000 1.0
C      1  0.5557290000000  0.5144780000000  0.4724300000000 1.0
C      1  0.5168990000000  0.5575880000000  0.4711490000000 1.0
C      1  0.4604100000000  0.5418890000000  0.4730960000000 1.0
C      1  0.4442700000000  0.4855230000000  0.4724310000000 1.0
C      1  0.4831000000000  0.4424140000000  0.4711470000000 1.0
C      1  0.5395890000000  0.4581130000000  0.4730930000000 1.0
C      1  0.4862680000000  0.5603440000000  0.4857080000000 1.0
C      1  0.4418000000000  0.5167500000000  0.4864710000000 1.0
C      1  0.4557770000000  0.4561840000000  0.4860030000000 1.0
C      1  0.5137320000000  0.4396560000000  0.4857040000000 1.0
C      1  0.5582000000000  0.4832510000000  0.4864690000000 1.0
C      1  0.5442230000000  0.5438170000000  0.4860040000000 1.0
C      1  0.4858410000000  0.5609370000000  0.5142350000000 1.0
C      1  0.4421850000000  0.5176970000000  0.5150840000000 1.0
C      1  0.4563980000000  0.4569090000000  0.5143460000000 1.0
C      1  0.5141600000000  0.4390620000000  0.5142320000000 1.0
C      1  0.5578160000000  0.4823030000000  0.5150820000000 1.0
C      1  0.5436030000000  0.5430900000000  0.5143470000000 1.0
C      1  0.5267440000000  0.5070360000000  0.5145950000000 1.0
C      1  0.5095530000000  0.5264780000000  0.5283110000000 1.0
C      1  0.4818560000000  0.5217190000000  0.5192470000000 1.0
C      1  0.4732560000000  0.4929630000000  0.5145950000000 1.0
C      1  0.4904480000000  0.4735210000000  0.5283100000000 1.0
C      1  0.5181440000000  0.4782810000000  0.5192460000000 1.0
C      1  0.5270340000000  0.5080540000000  0.4838870000000 1.0
C      1  0.5072870000000  0.5272590000000  0.4757720000000 1.0
C      1  0.4813620000000  0.5209300000000  0.4872620000000 1.0
C      1  0.4729650000000  0.4919460000000  0.4838880000000 1.0
C      1  0.4927130000000  0.4727420000000  0.4757710000000 1.0
C      1  0.5186380000000  0.4790700000000  0.4872600000000 1.0
END
