TITL C-1154825-9328-419 0.00231456131933776 125000 -303.435171730734 0 0 60 (C1) n - 1
REM
REM in /home/nfs/bkarasulu/CARBON/AIRSS/Generating-Clusters/AIREBO/Higher-Symm/Only-C60
REM
REM
REM
REM
REM
REM ./C.cell (28575a23ae977d3b5fae324c64b13b57)
REM
REM compiler GCC version 9.2.1 20190827 (Red Hat 9.2.1-1)
REM options -cpp -mtune=generic -march=x86-64 -g -O0 -fpre-include=/usr/include/finclude/math-vector-fortran.h
REM seed -568810950 114268696 -1916966687 1866869109 -1385555469 522529794 1351005125 -134642837 -1591419401 241795655 -47986571 1757088904 -1241719034 2123306362 -1521492784 -637917884 230342271 286481128 783430575 244411491 2089221918 -1229912542 427988833 971393800 998904234 -1497710370 502855532 -1839358768 1638012525 -1513777804 133895706 -785221944 -1598650679
REM
CELL 1.54180   50.00000   50.00000   50.00000   90.00000   90.00000   90.00000
LATT -1
SFAC C  
C      1  0.5451060000000  0.4840620000000  0.4652630000000 1.0
C      1  0.4607590000000  0.5453430000000  0.4676840000000 1.0
C      1  0.4836250000000  0.4795250000000  0.5400920000000 1.0
C      1  0.4523510000000  0.4806010000000  0.5277610000000 1.0
C      1  0.5496730000000  0.5197860000000  0.5216600000000 1.0
C      1  0.4363290000000  0.5225170000000  0.4691550000000 1.0
C      1  0.5300490000000  0.5469150000000  0.5249530000000 1.0
C      1  0.4625350000000  0.4589550000000  0.5092970000000 1.0
C      1  0.5252020000000  0.4522740000000  0.4791350000000 1.0
C      1  0.5278370000000  0.4662320000000  0.4486080000000 1.0
C      1  0.4741420000000  0.5171090000000  0.4586510000000 1.0
C      1  0.5194790000000  0.5261810000000  0.5468760000000 1.0
C      1  0.5274800000000  0.4622570000000  0.5610100000000 1.0
C      1  0.5668490000000  0.5167570000000  0.4728330000000 1.0
C      1  0.4566160000000  0.5611480000000  0.5148170000000 1.0
C      1  0.4928940000000  0.4700790000000  0.4301510000000 1.0
C      1  0.5171470000000  0.5410380000000  0.4391990000000 1.0
C      1  0.4903440000000  0.5246450000000  0.5741720000000 1.0
C      1  0.4432380000000  0.5192830000000  0.5234870000000 1.0
C      1  0.5604680000000  0.4784510000000  0.5374780000000 1.0
C      1  0.4224120000000  0.4865100000000  0.4792060000000 1.0
C      1  0.5340150000000  0.5650020000000  0.4896570000000 1.0
C      1  0.4772510000000  0.4347270000000  0.4812540000000 1.0
C      1  0.5385970000000  0.4380490000000  0.5275550000000 1.0
C      1  0.5819920000000  0.5237190000000  0.5192710000000 1.0
C      1  0.5144510000000  0.5718660000000  0.5249550000000 1.0
C      1  0.5404060000000  0.5216230000000  0.5707070000000 1.0
C      1  0.4083710000000  0.5383070000000  0.4729430000000 1.0
C      1  0.5674860000000  0.4732110000000  0.4759360000000 1.0
C      1  0.4226460000000  0.4843550000000  0.5258750000000 1.0
C      1  0.4816000000000  0.5646380000000  0.4677750000000 1.0
C      1  0.5237080000000  0.4195240000000  0.4790180000000 1.0
C      1  0.4736080000000  0.4373080000000  0.5220240000000 1.0
C      1  0.4767780000000  0.5128040000000  0.4281370000000 1.0
C      1  0.5333260000000  0.4787210000000  0.4199710000000 1.0
C      1  0.4819290000000  0.4790650000000  0.5712940000000 1.0
C      1  0.4429490000000  0.5467620000000  0.4947130000000 1.0
C      1  0.5147910000000  0.4698940000000  0.5304030000000 1.0
C      1  0.5337420000000  0.5157690000000  0.4650910000000 1.0
C      1  0.5352960000000  0.5327930000000  0.4944860000000 1.0
C      1  0.4696310000000  0.4678020000000  0.4790240000000 1.0
C      1  0.5377140000000  0.4631820000000  0.5061920000000 1.0
C      1  0.4973460000000  0.4636040000000  0.4625950000000 1.0
C      1  0.5034700000000  0.5311820000000  0.4668760000000 1.0
C      1  0.4881210000000  0.5311370000000  0.5414140000000 1.0
C      1  0.4707850000000  0.5088490000000  0.5307560000000 1.0
C      1  0.5339710000000  0.4960380000000  0.5407230000000 1.0
C      1  0.4534350000000  0.4930790000000  0.4705990000000 1.0
C      1  0.4167740000000  0.5270930000000  0.5036150000000 1.0
C      1  0.5053420000000  0.4373260000000  0.5231780000000 1.0
C      1  0.5256910000000  0.5097370000000  0.4311980000000 1.0
C      1  0.5772310000000  0.5063260000000  0.4961120000000 1.0
C      1  0.4143530000000  0.4966540000000  0.5033370000000 1.0
C      1  0.5684370000000  0.4777560000000  0.5068010000000 1.0
C      1  0.4994970000000  0.4255460000000  0.4940330000000 1.0
C      1  0.5023970000000  0.5551250000000  0.4907670000000 1.0
C      1  0.4863810000000  0.5545790000000  0.5207540000000 1.0
C      1  0.4978700000000  0.4989480000000  0.5815600000000 1.0
C      1  0.5266590000000  0.4922400000000  0.5753250000000 1.0
C      1  0.4974190000000  0.4959930000000  0.4225890000000 1.0
END
