TITL C-1154825-9328-80 0.000380961615787797 125000 -341.021640988882 0 0 60 (C3) n - 1
REM
REM in /home/nfs/bkarasulu/CARBON/AIRSS/Generating-Clusters/AIREBO/Higher-Symm/Only-C60
REM
REM
REM
REM
REM
REM ./C.cell (28575a23ae977d3b5fae324c64b13b57)
REM
REM compiler GCC version 9.2.1 20190827 (Red Hat 9.2.1-1)
REM options -cpp -mtune=generic -march=x86-64 -g -O0 -fpre-include=/usr/include/finclude/math-vector-fortran.h
REM seed 70794609 1558425740 478011656 -465910360 653955567 254878652 -1259245522 1396004328 -1126689285 156263138 -765742836 358974297 -1412931855 1682642347 -1494111002 597212563 1427520488 -1861914745 -1113093256 302910793 -1421122500 1470059492 -2081969626 608010848 1114703669 -1667486343 -407049925 -287533860 -1137834459 1030037573 -1266309693 1078535623 -1786260780
REM
CELL 1.54180   50.00000   50.00000   50.00000   90.00000   90.00000   90.00000
LATT -1
SFAC C  
C      1  0.5537480000000  0.4440580000000  0.4892120000000 1.0
C      1  0.5537760000000  0.5372630000000  0.4569380000000 1.0
C      1  0.5538020000000  0.5186110000000  0.5537930000000 1.0
C      1  0.5206680000000  0.4735870000000  0.5530760000000 1.0
C      1  0.5206290000000  0.4672220000000  0.4505850000000 1.0
C      1  0.5206840000000  0.5591650000000  0.4963180000000 1.0
C      1  0.5326270000000  0.5330250000000  0.5649480000000 1.0
C      1  0.5325580000000  0.4272100000000  0.4961210000000 1.0
C      1  0.5325850000000  0.5397240000000  0.4388960000000 1.0
C      1  0.4840300000000  0.5559020000000  0.4400790000000 1.0
C      1  0.4840650000000  0.5239570000000  0.5783760000000 1.0
C      1  0.4839870000000  0.4201610000000  0.4815620000000 1.0
C      1  0.4993160000000  0.5602710000000  0.4704860000000 1.0
C      1  0.4993230000000  0.4954250000000  0.5669530000000 1.0
C      1  0.4992650000000  0.4443050000000  0.4625610000000 1.0
C      1  0.4625330000000  0.5709630000000  0.4319370000000 1.0
C      1  0.4625710000000  0.5234980000000  0.5954940000000 1.0
C      1  0.4624780000000  0.4055860000000  0.4726090000000 1.0
C      1  0.5150300000000  0.5173190000000  0.4379480000000 1.0
C      1  0.5150800000000  0.5450650000000  0.5460220000000 1.0
C      1  0.5150240000000  0.4375970000000  0.5160140000000 1.0
C      1  0.5457130000000  0.4743210000000  0.4946530000000 1.0
C      1  0.5457260000000  0.5174280000000  0.4804270000000 1.0
C      1  0.5457380000000  0.5081940000000  0.5248720000000 1.0
C      1  0.4872380000000  0.5263060000000  0.4285970000000 1.0
C      1  0.4872930000000  0.5486950000000  0.5584850000000 1.0
C      1  0.4872250000000  0.4250150000000  0.5129310000000 1.0
C      1  0.4822610000000  0.4396170000000  0.5387590000000 1.0
C      1  0.4822460000000  0.4966420000000  0.4283300000000 1.0
C      1  0.4823110000000  0.5637630000000  0.5329300000000 1.0
C      1  0.4289480000000  0.5039240000000  0.4818150000000 1.0
C      1  0.4289630000000  0.5138530000000  0.5125020000000 1.0
C      1  0.4289470000000  0.4823120000000  0.5057580000000 1.0
C      1  0.4511600000000  0.5264770000000  0.5235200000000 1.0
C      1  0.4511300000000  0.4664380000000  0.5111770000000 1.0
C      1  0.4511310000000  0.5071470000000  0.4653540000000 1.0
C      1  0.5318800000000  0.4917000000000  0.4714880000000 1.0
C      1  0.5319090000000  0.5288120000000  0.5070630000000 1.0
C      1  0.5318930000000  0.4794470000000  0.5214150000000 1.0
C      1  0.5058940000000  0.4800940000000  0.4250730000000 1.0
C      1  0.5059680000000  0.5748360000000  0.5202240000000 1.0
C      1  0.5059250000000  0.4450620000000  0.5546970000000 1.0
C      1  0.4853090000000  0.5406220000000  0.4902520000000 1.0
C      1  0.4853040000000  0.4881440000000  0.5400560000000 1.0
C      1  0.4852720000000  0.4712520000000  0.4697070000000 1.0
C      1  0.4664680000000  0.4872500000000  0.4498030000000 1.0
C      1  0.4665170000000  0.5498780000000  0.5140620000000 1.0
C      1  0.4664890000000  0.4629140000000  0.5361700000000 1.0
C      1  0.5018950000000  0.4678610000000  0.5183850000000 1.0
C      1  0.5018890000000  0.5001460000000  0.4629740000000 1.0
C      1  0.5019220000000  0.5319910000000  0.5186390000000 1.0
C      1  0.4775480000000  0.4704020000000  0.4984860000000 1.0
C      1  0.4775590000000  0.5161310000000  0.4751280000000 1.0
C      1  0.4775760000000  0.5134950000000  0.5264090000000 1.0
C      1  0.5165110000000  0.5627850000000  0.4423440000000 1.0
C      1  0.5165420000000  0.5185240000000  0.5831980000000 1.0
C      1  0.5164620000000  0.4186710000000  0.4744400000000 1.0
C      1  0.5511700000000  0.5533450000000  0.4836370000000 1.0
C      1  0.5511670000000  0.4874510000000  0.5543710000000 1.0
C      1  0.5511230000000  0.4591400000000  0.4619380000000 1.0
END
