TITL C-1154808-8168-178 -0.00398905247030652 125000 -330.460521457311 0 0 60 (C1) n - 1
REM
REM in /home/nfs/bkarasulu/CARBON/AIRSS/Generating-Clusters/AIREBO/Higher-Symm/Only-C60
REM
REM
REM
REM
REM
REM ./C.cell (28575a23ae977d3b5fae324c64b13b57)
REM
REM compiler GCC version 9.2.1 20190827 (Red Hat 9.2.1-1)
REM options -cpp -mtune=generic -march=x86-64 -g -O0 -fpre-include=/usr/include/finclude/math-vector-fortran.h
REM seed -1710355712 -386397251 1020200394 376349349 -1724837355 1678419236 -1589546386 2101547923 -1521596127 -1414825575 516112203 1469433169 279504924 1629687019 -1933201301 -1323515431 -279762310 -1969777372 -1387582479 98410579 558165272 -1220195395 2025147050 -1314227645 792455449 1288943438 -900959098 901699078 -759434399 132792305 -460982922 1732224119 129778192
REM
CELL 1.54180   50.00000   50.00000   50.00000   90.00000   90.00000   90.00000
LATT -1
SFAC C  
C      1  0.4085800000000  0.4779500000000  0.5101740000000 1.0
C      1  0.4165980000000  0.5014980000000  0.4694260000000 1.0
C      1  0.4240720000000  0.5258720000000  0.4795520000000 1.0
C      1  0.4342190000000  0.5337600000000  0.5250370000000 1.0
C      1  0.4635050000000  0.5643320000000  0.4753420000000 1.0
C      1  0.4654630000000  0.5214120000000  0.5681270000000 1.0
C      1  0.4610100000000  0.4353240000000  0.5280040000000 1.0
C      1  0.4628740000000  0.4708460000000  0.4327450000000 1.0
C      1  0.4859870000000  0.5607550000000  0.4599360000000 1.0
C      1  0.4912950000000  0.5291220000000  0.5604650000000 1.0
C      1  0.4879500000000  0.4394820000000  0.5365140000000 1.0
C      1  0.4876520000000  0.4625500000000  0.4431900000000 1.0
C      1  0.5762870000000  0.5180940000000  0.5103950000000 1.0
C      1  0.5811590000000  0.5010690000000  0.5340950000000 1.0
C      1  0.5751940000000  0.4766230000000  0.5083640000000 1.0
C      1  0.5684170000000  0.5022660000000  0.4870910000000 1.0
C      1  0.5063700000000  0.4482300000000  0.4935910000000 1.0
C      1  0.4817790000000  0.4843480000000  0.4793200000000 1.0
C      1  0.4838950000000  0.5283260000000  0.4826600000000 1.0
C      1  0.4861500000000  0.5070210000000  0.5275020000000 1.0
C      1  0.5648010000000  0.5432980000000  0.5113710000000 1.0
C      1  0.5583830000000  0.4846740000000  0.5437310000000 1.0
C      1  0.5770280000000  0.4604320000000  0.4802190000000 1.0
C      1  0.5514100000000  0.5115700000000  0.4692930000000 1.0
C      1  0.5570290000000  0.4589160000000  0.5298560000000 1.0
C      1  0.5530110000000  0.4670680000000  0.4602240000000 1.0
C      1  0.5395690000000  0.5364520000000  0.4541720000000 1.0
C      1  0.5430000000000  0.5496130000000  0.5321070000000 1.0
C      1  0.4541810000000  0.4953280000000  0.4436170000000 1.0
C      1  0.4523090000000  0.5545300000000  0.5050950000000 1.0
C      1  0.4549430000000  0.4987060000000  0.5547990000000 1.0
C      1  0.4500350000000  0.4490980000000  0.5059900000000 1.0
C      1  0.5088030000000  0.4319920000000  0.5186160000000 1.0
C      1  0.5084170000000  0.4793670000000  0.4385410000000 1.0
C      1  0.5109360000000  0.5738530000000  0.4625990000000 1.0
C      1  0.5159010000000  0.5205690000000  0.5693510000000 1.0
C      1  0.4916000000000  0.5289500000000  0.4511400000000 1.0
C      1  0.4936580000000  0.5384020000000  0.5304080000000 1.0
C      1  0.4913430000000  0.4645970000000  0.5482670000000 1.0
C      1  0.4852600000000  0.4533140000000  0.4726260000000 1.0
C      1  0.4494640000000  0.4932520000000  0.4772210000000 1.0
C      1  0.4550950000000  0.5229420000000  0.4928190000000 1.0
C      1  0.4527860000000  0.5046320000000  0.5213880000000 1.0
C      1  0.4389110000000  0.4777320000000  0.5058850000000 1.0
C      1  0.5098550000000  0.4988160000000  0.4861450000000 1.0
C      1  0.5088850000000  0.5284650000000  0.5028310000000 1.0
C      1  0.5090100000000  0.4855690000000  0.5327440000000 1.0
C      1  0.5195670000000  0.4759900000000  0.5043450000000 1.0
C      1  0.4587700000000  0.4404560000000  0.4815490000000 1.0
C      1  0.4674090000000  0.5176300000000  0.4353180000000 1.0
C      1  0.4754340000000  0.5624260000000  0.5247480000000 1.0
C      1  0.4686230000000  0.4749400000000  0.5613400000000 1.0
C      1  0.5192400000000  0.5092000000000  0.4551570000000 1.0
C      1  0.5333520000000  0.5483360000000  0.4994680000000 1.0
C      1  0.5325400000000  0.4987330000000  0.5492350000000 1.0
C      1  0.5448070000000  0.4574840000000  0.4910580000000 1.0
C      1  0.5370500000000  0.4412290000000  0.5181930000000 1.0
C      1  0.5382890000000  0.4830430000000  0.4446480000000 1.0
C      1  0.5324920000000  0.5576530000000  0.4709110000000 1.0
C      1  0.5383450000000  0.5318600000000  0.5514450000000 1.0
END
