TITL C-1154825-9328-163 8.21174328314532e-05 125000 -307.995634330952 0 0 60 (C1) n - 1
REM
REM in /home/nfs/bkarasulu/CARBON/AIRSS/Generating-Clusters/AIREBO/Higher-Symm/Only-C60
REM
REM
REM
REM
REM
REM ./C.cell (28575a23ae977d3b5fae324c64b13b57)
REM
REM compiler GCC version 9.2.1 20190827 (Red Hat 9.2.1-1)
REM options -cpp -mtune=generic -march=x86-64 -g -O0 -fpre-include=/usr/include/finclude/math-vector-fortran.h
REM seed 1432453954 2039790222 505740776 -2067178507 1116600777 -1500357905 -1839277695 -1160689457 1960353218 -725214043 226650894 -877580099 250166884 -1662786123 754732938 -1831651848 -468023726 -1960904676 2056593332 1905802686 -1402747816 1532440562 -51483673 1872363276 1903363957 1255813605 -1728882809 -1114865737 -1854533423 -1892963845 -958909785 1942516813 1121277772
REM
CELL 1.54180   50.00000   50.00000   50.00000   90.00000   90.00000   90.00000
LATT -1
SFAC C  
C      1  0.5609920000000  0.5585410000000  0.4386430000000 1.0
C      1  0.5581270000000  0.4893390000000  0.5352490000000 1.0
C      1  0.5625280000000  0.4309340000000  0.4468890000000 1.0
C      1  0.5580350000000  0.5169450000000  0.5361630000000 1.0
C      1  0.4646840000000  0.5413450000000  0.4332440000000 1.0
C      1  0.4516450000000  0.4564380000000  0.5624940000000 1.0
C      1  0.4583680000000  0.4671470000000  0.4362590000000 1.0
C      1  0.4518070000000  0.5375570000000  0.5693090000000 1.0
C      1  0.5260810000000  0.5262610000000  0.5309590000000 1.0
C      1  0.5319330000000  0.4733210000000  0.4728660000000 1.0
C      1  0.5260530000000  0.4806400000000  0.5293140000000 1.0
C      1  0.5297280000000  0.5354570000000  0.4791090000000 1.0
C      1  0.5767360000000  0.4704310000000  0.5412980000000 1.0
C      1  0.5467880000000  0.5479370000000  0.4569980000000 1.0
C      1  0.5766510000000  0.5354070000000  0.5435060000000 1.0
C      1  0.5491550000000  0.4494650000000  0.4582360000000 1.0
C      1  0.4464580000000  0.4746480000000  0.4844340000000 1.0
C      1  0.4431350000000  0.5301180000000  0.5202760000000 1.0
C      1  0.4473340000000  0.5240350000000  0.4731780000000 1.0
C      1  0.4430950000000  0.4797090000000  0.5221280000000 1.0
C      1  0.4809020000000  0.4707810000000  0.5611040000000 1.0
C      1  0.4919920000000  0.5265430000000  0.4435730000000 1.0
C      1  0.4818770000000  0.5315220000000  0.5636690000000 1.0
C      1  0.4883710000000  0.4731580000000  0.4439810000000 1.0
C      1  0.4948660000000  0.4681740000000  0.5297450000000 1.0
C      1  0.4995360000000  0.5391810000000  0.4746120000000 1.0
C      1  0.4946860000000  0.5385210000000  0.5301290000000 1.0
C      1  0.5001350000000  0.4635090000000  0.4748620000000 1.0
C      1  0.4404550000000  0.4739890000000  0.4527730000000 1.0
C      1  0.4345490000000  0.5319870000000  0.5515350000000 1.0
C      1  0.4428710000000  0.5396050000000  0.4509940000000 1.0
C      1  0.4348440000000  0.4601810000000  0.5408430000000 1.0
C      1  0.4744130000000  0.4848030000000  0.4709290000000 1.0
C      1  0.4690940000000  0.5185260000000  0.5366600000000 1.0
C      1  0.4764420000000  0.5147320000000  0.4695100000000 1.0
C      1  0.4688610000000  0.4889700000000  0.5366880000000 1.0
C      1  0.5215150000000  0.5027560000000  0.5551080000000 1.0
C      1  0.5320120000000  0.4912050000000  0.4439420000000 1.0
C      1  0.4902720000000  0.5533980000000  0.5027000000000 1.0
C      1  0.4924190000000  0.4507540000000  0.5034110000000 1.0
C      1  0.5467810000000  0.5708230000000  0.5120350000000 1.0
C      1  0.5515220000000  0.4395590000000  0.5084500000000 1.0
C      1  0.4934830000000  0.5018980000000  0.5653000000000 1.0
C      1  0.5054530000000  0.4980620000000  0.4367880000000 1.0
C      1  0.4438860000000  0.5579150000000  0.5066860000000 1.0
C      1  0.4464690000000  0.4459490000000  0.4970560000000 1.0
C      1  0.4683540000000  0.5695010000000  0.5019880000000 1.0
C      1  0.4707720000000  0.4342350000000  0.5024170000000 1.0
C      1  0.5383940000000  0.4618010000000  0.5042050000000 1.0
C      1  0.5365580000000  0.5473620000000  0.5071130000000 1.0
C      1  0.5554500000000  0.4967710000000  0.4311410000000 1.0
C      1  0.5420890000000  0.5021910000000  0.5774160000000 1.0
C      1  0.5914170000000  0.5045880000000  0.4880250000000 1.0
C      1  0.4523250000000  0.5041440000000  0.5003280000000 1.0
C      1  0.5370850000000  0.5047630000000  0.4847410000000 1.0
C      1  0.5665330000000  0.5041920000000  0.4947480000000 1.0
C      1  0.5153110000000  0.5039810000000  0.5076420000000 1.0
C      1  0.4860860000000  0.5027960000000  0.5044720000000 1.0
C      1  0.4185310000000  0.5021910000000  0.4969940000000 1.0
C      1  0.3931850000000  0.5008300000000  0.4943890000000 1.0
END
