TITL C-1154802-8274-408 -0.00314557177393932 125000 -338.587287143035 0 0 60 (C1) n - 1
REM
REM in /home/nfs/bkarasulu/CARBON/AIRSS/Generating-Clusters/AIREBO/Higher-Symm/Only-C60
REM
REM
REM
REM
REM
REM ./C.cell (28575a23ae977d3b5fae324c64b13b57)
REM
REM compiler GCC version 9.2.1 20190827 (Red Hat 9.2.1-1)
REM options -cpp -mtune=generic -march=x86-64 -g -O0 -fpre-include=/usr/include/finclude/math-vector-fortran.h
REM seed 704007233 -886416575 2040888572 1449216747 -81522577 -2036150497 -515396931 1139678369 -37776341 -864235101 -509619175 1848880370 -206080450 1729531033 1737434852 -1865060356 -1471423903 -1826022724 -2059618939 -337646704 743210251 1579997077 -790637794 -97257755 -513123003 1679488964 -1560717118 1228508887 1457300703 26159661 -1646599230 -935498349 -960825284
REM
CELL 1.54180   50.00000   50.00000   50.00000   90.00000   90.00000   90.00000
LATT -1
SFAC C  
C      1  0.5036250000000  0.4680300000000  0.4636570000000 1.0
C      1  0.5038940000000  0.4531300000000  0.5165480000000 1.0
C      1  0.5052070000000  0.5072590000000  0.5471860000000 1.0
C      1  0.4993700000000  0.5585160000000  0.5218460000000 1.0
C      1  0.5087810000000  0.5207840000000  0.4749230000000 1.0
C      1  0.4971380000000  0.4782000000000  0.5335850000000 1.0
C      1  0.4975260000000  0.4451950000000  0.4847420000000 1.0
C      1  0.4958970000000  0.4992090000000  0.4567320000000 1.0
C      1  0.4959400000000  0.5456520000000  0.4925260000000 1.0
C      1  0.5005780000000  0.5392070000000  0.5482880000000 1.0
C      1  0.5553790000000  0.5306610000000  0.4721350000000 1.0
C      1  0.5610030000000  0.4758210000000  0.4400880000000 1.0
C      1  0.5588070000000  0.4392860000000  0.5070870000000 1.0
C      1  0.5549800000000  0.4936700000000  0.5408510000000 1.0
C      1  0.5657760000000  0.5486370000000  0.5279860000000 1.0
C      1  0.4339190000000  0.5420020000000  0.5368320000000 1.0
C      1  0.4458710000000  0.4843220000000  0.5340710000000 1.0
C      1  0.4423000000000  0.4524390000000  0.4843220000000 1.0
C      1  0.4363790000000  0.4854990000000  0.4441320000000 1.0
C      1  0.4461100000000  0.5347790000000  0.4808270000000 1.0
C      1  0.4630210000000  0.5362800000000  0.4526090000000 1.0
C      1  0.4591950000000  0.4648950000000  0.4353830000000 1.0
C      1  0.4554970000000  0.4364320000000  0.5109950000000 1.0
C      1  0.4592640000000  0.4906730000000  0.5646810000000 1.0
C      1  0.4514550000000  0.5679290000000  0.5288710000000 1.0
C      1  0.5483030000000  0.5504670000000  0.5551550000000 1.0
C      1  0.5400460000000  0.4703060000000  0.5598710000000 1.0
C      1  0.5479270000000  0.4352420000000  0.4786620000000 1.0
C      1  0.5369140000000  0.4910950000000  0.4252260000000 1.0
C      1  0.5397850000000  0.5595490000000  0.4702100000000 1.0
C      1  0.4904650000000  0.5399780000000  0.4535420000000 1.0
C      1  0.4863100000000  0.4670150000000  0.4351900000000 1.0
C      1  0.4804710000000  0.4311070000000  0.5180370000000 1.0
C      1  0.4867990000000  0.4904460000000  0.5699740000000 1.0
C      1  0.4761630000000  0.5778980000000  0.5282860000000 1.0
C      1  0.5234400000000  0.5525820000000  0.5645430000000 1.0
C      1  0.5123170000000  0.4713580000000  0.5626160000000 1.0
C      1  0.5209830000000  0.4249630000000  0.4772820000000 1.0
C      1  0.5102700000000  0.4873520000000  0.4293180000000 1.0
C      1  0.5120620000000  0.5597440000000  0.4672970000000 1.0
C      1  0.4712750000000  0.4663260000000  0.4896280000000 1.0
C      1  0.4712870000000  0.4761420000000  0.5178420000000 1.0
C      1  0.4722270000000  0.5312690000000  0.5335730000000 1.0
C      1  0.4679630000000  0.5400910000000  0.5053880000000 1.0
C      1  0.4698690000000  0.4887670000000  0.4690630000000 1.0
C      1  0.5318350000000  0.4601430000000  0.5054240000000 1.0
C      1  0.5315940000000  0.4733460000000  0.4784500000000 1.0
C      1  0.5353590000000  0.5039270000000  0.4749260000000 1.0
C      1  0.5276390000000  0.5414660000000  0.5185840000000 1.0
C      1  0.5327560000000  0.5184170000000  0.5369910000000 1.0
C      1  0.5535400000000  0.4627860000000  0.5300970000000 1.0
C      1  0.5657630000000  0.5224960000000  0.5498260000000 1.0
C      1  0.5521140000000  0.5489490000000  0.4999740000000 1.0
C      1  0.5547840000000  0.5076880000000  0.4483490000000 1.0
C      1  0.5535700000000  0.4584570000000  0.4601740000000 1.0
C      1  0.4354700000000  0.4557410000000  0.4561060000000 1.0
C      1  0.4465890000000  0.5080680000000  0.4619760000000 1.0
C      1  0.4345270000000  0.5526520000000  0.5045170000000 1.0
C      1  0.4477810000000  0.5156660000000  0.5460450000000 1.0
C      1  0.4348910000000  0.4599950000000  0.5169560000000 1.0
END
