TITL C-1154824-75-577 -0.000660542291318579 125000 -324.316064286057 0 0 60 (C1) n - 1
REM
REM in /home/nfs/bkarasulu/CARBON/AIRSS/Generating-Clusters/AIREBO/Higher-Symm/Only-C60
REM
REM
REM
REM
REM
REM ./C.cell (28575a23ae977d3b5fae324c64b13b57)
REM
REM compiler GCC version 9.2.1 20190827 (Red Hat 9.2.1-1)
REM options -cpp -mtune=generic -march=x86-64 -g -O0 -fpre-include=/usr/include/finclude/math-vector-fortran.h
REM seed -1238486690 2145016194 -1798765679 -1783762053 1850322780 429940628 -1790445068 1203852518 -1306146978 -1264418438 -841392422 2147333486 -1707713084 237699975 -627813191 -911803911 -1504267928 2020388762 -994081049 -1791904738 1396825105 270600048 1569271329 -994381205 1874136186 1010789918 1400785746 -1582752652 2048451347 1219077263 -231084313 1424001611 -2095234613
REM
CELL 1.54180   50.00000   50.00000   50.00000   90.00000   90.00000   90.00000
LATT -1
SFAC C  
C      1  0.4542540000000  0.4507160000000  0.5597020000000 1.0
C      1  0.5433160000000  0.4716840000000  0.5459800000000 1.0
C      1  0.4427440000000  0.5208430000000  0.5124640000000 1.0
C      1  0.5646430000000  0.5295210000000  0.5164640000000 1.0
C      1  0.4198520000000  0.4738020000000  0.5099760000000 1.0
C      1  0.5759540000000  0.4714760000000  0.5046310000000 1.0
C      1  0.5100900000000  0.5736110000000  0.5358340000000 1.0
C      1  0.4825180000000  0.5695470000000  0.5359340000000 1.0
C      1  0.4867660000000  0.4903720000000  0.5744300000000 1.0
C      1  0.5226760000000  0.4914720000000  0.5786340000000 1.0
C      1  0.4729040000000  0.5552270000000  0.5136980000000 1.0
C      1  0.5234810000000  0.5611120000000  0.5144340000000 1.0
C      1  0.4465870000000  0.5238020000000  0.4842660000000 1.0
C      1  0.5506390000000  0.5229550000000  0.4879430000000 1.0
C      1  0.5406970000000  0.4618090000000  0.4690960000000 1.0
C      1  0.4560780000000  0.4749370000000  0.4711820000000 1.0
C      1  0.5148590000000  0.5067110000000  0.5511420000000 1.0
C      1  0.4862540000000  0.5074260000000  0.5467690000000 1.0
C      1  0.5165130000000  0.4502140000000  0.5262440000000 1.0
C      1  0.4845440000000  0.4517730000000  0.5343560000000 1.0
C      1  0.5456310000000  0.4906330000000  0.4850750000000 1.0
C      1  0.4428150000000  0.5020970000000  0.4655250000000 1.0
C      1  0.5621200000000  0.5256640000000  0.5480060000000 1.0
C      1  0.4392630000000  0.5171480000000  0.5460970000000 1.0
C      1  0.5313340000000  0.5104770000000  0.5260110000000 1.0
C      1  0.4771400000000  0.5027130000000  0.5200960000000 1.0
C      1  0.4809020000000  0.5397830000000  0.4417150000000 1.0
C      1  0.5123030000000  0.5364280000000  0.4422750000000 1.0
C      1  0.4775230000000  0.4975760000000  0.4462130000000 1.0
C      1  0.5199300000000  0.4927770000000  0.4546750000000 1.0
C      1  0.4899730000000  0.5122440000000  0.4196960000000 1.0
C      1  0.5215430000000  0.5094130000000  0.4271170000000 1.0
C      1  0.5128170000000  0.5632080000000  0.4868700000000 1.0
C      1  0.4845770000000  0.5626010000000  0.4871930000000 1.0
C      1  0.5601210000000  0.4936250000000  0.4547780000000 1.0
C      1  0.4393020000000  0.5100560000000  0.4380190000000 1.0
C      1  0.4600260000000  0.5096200000000  0.5640550000000 1.0
C      1  0.5433830000000  0.5144980000000  0.5639190000000 1.0
C      1  0.5276110000000  0.5414390000000  0.4710500000000 1.0
C      1  0.4691880000000  0.5437370000000  0.4701500000000 1.0
C      1  0.5198440000000  0.4308130000000  0.5046340000000 1.0
C      1  0.4812420000000  0.4411390000000  0.5054820000000 1.0
C      1  0.5111300000000  0.4620960000000  0.4522300000000 1.0
C      1  0.4792870000000  0.4659710000000  0.4480060000000 1.0
C      1  0.5137160000000  0.4671240000000  0.5566480000000 1.0
C      1  0.4834160000000  0.4585150000000  0.5676790000000 1.0
C      1  0.5619000000000  0.4964760000000  0.5208160000000 1.0
C      1  0.4488950000000  0.4890620000000  0.5195950000000 1.0
C      1  0.4429150000000  0.4587720000000  0.4944220000000 1.0
C      1  0.5702420000000  0.4593150000000  0.4832360000000 1.0
C      1  0.5153910000000  0.4446510000000  0.4804270000000 1.0
C      1  0.4827260000000  0.4540560000000  0.4790030000000 1.0
C      1  0.4518410000000  0.4575110000000  0.5270260000000 1.0
C      1  0.5371980000000  0.4741940000000  0.5137840000000 1.0
C      1  0.4843020000000  0.5256210000000  0.5023830000000 1.0
C      1  0.5168200000000  0.5293810000000  0.5076220000000 1.0
C      1  0.5131850000000  0.5127060000000  0.4781700000000 1.0
C      1  0.4827370000000  0.5128070000000  0.4711730000000 1.0
C      1  0.5519330000000  0.5008320000000  0.4321650000000 1.0
C      1  0.4584080000000  0.5242100000000  0.4237850000000 1.0
END
