TITL C-1154823-9327-322 -0.000269841648306735 125000 -341.332629282012 0 0 60 (C1) n - 1
REM
REM in /home/nfs/bkarasulu/CARBON/AIRSS/Generating-Clusters/AIREBO/Higher-Symm/Only-C60
REM
REM
REM
REM
REM
REM ./C.cell (28575a23ae977d3b5fae324c64b13b57)
REM
REM compiler GCC version 9.2.1 20190827 (Red Hat 9.2.1-1)
REM options -cpp -mtune=generic -march=x86-64 -g -O0 -fpre-include=/usr/include/finclude/math-vector-fortran.h
REM seed 1921572893 -295587418 -1190221848 1322195210 -773095886 1922499501 1923534321 -337829914 -1757797680 1671416582 122757821 -793930330 -1458151572 -62807724 -357090168 -1960571456 1289038628 -1525118180 -318781339 -1039783968 1574772874 -685578310 -1076012274 1338866180 -1955020642 -820342246 312622660 -659982437 1001651215 -1431136595 1402392131 212524454 -1397628040
REM
CELL 1.54180   50.00000   50.00000   50.00000   90.00000   90.00000   90.00000
LATT -1
SFAC C  
C      1  0.4788550000000  0.4692300000000  0.5549360000000 1.0
C      1  0.5528770000000  0.5312570000000  0.5175540000000 1.0
C      1  0.5203830000000  0.4668770000000  0.4459910000000 1.0
C      1  0.4467480000000  0.5322090000000  0.4823070000000 1.0
C      1  0.5225410000000  0.5328670000000  0.4787280000000 1.0
C      1  0.4907170000000  0.4723540000000  0.4814570000000 1.0
C      1  0.4775580000000  0.5306740000000  0.5217030000000 1.0
C      1  0.5118870000000  0.4639940000000  0.5159000000000 1.0
C      1  0.4701610000000  0.4762890000000  0.5165930000000 1.0
C      1  0.5158320000000  0.5215710000000  0.5289110000000 1.0
C      1  0.5303430000000  0.4773510000000  0.4831680000000 1.0
C      1  0.4839080000000  0.5222510000000  0.4716330000000 1.0
C      1  0.5089850000000  0.5357170000000  0.6036120000000 1.0
C      1  0.6053310000000  0.4681190000000  0.4938060000000 1.0
C      1  0.4926210000000  0.5350830000000  0.3965580000000 1.0
C      1  0.3957460000000  0.4688170000000  0.5023090000000 1.0
C      1  0.5712710000000  0.5194150000000  0.4694400000000 1.0
C      1  0.4721940000000  0.4815280000000  0.4306530000000 1.0
C      1  0.4277550000000  0.5197010000000  0.5292010000000 1.0
C      1  0.5277160000000  0.4816150000000  0.5689840000000 1.0
C      1  0.5412960000000  0.4588400000000  0.5252680000000 1.0
C      1  0.5305930000000  0.5419660000000  0.4518740000000 1.0
C      1  0.4604360000000  0.4607870000000  0.4733710000000 1.0
C      1  0.4689230000000  0.5405120000000  0.5482530000000 1.0
C      1  0.4209190000000  0.4739610000000  0.5099720000000 1.0
C      1  0.5130240000000  0.5274630000000  0.5784860000000 1.0
C      1  0.5799420000000  0.4742990000000  0.4879240000000 1.0
C      1  0.4876470000000  0.5274560000000  0.4217150000000 1.0
C      1  0.5114170000000  0.5711980000000  0.5062180000000 1.0
C      1  0.5063350000000  0.4257690000000  0.4907780000000 1.0
C      1  0.4879260000000  0.5712400000000  0.4965770000000 1.0
C      1  0.4944680000000  0.4255510000000  0.5129870000000 1.0
C      1  0.5476540000000  0.4787670000000  0.4528350000000 1.0
C      1  0.4535470000000  0.5216450000000  0.4546050000000 1.0
C      1  0.4516950000000  0.4799400000000  0.5461320000000 1.0
C      1  0.5470650000000  0.5209410000000  0.5452040000000 1.0
C      1  0.5261370000000  0.5443940000000  0.5060410000000 1.0
C      1  0.5114040000000  0.4505830000000  0.4741410000000 1.0
C      1  0.4736340000000  0.5442570000000  0.4952050000000 1.0
C      1  0.4881120000000  0.4510760000000  0.5306830000000 1.0
C      1  0.4986070000000  0.5345430000000  0.5553180000000 1.0
C      1  0.5566960000000  0.4657050000000  0.5012250000000 1.0
C      1  0.5010350000000  0.5353130000000  0.4452360000000 1.0
C      1  0.4446320000000  0.4635080000000  0.4981270000000 1.0
C      1  0.5439300000000  0.4640860000000  0.5531350000000 1.0
C      1  0.5586170000000  0.5364580000000  0.4496820000000 1.0
C      1  0.4552010000000  0.4641600000000  0.4457080000000 1.0
C      1  0.4406230000000  0.5360860000000  0.5494310000000 1.0
C      1  0.5128450000000  0.5051340000000  0.4767170000000 1.0
C      1  0.4711960000000  0.4957240000000  0.4886910000000 1.0
C      1  0.4878040000000  0.5028900000000  0.5242670000000 1.0
C      1  0.5248220000000  0.4929620000000  0.5128820000000 1.0
C      1  0.5341680000000  0.5095190000000  0.5694980000000 1.0
C      1  0.5714840000000  0.4910220000000  0.4654120000000 1.0
C      1  0.4662730000000  0.5096480000000  0.4303540000000 1.0
C      1  0.4283270000000  0.4912470000000  0.5324110000000 1.0
C      1  0.5719130000000  0.5285060000000  0.4967430000000 1.0
C      1  0.4991740000000  0.4723520000000  0.4284320000000 1.0
C      1  0.4267670000000  0.5296580000000  0.5022530000000 1.0
C      1  0.5002830000000  0.4739180000000  0.5727650000000 1.0
END
