TITL C-1154808-8168-223 0.00096402006326664 125000 -314.336212429704 0 0 60 (C1) n - 1
REM
REM in /home/nfs/bkarasulu/CARBON/AIRSS/Generating-Clusters/AIREBO/Higher-Symm/Only-C60
REM
REM
REM
REM
REM
REM ./C.cell (28575a23ae977d3b5fae324c64b13b57)
REM
REM compiler GCC version 9.2.1 20190827 (Red Hat 9.2.1-1)
REM options -cpp -mtune=generic -march=x86-64 -g -O0 -fpre-include=/usr/include/finclude/math-vector-fortran.h
REM seed 157545252 -1762362627 1922925218 -434917139 2130690889 -2134918043 -1348646324 807967832 757178447 -886284083 -281239535 -1905858081 578075606 -370450537 899825537 -242928413 1865464091 -1237357169 -1260347773 -1158033208 -586091486 152772556 -1748771147 -2072851605 1416493768 1264488233 1446092400 -585426996 -39939231 -1043685289 125132553 1999554282 -2106490470
REM
CELL 1.54180   50.00000   50.00000   50.00000   90.00000   90.00000   90.00000
LATT -1
SFAC C  
C      1  0.5177220000000  0.4378600000000  0.4553040000000 1.0
C      1  0.4750560000000  0.4397020000000  0.5374690000000 1.0
C      1  0.4820210000000  0.5641790000000  0.4565130000000 1.0
C      1  0.5222210000000  0.5613990000000  0.5389580000000 1.0
C      1  0.4500120000000  0.4370620000000  0.5172080000000 1.0
C      1  0.5395990000000  0.4410580000000  0.4753560000000 1.0
C      1  0.4608920000000  0.5603590000000  0.4770300000000 1.0
C      1  0.5426680000000  0.5653280000000  0.5177680000000 1.0
C      1  0.4411900000000  0.4988150000000  0.4824140000000 1.0
C      1  0.5584180000000  0.5021830000000  0.5201230000000 1.0
C      1  0.5610240000000  0.5016050000000  0.4837220000000 1.0
C      1  0.4394770000000  0.4999720000000  0.5188620000000 1.0
C      1  0.4808220000000  0.5007700000000  0.4423330000000 1.0
C      1  0.5184310000000  0.5001300000000  0.5601060000000 1.0
C      1  0.4818510000000  0.4994470000000  0.5601360000000 1.0
C      1  0.5172680000000  0.5006830000000  0.4399760000000 1.0
C      1  0.4937980000000  0.4331500000000  0.4698800000000 1.0
C      1  0.5019370000000  0.4305990000000  0.5215830000000 1.0
C      1  0.5060740000000  0.5674690000000  0.4702810000000 1.0
C      1  0.4968000000000  0.5666980000000  0.5266810000000 1.0
C      1  0.4765180000000  0.4300710000000  0.4990060000000 1.0
C      1  0.5287630000000  0.4338530000000  0.5009360000000 1.0
C      1  0.4729610000000  0.5662340000000  0.5024400000000 1.0
C      1  0.5283200000000  0.5687790000000  0.4938950000000 1.0
C      1  0.4697550000000  0.5472430000000  0.5486340000000 1.0
C      1  0.5324350000000  0.5457340000000  0.4496920000000 1.0
C      1  0.5303220000000  0.4509900000000  0.5480350000000 1.0
C      1  0.4677200000000  0.4572560000000  0.4516490000000 1.0
C      1  0.5497990000000  0.5470080000000  0.4682260000000 1.0
C      1  0.4517940000000  0.5475440000000  0.5306230000000 1.0
C      1  0.5484650000000  0.4523680000000  0.5302370000000 1.0
C      1  0.4531110000000  0.4519480000000  0.4718180000000 1.0
C      1  0.5478320000000  0.4961630000000  0.5675280000000 1.0
C      1  0.4522360000000  0.4932800000000  0.4349040000000 1.0
C      1  0.4523580000000  0.5030710000000  0.5673000000000 1.0
C      1  0.5479960000000  0.5019400000000  0.4352150000000 1.0
C      1  0.5658880000000  0.4969280000000  0.5494190000000 1.0
C      1  0.4348800000000  0.4908260000000  0.4535420000000 1.0
C      1  0.5658540000000  0.5027130000000  0.4530920000000 1.0
C      1  0.4341850000000  0.5026000000000  0.5494810000000 1.0
C      1  0.4757790000000  0.5309840000000  0.4544840000000 1.0
C      1  0.5217850000000  0.5303570000000  0.5476010000000 1.0
C      1  0.5249830000000  0.4710280000000  0.4534930000000 1.0
C      1  0.4777040000000  0.4697990000000  0.5473110000000 1.0
C      1  0.4528490000000  0.5291290000000  0.4782960000000 1.0
C      1  0.5454510000000  0.5323230000000  0.5245350000000 1.0
C      1  0.4514950000000  0.4697910000000  0.5265250000000 1.0
C      1  0.5478050000000  0.4720960000000  0.4775980000000 1.0
C      1  0.4570640000000  0.4733990000000  0.4953210000000 1.0
C      1  0.5436470000000  0.4762560000000  0.5088470000000 1.0
C      1  0.5437010000000  0.5268520000000  0.4926740000000 1.0
C      1  0.4564670000000  0.5243580000000  0.5088840000000 1.0
C      1  0.4936550000000  0.4755250000000  0.4593300000000 1.0
C      1  0.5084400000000  0.4742940000000  0.5446530000000 1.0
C      1  0.4915410000000  0.5241720000000  0.5432740000000 1.0
C      1  0.5077310000000  0.5261130000000  0.4569050000000 1.0
C      1  0.5133050000000  0.4616070000000  0.5134680000000 1.0
C      1  0.5123260000000  0.5391170000000  0.4879960000000 1.0
C      1  0.4878050000000  0.5371930000000  0.5120760000000 1.0
C      1  0.4879960000000  0.4605940000000  0.4893550000000 1.0
END
