TITL C-1154804-8633-304 -0.000678192224999723 125000 -330.637007835417 0 0 60 (C1) n - 1
REM
REM in /home/nfs/bkarasulu/CARBON/AIRSS/Generating-Clusters/AIREBO/Higher-Symm/Only-C60
REM
REM
REM
REM
REM
REM ./C.cell (28575a23ae977d3b5fae324c64b13b57)
REM
REM compiler GCC version 9.2.1 20190827 (Red Hat 9.2.1-1)
REM options -cpp -mtune=generic -march=x86-64 -g -O0 -fpre-include=/usr/include/finclude/math-vector-fortran.h
REM seed -1627087183 1872306036 -1353616076 201568836 -1653955204 1489839284 -2141225221 -226798877 -1323102917 -542426962 1084480291 622548187 1099114047 1635008110 -223749354 -679682892 -548519271 1899534286 2052964849 -414083103 28632828 453385008 1773220885 -690763960 -1175803850 287627863 326486816 -865914448 949075993 80332079 1039739911 -155110556 -1680245956
REM
CELL 1.54180   50.00000   50.00000   50.00000   90.00000   90.00000   90.00000
LATT -1
SFAC C  
C      1  0.5558340000000  0.5195530000000  0.4665210000000 1.0
C      1  0.4340190000000  0.5117700000000  0.4659050000000 1.0
C      1  0.4872670000000  0.4627650000000  0.5681180000000 1.0
C      1  0.5116770000000  0.4609880000000  0.5561740000000 1.0
C      1  0.5240230000000  0.4420240000000  0.4953550000000 1.0
C      1  0.4698050000000  0.4460470000000  0.4973540000000 1.0
C      1  0.4310040000000  0.4845960000000  0.5053100000000 1.0
C      1  0.5838990000000  0.4954080000000  0.5135470000000 1.0
C      1  0.4688830000000  0.5453890000000  0.5189470000000 1.0
C      1  0.5293110000000  0.5439990000000  0.5178050000000 1.0
C      1  0.5330020000000  0.4762570000000  0.4457910000000 1.0
C      1  0.4721430000000  0.4804840000000  0.4400910000000 1.0
C      1  0.5508120000000  0.4866800000000  0.4739740000000 1.0
C      1  0.4576880000000  0.4896970000000  0.4695250000000 1.0
C      1  0.5686610000000  0.5389000000000  0.4905110000000 1.0
C      1  0.4304480000000  0.5364140000000  0.4893290000000 1.0
C      1  0.5003470000000  0.5139560000000  0.5899440000000 1.0
C      1  0.5225360000000  0.5009980000000  0.5891780000000 1.0
C      1  0.5618010000000  0.5090350000000  0.5247880000000 1.0
C      1  0.4364060000000  0.5070030000000  0.5251960000000 1.0
C      1  0.4816050000000  0.5105530000000  0.5659820000000 1.0
C      1  0.5156180000000  0.5165420000000  0.5530760000000 1.0
C      1  0.5179910000000  0.4396530000000  0.4409790000000 1.0
C      1  0.4858290000000  0.4343950000000  0.4439310000000 1.0
C      1  0.5121540000000  0.4888590000000  0.5078060000000 1.0
C      1  0.4796820000000  0.4912330000000  0.5179370000000 1.0
C      1  0.5116800000000  0.5717860000000  0.4456160000000 1.0
C      1  0.4864610000000  0.5743550000000  0.4474930000000 1.0
C      1  0.4441780000000  0.5434020000000  0.4618650000000 1.0
C      1  0.5575930000000  0.5539860000000  0.4650720000000 1.0
C      1  0.5572610000000  0.5344240000000  0.5150560000000 1.0
C      1  0.4415470000000  0.5317850000000  0.5141210000000 1.0
C      1  0.5222630000000  0.5184500000000  0.4687510000000 1.0
C      1  0.4924910000000  0.5295150000000  0.4589690000000 1.0
C      1  0.4702520000000  0.4836180000000  0.5633630000000 1.0
C      1  0.5289950000000  0.4866430000000  0.5607490000000 1.0
C      1  0.4538340000000  0.4816150000000  0.5378620000000 1.0
C      1  0.5378040000000  0.4919750000000  0.5301350000000 1.0
C      1  0.4597820000000  0.4744980000000  0.4987960000000 1.0
C      1  0.5509640000000  0.4584690000000  0.4929670000000 1.0
C      1  0.5427880000000  0.4626330000000  0.5224060000000 1.0
C      1  0.4373730000000  0.4587280000000  0.5390170000000 1.0
C      1  0.5115580000000  0.5491870000000  0.4924820000000 1.0
C      1  0.4851490000000  0.5494240000000  0.4928370000000 1.0
C      1  0.4872370000000  0.5588760000000  0.5427480000000 1.0
C      1  0.5129900000000  0.5485460000000  0.5457770000000 1.0
C      1  0.4883140000000  0.4988720000000  0.4610510000000 1.0
C      1  0.5168150000000  0.4853430000000  0.4743010000000 1.0
C      1  0.5156090000000  0.4446370000000  0.5283780000000 1.0
C      1  0.4853000000000  0.4368140000000  0.5179760000000 1.0
C      1  0.4799310000000  0.5202240000000  0.5357200000000 1.0
C      1  0.5090870000000  0.5179610000000  0.5205700000000 1.0
C      1  0.5819480000000  0.4859340000000  0.4876220000000 1.0
C      1  0.4166510000000  0.4909060000000  0.4828570000000 1.0
C      1  0.5091310000000  0.4523810000000  0.4708680000000 1.0
C      1  0.4796520000000  0.4400710000000  0.4727450000000 1.0
C      1  0.4719450000000  0.5525090000000  0.4642970000000 1.0
C      1  0.5262110000000  0.5519050000000  0.4641290000000 1.0
C      1  0.4869660000000  0.4606920000000  0.4278380000000 1.0
C      1  0.5177980000000  0.4666410000000  0.4224950000000 1.0
END
