TITL C-1154802-8274-317 -9.59985372381618e-05 125000 -340.642668723384 0 0 60 (C1) n - 1
REM
REM in /home/nfs/bkarasulu/CARBON/AIRSS/Generating-Clusters/AIREBO/Higher-Symm/Only-C60
REM
REM
REM
REM
REM
REM ./C.cell (28575a23ae977d3b5fae324c64b13b57)
REM
REM compiler GCC version 9.2.1 20190827 (Red Hat 9.2.1-1)
REM options -cpp -mtune=generic -march=x86-64 -g -O0 -fpre-include=/usr/include/finclude/math-vector-fortran.h
REM seed 1253505627 -1816003531 -430184438 -1011769547 -776112081 186816223 88772617 386313794 444122013 -555368195 1699008042 -45210929 1003651031 1625004143 -1085663668 -304368039 -744214126 1239449954 2091551855 -120262543 1944566216 1955153698 -1893752815 -391596679 283319364 461479195 -1208569368 623380770 1618813823 -771309615 -844715139 -917390635 -1556331825
REM
CELL 1.54180   50.00000   50.00000   50.00000   90.00000   90.00000   90.00000
LATT -1
SFAC C  
C      1  0.4766080000000  0.4514110000000  0.4576680000000 1.0
C      1  0.4747760000000  0.4585750000000  0.5500250000000 1.0
C      1  0.4762490000000  0.5491450000000  0.5432140000000 1.0
C      1  0.4761870000000  0.5430530000000  0.4512550000000 1.0
C      1  0.5224530000000  0.4492300000000  0.4586090000000 1.0
C      1  0.5206240000000  0.4573780000000  0.5488760000000 1.0
C      1  0.5220550000000  0.5500500000000  0.5406720000000 1.0
C      1  0.5219840000000  0.5410460000000  0.4494740000000 1.0
C      1  0.5342680000000  0.5128180000000  0.4487720000000 1.0
C      1  0.5358610000000  0.4465510000000  0.4860650000000 1.0
C      1  0.5327340000000  0.4856660000000  0.5499590000000 1.0
C      1  0.5343640000000  0.5524720000000  0.5127040000000 1.0
C      1  0.4631890000000  0.5154710000000  0.4489540000000 1.0
C      1  0.4643470000000  0.4496790000000  0.4857480000000 1.0
C      1  0.4617020000000  0.4860320000000  0.5523030000000 1.0
C      1  0.4630930000000  0.5511700000000  0.5156300000000 1.0
C      1  0.4344810000000  0.4899510000000  0.5359460000000 1.0
C      1  0.4354570000000  0.5356590000000  0.5106930000000 1.0
C      1  0.4357030000000  0.5106750000000  0.4646680000000 1.0
C      1  0.4358610000000  0.4645600000000  0.4898760000000 1.0
C      1  0.5614120000000  0.4903170000000  0.5354860000000 1.0
C      1  0.5626590000000  0.5363220000000  0.5091540000000 1.0
C      1  0.5626410000000  0.5090940000000  0.4639020000000 1.0
C      1  0.5631160000000  0.4634630000000  0.4903300000000 1.0
C      1  0.4712770000000  0.5230480000000  0.4983430000000 1.0
C      1  0.4716350000000  0.4985820000000  0.4771560000000 1.0
C      1  0.4710610000000  0.4785500000000  0.5024110000000 1.0
C      1  0.4703390000000  0.5027470000000  0.5239640000000 1.0
C      1  0.5270490000000  0.5232470000000  0.4969400000000 1.0
C      1  0.5273390000000  0.4971510000000  0.4781510000000 1.0
C      1  0.5268140000000  0.4752020000000  0.5019820000000 1.0
C      1  0.5261380000000  0.5016300000000  0.5206670000000 1.0
C      1  0.4274890000000  0.5166810000000  0.5299910000000 1.0
C      1  0.4284670000000  0.5300450000000  0.4838910000000 1.0
C      1  0.4287650000000  0.4838360000000  0.4703880000000 1.0
C      1  0.4280220000000  0.4704010000000  0.5165050000000 1.0
C      1  0.5688210000000  0.5170290000000  0.5291290000000 1.0
C      1  0.5698700000000  0.5292500000000  0.4825680000000 1.0
C      1  0.5700550000000  0.4824920000000  0.4705060000000 1.0
C      1  0.5694660000000  0.4703720000000  0.5170650000000 1.0
C      1  0.4833710000000  0.5482110000000  0.4814430000000 1.0
C      1  0.4836760000000  0.4814630000000  0.4524160000000 1.0
C      1  0.4817430000000  0.4547410000000  0.5210580000000 1.0
C      1  0.4833020000000  0.5192390000000  0.5482350000000 1.0
C      1  0.5155810000000  0.5459730000000  0.4783430000000 1.0
C      1  0.5158210000000  0.4782580000000  0.4549220000000 1.0
C      1  0.5139030000000  0.4512400000000  0.5189780000000 1.0
C      1  0.5153220000000  0.5208850000000  0.5443780000000 1.0
C      1  0.5112050000000  0.4979210000000  0.4286040000000 1.0
C      1  0.5177650000000  0.4235360000000  0.5009040000000 1.0
C      1  0.5109740000000  0.5014240000000  0.5708740000000 1.0
C      1  0.5108090000000  0.5721780000000  0.4978910000000 1.0
C      1  0.4795530000000  0.5001120000000  0.4251560000000 1.0
C      1  0.4861820000000  0.4286010000000  0.5012260000000 1.0
C      1  0.4793600000000  0.5008350000000  0.5756560000000 1.0
C      1  0.4791160000000  0.5752500000000  0.5003380000000 1.0
C      1  0.4979210000000  0.4527970000000  0.5642370000000 1.0
C      1  0.4992210000000  0.5642930000000  0.5473710000000 1.0
C      1  0.4988000000000  0.5473310000000  0.4356330000000 1.0
C      1  0.4989410000000  0.4356590000000  0.4526970000000 1.0
END
