TITL C-1154823-9327-37 -0.000191160248195299 125000 -343.05421640232 0 0 60 (C1) n - 1
REM
REM in /home/nfs/bkarasulu/CARBON/AIRSS/Generating-Clusters/AIREBO/Higher-Symm/Only-C60
REM
REM
REM
REM
REM
REM ./C.cell (28575a23ae977d3b5fae324c64b13b57)
REM
REM compiler GCC version 9.2.1 20190827 (Red Hat 9.2.1-1)
REM options -cpp -mtune=generic -march=x86-64 -g -O0 -fpre-include=/usr/include/finclude/math-vector-fortran.h
REM seed -1024664410 -399566451 658575641 757593092 1761690850 1313939240 261374991 -2013005960 -624899048 -573450190 -1841895708 1441224116 -717760123 1572361159 1602806237 -396828166 41247538 1031309910 1433273046 -1096957638 -1106116528 1242357223 877477727 1418268231 -314141208 454038177 -1957030983 -236296886 1437850614 1019564763 543174091 1897113436 595972152
REM
CELL 1.54180   50.00000   50.00000   50.00000   90.00000   90.00000   90.00000
LATT -1
SFAC C  
C      1  0.4895640000000  0.5114720000000  0.4403400000000 1.0
C      1  0.4927350000000  0.5484820000000  0.5470630000000 1.0
C      1  0.4854140000000  0.4313020000000  0.5141010000000 1.0
C      1  0.4577850000000  0.4408080000000  0.5088480000000 1.0
C      1  0.4619600000000  0.5162950000000  0.4425800000000 1.0
C      1  0.4642020000000  0.5469820000000  0.5477640000000 1.0
C      1  0.5470700000000  0.4675260000000  0.4457150000000 1.0
C      1  0.5284370000000  0.5640940000000  0.4809650000000 1.0
C      1  0.5237230000000  0.4817060000000  0.5573380000000 1.0
C      1  0.5437070000000  0.5325530000000  0.5434720000000 1.0
C      1  0.5372790000000  0.4445840000000  0.5037480000000 1.0
C      1  0.5369700000000  0.5215900000000  0.4479550000000 1.0
C      1  0.5037010000000  0.5429780000000  0.5194930000000 1.0
C      1  0.4986250000000  0.4537530000000  0.5287590000000 1.0
C      1  0.4967510000000  0.4841700000000  0.4541340000000 1.0
C      1  0.5173570000000  0.5303560000000  0.5548160000000 1.0
C      1  0.5113520000000  0.4363380000000  0.4951590000000 1.0
C      1  0.5096940000000  0.5303750000000  0.4459470000000 1.0
C      1  0.4720910000000  0.4699080000000  0.4844520000000 1.0
C      1  0.4752100000000  0.5308570000000  0.4884140000000 1.0
C      1  0.4797880000000  0.5014950000000  0.5395560000000 1.0
C      1  0.5010640000000  0.4567780000000  0.4738090000000 1.0
C      1  0.5013900000000  0.5453930000000  0.4723060000000 1.0
C      1  0.5076900000000  0.5038950000000  0.5546540000000 1.0
C      1  0.4308900000000  0.4686730000000  0.5476070000000 1.0
C      1  0.4299290000000  0.4707260000000  0.4467770000000 1.0
C      1  0.4280750000000  0.5650050000000  0.5020190000000 1.0
C      1  0.5224130000000  0.4678520000000  0.4420540000000 1.0
C      1  0.5113820000000  0.5656680000000  0.5051650000000 1.0
C      1  0.5101650000000  0.4575240000000  0.5536120000000 1.0
C      1  0.5240860000000  0.5236260000000  0.4856210000000 1.0
C      1  0.5290860000000  0.5040970000000  0.5197380000000 1.0
C      1  0.5225560000000  0.4782830000000  0.4882600000000 1.0
C      1  0.5751190000000  0.5076240000000  0.4797080000000 1.0
C      1  0.5806970000000  0.5062510000000  0.5086460000000 1.0
C      1  0.5738220000000  0.4771510000000  0.5185020000000 1.0
C      1  0.5611680000000  0.5295340000000  0.4668220000000 1.0
C      1  0.5644750000000  0.5109680000000  0.5369550000000 1.0
C      1  0.5642140000000  0.4601450000000  0.4970640000000 1.0
C      1  0.4283130000000  0.5510760000000  0.4779460000000 1.0
C      1  0.4311520000000  0.4950400000000  0.5566140000000 1.0
C      1  0.4364530000000  0.4459200000000  0.4570830000000 1.0
C      1  0.5341810000000  0.4730160000000  0.5197790000000 1.0
C      1  0.5376950000000  0.4974400000000  0.4704870000000 1.0
C      1  0.5440720000000  0.5333510000000  0.5110340000000 1.0
C      1  0.4961180000000  0.4764190000000  0.5080010000000 1.0
C      1  0.4957070000000  0.5065650000000  0.4794450000000 1.0
C      1  0.4985400000000  0.5099480000000  0.5131670000000 1.0
C      1  0.4445710000000  0.4933920000000  0.4531540000000 1.0
C      1  0.4444590000000  0.5552770000000  0.5227200000000 1.0
C      1  0.4471470000000  0.4632610000000  0.5249340000000 1.0
C      1  0.4481570000000  0.5283460000000  0.4714110000000 1.0
C      1  0.4514310000000  0.5155040000000  0.5455660000000 1.0
C      1  0.4518230000000  0.4447820000000  0.4800300000000 1.0
C      1  0.5534780000000  0.4814940000000  0.5455350000000 1.0
C      1  0.5641500000000  0.4774930000000  0.4711870000000 1.0
C      1  0.5533920000000  0.5504770000000  0.4852340000000 1.0
C      1  0.4527800000000  0.4978670000000  0.4858110000000 1.0
C      1  0.4560310000000  0.5277630000000  0.5141810000000 1.0
C      1  0.4587140000000  0.4887530000000  0.5167430000000 1.0
END
