TITL C-1154829-9094-13 0.00263331806019434 125000 -332.495790197414 0 0 60 (C1) n - 1
REM
REM in /home/nfs/bkarasulu/CARBON/AIRSS/Generating-Clusters/AIREBO/Higher-Symm/Only-C60
REM
REM
REM
REM
REM
REM ./C.cell (28575a23ae977d3b5fae324c64b13b57)
REM
REM compiler GCC version 9.2.1 20190827 (Red Hat 9.2.1-1)
REM options -cpp -mtune=generic -march=x86-64 -g -O0 -fpre-include=/usr/include/finclude/math-vector-fortran.h
REM seed 1787993292 -848802028 -312736551 -544040348 1311966243 -1995779551 1605149861 1665656164 1507158588 -1926130690 -2007052620 -1789300888 594453155 -2045807984 2024457868 -1269692775 -1727769978 -2074639094 -725611503 -2046911509 851527393 -778973849 -1703368082 -346639488 1462266855 353389412 1567110284 320371355 -1823113056 1321954814 -1731145587 485332378 -2121852981
REM
CELL 1.54180   50.00000   50.00000   50.00000   90.00000   90.00000   90.00000
LATT -1
SFAC C  
C      1  0.5436250000000  0.4728410000000  0.5650110000000 1.0
C      1  0.4837620000000  0.5571680000000  0.5458320000000 1.0
C      1  0.5600850000000  0.5404940000000  0.4760530000000 1.0
C      1  0.5438440000000  0.5221510000000  0.4343810000000 1.0
C      1  0.4695740000000  0.4801310000000  0.4426720000000 1.0
C      1  0.4550110000000  0.5211160000000  0.5658420000000 1.0
C      1  0.4761510000000  0.4362360000000  0.4552940000000 1.0
C      1  0.5172110000000  0.5540680000000  0.4640210000000 1.0
C      1  0.5271570000000  0.4343400000000  0.5428410000000 1.0
C      1  0.5637030000000  0.4578940000000  0.5245790000000 1.0
C      1  0.4395360000000  0.5451790000000  0.5284680000000 1.0
C      1  0.4469780000000  0.4636620000000  0.4821780000000 1.0
C      1  0.5361890000000  0.5531570000000  0.4835470000000 1.0
C      1  0.4805760000000  0.5337970000000  0.5649940000000 1.0
C      1  0.5584040000000  0.4804540000000  0.5415710000000 1.0
C      1  0.5393090000000  0.4438550000000  0.5186980000000 1.0
C      1  0.4549320000000  0.4379770000000  0.4734550000000 1.0
C      1  0.4649120000000  0.5571400000000  0.5224370000000 1.0
C      1  0.4877660000000  0.4604050000000  0.4465350000000 1.0
C      1  0.5209320000000  0.4562880000000  0.5600130000000 1.0
C      1  0.5207780000000  0.5392670000000  0.4379180000000 1.0
C      1  0.5567890000000  0.5177690000000  0.4601470000000 1.0
C      1  0.4427450000000  0.5190050000000  0.5399760000000 1.0
C      1  0.4488860000000  0.4832170000000  0.4631640000000 1.0
C      1  0.4583420000000  0.5001660000000  0.5203350000000 1.0
C      1  0.4942320000000  0.5238900000000  0.4520430000000 1.0
C      1  0.5191830000000  0.4619910000000  0.5034720000000 1.0
C      1  0.4468500000000  0.5132470000000  0.4701170000000 1.0
C      1  0.5463070000000  0.4915670000000  0.4728560000000 1.0
C      1  0.5448380000000  0.5030740000000  0.5258280000000 1.0
C      1  0.4938450000000  0.4694590000000  0.5539970000000 1.0
C      1  0.5002030000000  0.5210880000000  0.5424470000000 1.0
C      1  0.5176610000000  0.4698920000000  0.4496370000000 1.0
C      1  0.5301190000000  0.5540570000000  0.5133740000000 1.0
C      1  0.4680500000000  0.4504290000000  0.5134200000000 1.0
C      1  0.4783360000000  0.5429190000000  0.4975080000000 1.0
C      1  0.4628080000000  0.5170720000000  0.4951590000000 1.0
C      1  0.4939120000000  0.4628590000000  0.5206870000000 1.0
C      1  0.5205620000000  0.5024070000000  0.4534170000000 1.0
C      1  0.4451530000000  0.4725990000000  0.5127480000000 1.0
C      1  0.5339310000000  0.4893230000000  0.5005720000000 1.0
C      1  0.5517860000000  0.5339340000000  0.5234040000000 1.0
C      1  0.4868930000000  0.5516420000000  0.4705160000000 1.0
C      1  0.5022760000000  0.5435450000000  0.5191630000000 1.0
C      1  0.5137430000000  0.4513510000000  0.4755730000000 1.0
C      1  0.5284850000000  0.5157750000000  0.5502120000000 1.0
C      1  0.4679580000000  0.5121100000000  0.4434150000000 1.0
C      1  0.4864110000000  0.4956060000000  0.5341960000000 1.0
C      1  0.5105040000000  0.4253970000000  0.4725000000000 1.0
C      1  0.4635760000000  0.4249530000000  0.5102510000000 1.0
C      1  0.4229920000000  0.5272110000000  0.4677460000000 1.0
C      1  0.5361220000000  0.4599980000000  0.4308450000000 1.0
C      1  0.4692230000000  0.5723820000000  0.4572130000000 1.0
C      1  0.5336560000000  0.5799890000000  0.5243120000000 1.0
C      1  0.4212640000000  0.4672820000000  0.5262430000000 1.0
C      1  0.5768870000000  0.5415810000000  0.5248750000000 1.0
C      1  0.5642860000000  0.4706940000000  0.4667920000000 1.0
C      1  0.5396850000000  0.5225970000000  0.5727450000000 1.0
C      1  0.4751440000000  0.4656150000000  0.5743140000000 1.0
C      1  0.4559270000000  0.5246870000000  0.4184400000000 1.0
END
