TITL C-1154804-8633-300 0.00320563950509524 125000 -311.948993988039 0 0 60 (C1) n - 1
REM
REM in /home/nfs/bkarasulu/CARBON/AIRSS/Generating-Clusters/AIREBO/Higher-Symm/Only-C60
REM
REM
REM
REM
REM
REM ./C.cell (28575a23ae977d3b5fae324c64b13b57)
REM
REM compiler GCC version 9.2.1 20190827 (Red Hat 9.2.1-1)
REM options -cpp -mtune=generic -march=x86-64 -g -O0 -fpre-include=/usr/include/finclude/math-vector-fortran.h
REM seed 95090279 698323997 -857662782 -1536614940 -451695028 -1983087285 -119810780 -1201010377 -1383187481 1789373415 831879625 348975886 -573680548 -625395743 1386217269 1093165290 1744788993 -533614168 -1327912582 1515939014 -1380844237 -665150007 -1974722307 -546041358 832226672 1652035298 1895812775 1180802589 289841719 -1838875249 849160330 -1656763374 -1397144170
REM
CELL 1.54180   50.00000   50.00000   50.00000   90.00000   90.00000   90.00000
LATT -1
SFAC C  
C      1  0.4867030000000  0.5484530000000  0.4806240000000 1.0
C      1  0.4967830000000  0.5423270000000  0.5125230000000 1.0
C      1  0.5258160000000  0.4393430000000  0.4768400000000 1.0
C      1  0.5256110000000  0.4388600000000  0.5229930000000 1.0
C      1  0.4449060000000  0.5546460000000  0.5402000000000 1.0
C      1  0.4499090000000  0.5532450000000  0.4559040000000 1.0
C      1  0.5037380000000  0.4386970000000  0.4528810000000 1.0
C      1  0.5074390000000  0.4319190000000  0.5485170000000 1.0
C      1  0.5123250000000  0.4837920000000  0.4397520000000 1.0
C      1  0.5169550000000  0.4774260000000  0.5618370000000 1.0
C      1  0.4496310000000  0.4759920000000  0.4836450000000 1.0
C      1  0.4495670000000  0.4758950000000  0.5177680000000 1.0
C      1  0.4609050000000  0.5264410000000  0.4830960000000 1.0
C      1  0.4648260000000  0.5299280000000  0.5144180000000 1.0
C      1  0.4649810000000  0.4890730000000  0.4329060000000 1.0
C      1  0.4638490000000  0.4902520000000  0.5670430000000 1.0
C      1  0.4598240000000  0.5271520000000  0.4436000000000 1.0
C      1  0.4570710000000  0.5322380000000  0.5535090000000 1.0
C      1  0.4295470000000  0.5133000000000  0.4832910000000 1.0
C      1  0.4335010000000  0.5164120000000  0.5148020000000 1.0
C      1  0.5199730000000  0.5177110000000  0.5161730000000 1.0
C      1  0.5212530000000  0.5096130000000  0.4829140000000 1.0
C      1  0.5106380000000  0.4686500000000  0.4850200000000 1.0
C      1  0.5109290000000  0.4689110000000  0.5168550000000 1.0
C      1  0.5343380000000  0.5047490000000  0.4455550000000 1.0
C      1  0.5374970000000  0.5021410000000  0.5565440000000 1.0
C      1  0.5338220000000  0.4887410000000  0.5274070000000 1.0
C      1  0.5376120000000  0.4834040000000  0.4704870000000 1.0
C      1  0.4871450000000  0.4907630000000  0.4586470000000 1.0
C      1  0.4908610000000  0.4872140000000  0.5466160000000 1.0
C      1  0.4840120000000  0.5363900000000  0.5620890000000 1.0
C      1  0.4896580000000  0.5333130000000  0.4325290000000 1.0
C      1  0.4791850000000  0.5019410000000  0.4897580000000 1.0
C      1  0.4812120000000  0.5001600000000  0.5169470000000 1.0
C      1  0.4791620000000  0.4619590000000  0.5270730000000 1.0
C      1  0.4790860000000  0.4617120000000  0.4743890000000 1.0
C      1  0.5368430000000  0.5324130000000  0.4542410000000 1.0
C      1  0.5399380000000  0.5309500000000  0.5498140000000 1.0
C      1  0.5154990000000  0.5491440000000  0.5601740000000 1.0
C      1  0.5172260000000  0.5509120000000  0.4418230000000 1.0
C      1  0.4924710000000  0.4337800000000  0.5173410000000 1.0
C      1  0.4935780000000  0.4326440000000  0.4853270000000 1.0
C      1  0.5854240000000  0.4794990000000  0.4841560000000 1.0
C      1  0.5834160000000  0.4828620000000  0.5117450000000 1.0
C      1  0.5026070000000  0.5178040000000  0.5454130000000 1.0
C      1  0.4990260000000  0.5223930000000  0.4625710000000 1.0
C      1  0.5021270000000  0.5617300000000  0.5338620000000 1.0
C      1  0.5052860000000  0.5689620000000  0.4621950000000 1.0
C      1  0.5596190000000  0.4720460000000  0.5223900000000 1.0
C      1  0.5625680000000  0.4670100000000  0.4731850000000 1.0
C      1  0.4514590000000  0.5609950000000  0.5115890000000 1.0
C      1  0.4578780000000  0.5662590000000  0.4835690000000 1.0
C      1  0.5539780000000  0.4427210000000  0.4855120000000 1.0
C      1  0.5529010000000  0.4459030000000  0.5136340000000 1.0
C      1  0.4476060000000  0.4990120000000  0.4584570000000 1.0
C      1  0.4486190000000  0.5021100000000  0.5397880000000 1.0
C      1  0.5131610000000  0.4498470000000  0.5685940000000 1.0
C      1  0.5082870000000  0.4563640000000  0.4329480000000 1.0
C      1  0.5422990000000  0.5349540000000  0.4878220000000 1.0
C      1  0.5479120000000  0.5369240000000  0.5186950000000 1.0
END
