TITL C-1154826-9507-618 0.000204905372699861 125000 -328.041964613067 0 0 60 (C3) n - 1
REM
REM in /home/nfs/bkarasulu/CARBON/AIRSS/Generating-Clusters/AIREBO/Higher-Symm/Only-C60
REM
REM
REM
REM
REM
REM ./C.cell (28575a23ae977d3b5fae324c64b13b57)
REM
REM compiler GCC version 9.2.1 20190827 (Red Hat 9.2.1-1)
REM options -cpp -mtune=generic -march=x86-64 -g -O0 -fpre-include=/usr/include/finclude/math-vector-fortran.h
REM seed 778730146 1030980165 -845879573 1640293212 -12593684 440742534 -142932584 -511098101 -1542154712 2048228335 -229307185 1056196749 -242495075 34841428 1219175804 395076560 729094456 -654670651 1597503259 -116534241 -1642849090 -1172431060 -236971616 1463219076 1098553366 2048244768 -1624332642 -1997039057 1807155512 -2050510307 -244686656 -1240464988 -130463664
REM
CELL 1.54180   50.00000   50.00000   50.00000   90.00000   90.00000   90.00000
LATT -1
SFAC C  
C      1  0.5404330000000  0.5462540000000  0.4792340000000 1.0
C      1  0.4977630000000  0.5462410000000  0.5454120000000 1.0
C      1  0.4617860000000  0.5462440000000  0.4753700000000 1.0
C      1  0.5418720000000  0.4550400000000  0.4883800000000 1.0
C      1  0.4891320000000  0.4550270000000  0.5420600000000 1.0
C      1  0.4690140000000  0.4550320000000  0.4695460000000 1.0
C      1  0.5442580000000  0.5397980000000  0.5149520000000 1.0
C      1  0.4908080000000  0.5397980000000  0.4541970000000 1.0
C      1  0.4649180000000  0.5397860000000  0.5308640000000 1.0
C      1  0.5426870000000  0.4552770000000  0.5249030000000 1.0
C      1  0.5002360000000  0.4552790000000  0.4505780000000 1.0
C      1  0.4570950000000  0.4552650000000  0.5245040000000 1.0
C      1  0.4756040000000  0.3980670000000  0.5142740000000 1.0
C      1  0.4998470000000  0.3980750000000  0.4717060000000 1.0
C      1  0.5245900000000  0.3980730000000  0.5139850000000 1.0
C      1  0.4783150000000  0.6008580000000  0.5188170000000 1.0
C      1  0.4945370000000  0.6008650000000  0.4718410000000 1.0
C      1  0.5271080000000  0.6008650000000  0.5093770000000 1.0
C      1  0.4744260000000  0.3899370000000  0.4853900000000 1.0
C      1  0.5001670000000  0.3899360000000  0.5294470000000 1.0
C      1  0.5254500000000  0.3899440000000  0.4851260000000 1.0
C      1  0.4719530000000  0.6088110000000  0.4902340000000 1.0
C      1  0.5055330000000  0.6088120000000  0.5291780000000 1.0
C      1  0.5224700000000  0.6088190000000  0.4806250000000 1.0
C      1  0.5254320000000  0.5495950000000  0.5598050000000 1.0
C      1  0.4354860000000  0.5495910000000  0.4921360000000 1.0
C      1  0.5390620000000  0.5496100000000  0.4480750000000 1.0
C      1  0.5137010000000  0.4577260000000  0.5628150000000 1.0
C      1  0.4387550000000  0.4577250000000  0.4804460000000 1.0
C      1  0.5475610000000  0.4577420000000  0.4567250000000 1.0
C      1  0.5161510000000  0.5470860000000  0.4366260000000 1.0
C      1  0.4370270000000  0.5470670000000  0.5177020000000 1.0
C      1  0.5468030000000  0.5470780000000  0.5456880000000 1.0
C      1  0.5284770000000  0.4574460000000  0.4395470000000 1.0
C      1  0.4334200000000  0.4574260000000  0.5055620000000 1.0
C      1  0.5381190000000  0.4574350000000  0.5548760000000 1.0
C      1  0.5001830000000  0.4249100000000  0.5307880000000 1.0
C      1  0.4732530000000  0.4249110000000  0.4847440000000 1.0
C      1  0.5265940000000  0.4249190000000  0.4844430000000 1.0
C      1  0.5058980000000  0.5745130000000  0.5305040000000 1.0
C      1  0.4706260000000  0.5745130000000  0.4898770000000 1.0
C      1  0.5234460000000  0.5745210000000  0.4796440000000 1.0
C      1  0.4999910000000  0.4300000000000  0.4665850000000 1.0
C      1  0.4710870000000  0.4299910000000  0.5167120000000 1.0
C      1  0.5289500000000  0.4299980000000  0.5166800000000 1.0
C      1  0.4942750000000  0.5679410000000  0.4675290000000 1.0
C      1  0.4747210000000  0.5679320000000  0.5211970000000 1.0
C      1  0.5309770000000  0.5679410000000  0.5112970000000 1.0
C      1  0.5014530000000  0.5123510000000  0.4692200000000 1.0
C      1  0.5259280000000  0.5123490000000  0.5166520000000 1.0
C      1  0.4726130000000  0.5123420000000  0.5141320000000 1.0
C      1  0.4997900000000  0.4802340000000  0.4674780000000 1.0
C      1  0.5282720000000  0.4802320000000  0.5160730000000 1.0
C      1  0.4719460000000  0.4802250000000  0.5164420000000 1.0
C      1  0.4988250000000  0.5189420000000  0.5320800000000 1.0
C      1  0.5283640000000  0.5189510000000  0.4849790000000 1.0
C      1  0.4728030000000  0.5189440000000  0.4829480000000 1.0
C      1  0.5004730000000  0.4852330000000  0.5312490000000 1.0
C      1  0.5268300000000  0.4852420000000  0.4839650000000 1.0
C      1  0.4727020000000  0.4852350000000  0.4847810000000 1.0
END
