TITL C-1154804-8633-447 105.964687719752 125000 -346.644246767584 0 0 60 (C1) n - 1
REM
REM in /home/nfs/bkarasulu/CARBON/AIRSS/Generating-Clusters/AIREBO/Higher-Symm/Only-C60
REM
REM
REM
REM
REM
REM ./C.cell (28575a23ae977d3b5fae324c64b13b57)
REM
REM compiler GCC version 9.2.1 20190827 (Red Hat 9.2.1-1)
REM options -cpp -mtune=generic -march=x86-64 -g -O0 -fpre-include=/usr/include/finclude/math-vector-fortran.h
REM seed 1483852651 -1151784001 -2141024188 2060406513 -1092045131 -1663659062 1025414846 -970859904 1561836313 -1544701993 -215133208 -434366554 -334416062 -1731166347 -753247728 138473720 1669419000 405810843 450766965 1911063180 -484305959 1918615120 614919524 1847190616 1207049758 871483283 1886558456 1255103278 -71097454 1347260733 -1835134865 1856777235 348726975
REM
CELL 1.54180   50.00000   50.00000   50.00000   90.00000   90.00000   90.00000
LATT -1
SFAC C  
C      1  0.5076650000000  0.4269190000000  0.4937920000000 1.0
C      1  0.5040280000000  0.4706920000000  0.5718680000000 1.0
C      1  0.5044010000000  0.5570050000000  0.5493470000000 1.0
C      1  0.5022690000000  0.5691890000000  0.4614530000000 1.0
C      1  0.5073760000000  0.4859770000000  0.4265090000000 1.0
C      1  0.4976900000000  0.5634370000000  0.4949760000000 1.0
C      1  0.4982640000000  0.5242170000000  0.5565480000000 1.0
C      1  0.4974530000000  0.4520050000000  0.5440720000000 1.0
C      1  0.5007750000000  0.4451680000000  0.4696140000000 1.0
C      1  0.5013910000000  0.5138000000000  0.4396060000000 1.0
C      1  0.5278250000000  0.4571640000000  0.4603230000000 1.0
C      1  0.5273980000000  0.4594930000000  0.5314530000000 1.0
C      1  0.5278000000000  0.5134270000000  0.5435420000000 1.0
C      1  0.5281160000000  0.5487430000000  0.4991350000000 1.0
C      1  0.5261690000000  0.5249250000000  0.4540890000000 1.0
C      1  0.5218680000000  0.5481340000000  0.4677070000000 1.0
C      1  0.5196630000000  0.5411980000000  0.5282170000000 1.0
C      1  0.5194450000000  0.4844620000000  0.5495280000000 1.0
C      1  0.5295790000000  0.4355840000000  0.5077220000000 1.0
C      1  0.5310370000000  0.4743360000000  0.4355900000000 1.0
C      1  0.4659420000000  0.4340480000000  0.4542740000000 1.0
C      1  0.4627630000000  0.4336180000000  0.5489550000000 1.0
C      1  0.4639810000000  0.5282020000000  0.5760260000000 1.0
C      1  0.4628560000000  0.5819510000000  0.4983410000000 1.0
C      1  0.4662580000000  0.5213190000000  0.4226840000000 1.0
C      1  0.4573110000000  0.5586590000000  0.4533360000000 1.0
C      1  0.4582110000000  0.5624090000000  0.5427140000000 1.0
C      1  0.4581370000000  0.4799190000000  0.5737570000000 1.0
C      1  0.4608050000000  0.4249680000000  0.5012560000000 1.0
C      1  0.4606890000000  0.4765730000000  0.4306520000000 1.0
C      1  0.4839840000000  0.5750110000000  0.5421120000000 1.0
C      1  0.4830020000000  0.5634170000000  0.4416020000000 1.0
C      1  0.4864630000000  0.4667570000000  0.4231830000000 1.0
C      1  0.4866550000000  0.4156520000000  0.5093520000000 1.0
C      1  0.4838830000000  0.4847100000000  0.5854460000000 1.0
C      1  0.4885280000000  0.4207960000000  0.5375030000000 1.0
C      1  0.4902370000000  0.4421300000000  0.4374290000000 1.0
C      1  0.4890420000000  0.5415090000000  0.4242480000000 1.0
C      1  0.4875050000000  0.5864050000000  0.5162810000000 1.0
C      1  0.4883170000000  0.5127890000000  0.5862230000000 1.0
C      1  0.4617030000000  0.4845990000000  0.4576150000000 1.0
C      1  0.4605050000000  0.4531430000000  0.5021970000000 1.0
C      1  0.4584960000000  0.4866680000000  0.5465420000000 1.0
C      1  0.4584330000000  0.5395020000000  0.5264160000000 1.0
C      1  0.4594510000000  0.5371530000000  0.4710920000000 1.0
C      1  0.4713710000000  0.5131880000000  0.4555890000000 1.0
C      1  0.4675460000000  0.5479750000000  0.4979700000000 1.0
C      1  0.4676020000000  0.5164950000000  0.5440170000000 1.0
C      1  0.4678120000000  0.4624020000000  0.5310300000000 1.0
C      1  0.4710900000000  0.4609150000000  0.4748850000000 1.0
C      1  0.5533340000000  0.4525800000000  0.5019370000000 1.0
C      1  0.5702860000000  0.4878320000000  0.5404950000000 1.0
C      1  0.5681000000000  0.5343740000000  0.5249730000000 1.0
C      1  0.5673730000000  0.5297070000000  0.4757820000000 1.0
C      1  0.5538250000000  0.4864710000000  0.4540120000000 1.0
C      1  0.5580870000000  0.5413220000000  0.4997850000000 1.0
C      1  0.5582380000000  0.5131930000000  0.5404800000000 1.0
C      1  0.5602210000000  0.4654760000000  0.5278020000000 1.0
C      1  0.5505150000000  0.4663160000000  0.4782340000000 1.0
C      1  0.5512320000000  0.5139720000000  0.4586820000000 1.0
END
