TITL C-1154804-8633-225 -0.000608217110881146 125000 -326.924567510352 0 0 60 (C1) n - 1
REM
REM in /home/nfs/bkarasulu/CARBON/AIRSS/Generating-Clusters/AIREBO/Higher-Symm/Only-C60
REM
REM
REM
REM
REM
REM ./C.cell (28575a23ae977d3b5fae324c64b13b57)
REM
REM compiler GCC version 9.2.1 20190827 (Red Hat 9.2.1-1)
REM options -cpp -mtune=generic -march=x86-64 -g -O0 -fpre-include=/usr/include/finclude/math-vector-fortran.h
REM seed 1698784377 -273859713 -1682626509 1662961043 534346443 2014907356 -1561566549 -1737501378 937114473 -2108002074 -404799189 816240188 1277178133 -1707844403 -853029137 -1456339311 -1771701182 1260613537 772986644 -1432410818 1698971388 -1549998974 626332574 1639288064 -82011201 1784599552 1820579867 -903207668 -579197214 2036652193 1397687116 -2139237293 -1473728526
REM
CELL 1.54180   50.00000   50.00000   50.00000   90.00000   90.00000   90.00000
LATT -1
SFAC C  
C      1  0.4881140000000  0.5581280000000  0.4381780000000 1.0
C      1  0.4583010000000  0.4391110000000  0.4506120000000 1.0
C      1  0.4464360000000  0.5575040000000  0.4808660000000 1.0
C      1  0.4389620000000  0.4411010000000  0.5078790000000 1.0
C      1  0.4514850000000  0.5596490000000  0.5405050000000 1.0
C      1  0.4765640000000  0.4418900000000  0.5567310000000 1.0
C      1  0.5105210000000  0.5586960000000  0.5587860000000 1.0
C      1  0.5349130000000  0.4422620000000  0.5409840000000 1.0
C      1  0.5595070000000  0.5616890000000  0.5213030000000 1.0
C      1  0.5600330000000  0.4419330000000  0.4864960000000 1.0
C      1  0.5451840000000  0.5571840000000  0.4614810000000 1.0
C      1  0.5174810000000  0.4410260000000  0.4409560000000 1.0
C      1  0.4759560000000  0.4231380000000  0.4715990000000 1.0
C      1  0.4689030000000  0.5721190000000  0.4887860000000 1.0
C      1  0.4659640000000  0.4275770000000  0.5019900000000 1.0
C      1  0.4749850000000  0.5734000000000  0.5200670000000 1.0
C      1  0.4867720000000  0.4315450000000  0.5258910000000 1.0
C      1  0.5056440000000  0.5689430000000  0.5303390000000 1.0
C      1  0.5184350000000  0.4301080000000  0.5216370000000 1.0
C      1  0.5313100000000  0.5742480000000  0.5111050000000 1.0
C      1  0.5278960000000  0.4315360000000  0.4911380000000 1.0
C      1  0.5235530000000  0.5681310000000  0.4801530000000 1.0
C      1  0.5076000000000  0.4275120000000  0.4667730000000 1.0
C      1  0.4934660000000  0.5726760000000  0.4684880000000 1.0
C      1  0.5207200000000  0.4713040000000  0.4446830000000 1.0
C      1  0.4894830000000  0.5274100000000  0.4426700000000 1.0
C      1  0.4622370000000  0.4692770000000  0.4551390000000 1.0
C      1  0.4460220000000  0.5253470000000  0.4809340000000 1.0
C      1  0.4422180000000  0.4713510000000  0.5119730000000 1.0
C      1  0.4551020000000  0.5288260000000  0.5387410000000 1.0
C      1  0.4809880000000  0.4729010000000  0.5569670000000 1.0
C      1  0.5112370000000  0.5281640000000  0.5596420000000 1.0
C      1  0.5386640000000  0.4747800000000  0.5454150000000 1.0
C      1  0.5568050000000  0.5305070000000  0.5207960000000 1.0
C      1  0.5594600000000  0.4729230000000  0.4911130000000 1.0
C      1  0.5458040000000  0.5266850000000  0.4619230000000 1.0
C      1  0.4781030000000  0.5395950000000  0.5190620000000 1.0
C      1  0.4923350000000  0.4649650000000  0.5286750000000 1.0
C      1  0.5056150000000  0.5326100000000  0.5292300000000 1.0
C      1  0.5187990000000  0.4735640000000  0.5221360000000 1.0
C      1  0.5279120000000  0.5404130000000  0.5104340000000 1.0
C      1  0.5296100000000  0.4649650000000  0.4971030000000 1.0
C      1  0.5224860000000  0.5318410000000  0.4820070000000 1.0
C      1  0.5109220000000  0.4630230000000  0.4733770000000 1.0
C      1  0.4949240000000  0.5389220000000  0.4721690000000 1.0
C      1  0.4814790000000  0.4560620000000  0.4780760000000 1.0
C      1  0.4742700000000  0.5308050000000  0.4913450000000 1.0
C      1  0.4720120000000  0.4630820000000  0.5063050000000 1.0
C      1  0.4422680000000  0.4997830000000  0.5288080000000 1.0
C      1  0.4644710000000  0.5012140000000  0.5544520000000 1.0
C      1  0.4959990000000  0.5003760000000  0.5673970000000 1.0
C      1  0.5298340000000  0.5014440000000  0.5621380000000 1.0
C      1  0.5549590000000  0.5025810000000  0.5388800000000 1.0
C      1  0.5655870000000  0.5017260000000  0.5064750000000 1.0
C      1  0.5608490000000  0.4999470000000  0.4727500000000 1.0
C      1  0.5388740000000  0.4986750000000  0.4466620000000 1.0
C      1  0.5064140000000  0.4996310000000  0.4365310000000 1.0
C      1  0.4736650000000  0.4981600000000  0.4434730000000 1.0
C      1  0.4471780000000  0.4973610000000  0.4640820000000 1.0
C      1  0.4347080000000  0.4986770000000  0.4956950000000 1.0
END
