TITL C-1154829-9094-593 -4.16136092506189e-05 125000 -312.467253951354 0 0 60 (C1) n - 1
REM
REM in /home/nfs/bkarasulu/CARBON/AIRSS/Generating-Clusters/AIREBO/Higher-Symm/Only-C60
REM
REM
REM
REM
REM
REM ./C.cell (28575a23ae977d3b5fae324c64b13b57)
REM
REM compiler GCC version 9.2.1 20190827 (Red Hat 9.2.1-1)
REM options -cpp -mtune=generic -march=x86-64 -g -O0 -fpre-include=/usr/include/finclude/math-vector-fortran.h
REM seed -1943223960 -2132499091 1977428742 -1133860637 989117491 -85288129 828799026 -1250038925 1685019447 -609747283 747550340 -112524601 2061102080 171316891 848682571 1524260390 -1058763853 -402727164 1074741765 -1982371916 -1626142756 -865133821 1326111350 -561540053 -311352408 -1182114694 -1865167895 -1447729373 1837162310 1522619166 -1978029448 1185489871 282563057
REM
CELL 1.54180   50.00000   50.00000   50.00000   90.00000   90.00000   90.00000
LATT -1
SFAC C  
C      1  0.5176980000000  0.5378240000000  0.5004860000000 1.0
C      1  0.4964170000000  0.4652350000000  0.5197260000000 1.0
C      1  0.4815700000000  0.5379300000000  0.4843440000000 1.0
C      1  0.5115900000000  0.4619780000000  0.4832880000000 1.0
C      1  0.4546850000000  0.4622500000000  0.4556740000000 1.0
C      1  0.5491580000000  0.5500020000000  0.4622030000000 1.0
C      1  0.5380150000000  0.4469500000000  0.5509000000000 1.0
C      1  0.4541420000000  0.5373010000000  0.5464800000000 1.0
C      1  0.5324750000000  0.4800320000000  0.4496170000000 1.0
C      1  0.5468080000000  0.5201050000000  0.5301430000000 1.0
C      1  0.4731690000000  0.4869490000000  0.5439100000000 1.0
C      1  0.4513200000000  0.5158140000000  0.4703870000000 1.0
C      1  0.5305270000000  0.5001670000000  0.4675710000000 1.0
C      1  0.5278590000000  0.5009430000000  0.5320530000000 1.0
C      1  0.4692480000000  0.5031980000000  0.5229820000000 1.0
C      1  0.4715440000000  0.4979290000000  0.4705560000000 1.0
C      1  0.4917280000000  0.5038610000000  0.4517350000000 1.0
C      1  0.5451430000000  0.4963170000000  0.4909720000000 1.0
C      1  0.5090010000000  0.5023020000000  0.5526550000000 1.0
C      1  0.4462240000000  0.4993570000000  0.5066450000000 1.0
C      1  0.5353170000000  0.5654330000000  0.4961100000000 1.0
C      1  0.5012240000000  0.4381510000000  0.5381240000000 1.0
C      1  0.4628730000000  0.5648410000000  0.4905940000000 1.0
C      1  0.5038630000000  0.4352220000000  0.4651660000000 1.0
C      1  0.4238910000000  0.5121800000000  0.5178110000000 1.0
C      1  0.4897820000000  0.4859860000000  0.4303490000000 1.0
C      1  0.5680560000000  0.5126240000000  0.4913680000000 1.0
C      1  0.5151250000000  0.4857480000000  0.5744440000000 1.0
C      1  0.5498180000000  0.4555710000000  0.5230340000000 1.0
C      1  0.4866510000000  0.5277380000000  0.5492970000000 1.0
C      1  0.4473840000000  0.4711600000000  0.4876700000000 1.0
C      1  0.5215780000000  0.5462930000000  0.4458110000000 1.0
C      1  0.5557630000000  0.4350570000000  0.4760910000000 1.0
C      1  0.5242350000000  0.5630200000000  0.5489300000000 1.0
C      1  0.4477850000000  0.4421620000000  0.5302520000000 1.0
C      1  0.4720470000000  0.5608360000000  0.4389170000000 1.0
C      1  0.5377770000000  0.5495980000000  0.5253980000000 1.0
C      1  0.4725250000000  0.4552090000000  0.5418450000000 1.0
C      1  0.4579150000000  0.5468250000000  0.4624450000000 1.0
C      1  0.5338120000000  0.4500700000000  0.4608450000000 1.0
C      1  0.5681560000000  0.5349940000000  0.4747840000000 1.0
C      1  0.5288340000000  0.4619840000000  0.5716960000000 1.0
C      1  0.4293230000000  0.5305510000000  0.5377590000000 1.0
C      1  0.4723950000000  0.4646690000000  0.4349600000000 1.0
C      1  0.4811230000000  0.4741850000000  0.4907040000000 1.0
C      1  0.5098760000000  0.5263920000000  0.4694180000000 1.0
C      1  0.5275160000000  0.4757560000000  0.5108580000000 1.0
C      1  0.4887750000000  0.5273270000000  0.5153500000000 1.0
C      1  0.5357890000000  0.5193430000000  0.3982190000000 1.0
C      1  0.5977110000000  0.4838620000000  0.5330660000000 1.0
C      1  0.4670390000000  0.5065370000000  0.6013370000000 1.0
C      1  0.3941470000000  0.4865360000000  0.4669120000000 1.0
C      1  0.4170770000000  0.4798270000000  0.4758700000000 1.0
C      1  0.5293600000000  0.5315300000000  0.4196980000000 1.0
C      1  0.5760830000000  0.4711150000000  0.5284810000000 1.0
C      1  0.4754420000000  0.5157230000000  0.5790650000000 1.0
C      1  0.5025580000000  0.5544230000000  0.5579490000000 1.0
C      1  0.4403500000000  0.4464310000000  0.5067530000000 1.0
C      1  0.4969560000000  0.5643840000000  0.4391050000000 1.0
C      1  0.5557490000000  0.4342630000000  0.5011860000000 1.0
END
