TITL C-1154825-9328-38 0.000247325693377736 125000 -334.04239614383 0 0 60 (C2) n - 1
REM
REM in /home/nfs/bkarasulu/CARBON/AIRSS/Generating-Clusters/AIREBO/Higher-Symm/Only-C60
REM
REM
REM
REM
REM
REM ./C.cell (28575a23ae977d3b5fae324c64b13b57)
REM
REM compiler GCC version 9.2.1 20190827 (Red Hat 9.2.1-1)
REM options -cpp -mtune=generic -march=x86-64 -g -O0 -fpre-include=/usr/include/finclude/math-vector-fortran.h
REM seed 739388709 1119407719 1240713920 1523274344 157123442 1091317652 -165615505 -153857443 -692136790 773573500 525137150 1715333305 -209760181 372714414 -1559896055 -404960768 315685388 1582987723 1362547840 -1255567487 418367547 407883356 -96832652 2043505364 1066865732 838503922 428784605 274317977 805784493 -289949070 366797879 -1112736683 124609287
REM
CELL 1.54180   50.00000   50.00000   50.00000   90.00000   90.00000   90.00000
LATT -1
SFAC C  
C      1  0.4571390000000  0.5595040000000  0.5122170000000 1.0
C      1  0.4747020000000  0.5634190000000  0.4660830000000 1.0
C      1  0.5285760000000  0.5621180000000  0.4670280000000 1.0
C      1  0.5416910000000  0.5623870000000  0.5140740000000 1.0
C      1  0.4969300000000  0.5629840000000  0.5425510000000 1.0
C      1  0.5422790000000  0.4377180000000  0.5095890000000 1.0
C      1  0.5251130000000  0.4375690000000  0.4638960000000 1.0
C      1  0.4723580000000  0.4366160000000  0.4677490000000 1.0
C      1  0.4581600000000  0.4406030000000  0.5159150000000 1.0
C      1  0.4996310000000  0.4369800000000  0.5424330000000 1.0
C      1  0.4884310000000  0.5014290000000  0.5747910000000 1.0
C      1  0.4232540000000  0.4992160000000  0.5101870000000 1.0
C      1  0.4714040000000  0.4976160000000  0.4326510000000 1.0
C      1  0.5544200000000  0.5020810000000  0.4466240000000 1.0
C      1  0.5634580000000  0.4959580000000  0.5367370000000 1.0
C      1  0.5162970000000  0.5024850000000  0.5713530000000 1.0
C      1  0.5753420000000  0.4979070000000  0.5113320000000 1.0
C      1  0.5298690000000  0.5041170000000  0.4330620000000 1.0
C      1  0.4468550000000  0.4986850000000  0.4462430000000 1.0
C      1  0.4318320000000  0.5004920000000  0.5366680000000 1.0
C      1  0.5426440000000  0.4769250000000  0.5417300000000 1.0
C      1  0.4732730000000  0.4837150000000  0.5562160000000 1.0
C      1  0.4380670000000  0.4820140000000  0.4908190000000 1.0
C      1  0.4910830000000  0.4782920000000  0.4402750000000 1.0
C      1  0.5552970000000  0.4832090000000  0.4696370000000 1.0
C      1  0.4551660000000  0.5177600000000  0.5436470000000 1.0
C      1  0.5277920000000  0.5217610000000  0.5535900000000 1.0
C      1  0.5625800000000  0.5167560000000  0.4921520000000 1.0
C      1  0.5100910000000  0.5231990000000  0.4411720000000 1.0
C      1  0.4453940000000  0.5163380000000  0.4701850000000 1.0
C      1  0.5157910000000  0.4801620000000  0.4256900000000 1.0
C      1  0.5774620000000  0.4799830000000  0.4873270000000 1.0
C      1  0.5314430000000  0.4782630000000  0.5682180000000 1.0
C      1  0.4448530000000  0.4810990000000  0.5557110000000 1.0
C      1  0.4310710000000  0.4796850000000  0.4632330000000 1.0
C      1  0.4855050000000  0.5218190000000  0.4262630000000 1.0
C      1  0.4226150000000  0.5186810000000  0.4872140000000 1.0
C      1  0.4656020000000  0.5203740000000  0.5701320000000 1.0
C      1  0.5563730000000  0.5199160000000  0.5509530000000 1.0
C      1  0.5702420000000  0.5199600000000  0.4648410000000 1.0
C      1  0.4623670000000  0.5490140000000  0.4869280000000 1.0
C      1  0.5012810000000  0.5554960000000  0.4626580000000 1.0
C      1  0.5389250000000  0.5488030000000  0.4894820000000 1.0
C      1  0.5216370000000  0.5545300000000  0.5319470000000 1.0
C      1  0.4756550000000  0.5493960000000  0.5305370000000 1.0
C      1  0.5375030000000  0.4511110000000  0.4853570000000 1.0
C      1  0.4983330000000  0.4454450000000  0.4614720000000 1.0
C      1  0.4622090000000  0.4502110000000  0.4899850000000 1.0
C      1  0.4773680000000  0.4514420000000  0.5329770000000 1.0
C      1  0.5230110000000  0.4446980000000  0.5291980000000 1.0
C      1  0.5286260000000  0.5166870000000  0.4939480000000 1.0
C      1  0.5145210000000  0.5239050000000  0.5241410000000 1.0
C      1  0.4812750000000  0.5169850000000  0.5218770000000 1.0
C      1  0.4739230000000  0.5170710000000  0.4886670000000 1.0
C      1  0.5031260000000  0.5245560000000  0.4728440000000 1.0
C      1  0.4719680000000  0.4826180000000  0.4933740000000 1.0
C      1  0.4855950000000  0.4833480000000  0.5245290000000 1.0
C      1  0.5184540000000  0.4756170000000  0.5200860000000 1.0
C      1  0.5266490000000  0.4832500000000  0.4879500000000 1.0
C      1  0.4974930000000  0.4760220000000  0.4718580000000 1.0
END
