TITL C-1154804-8633-206 0.00334996878148237 125000 -304.382204195382 0 0 60 (C1) n - 1
REM
REM in /home/nfs/bkarasulu/CARBON/AIRSS/Generating-Clusters/AIREBO/Higher-Symm/Only-C60
REM
REM
REM
REM
REM
REM ./C.cell (28575a23ae977d3b5fae324c64b13b57)
REM
REM compiler GCC version 9.2.1 20190827 (Red Hat 9.2.1-1)
REM options -cpp -mtune=generic -march=x86-64 -g -O0 -fpre-include=/usr/include/finclude/math-vector-fortran.h
REM seed 678542718 -1743314503 -1935725478 1846721462 -459222263 -1307796950 1126413614 549812098 -296670073 -1117775910 -266162522 -251449203 1958061108 547994058 1013262468 -728188296 373063043 -895167790 224704420 1140299692 -1922408153 -1138764007 1751628712 865528964 -178471363 -1564376127 887673728 1175471720 -1773705748 -993229282 833807541 -1344235572 -192201056
REM
CELL 1.54180   50.00000   50.00000   50.00000   90.00000   90.00000   90.00000
LATT -1
SFAC C  
C      1  0.4915720000000  0.5620760000000  0.5177780000000 1.0
C      1  0.5587030000000  0.4758340000000  0.5170020000000 1.0
C      1  0.4456440000000  0.4588210000000  0.5249570000000 1.0
C      1  0.4679690000000  0.4384930000000  0.5106880000000 1.0
C      1  0.4620290000000  0.5580570000000  0.5103130000000 1.0
C      1  0.5698790000000  0.5035420000000  0.5077640000000 1.0
C      1  0.4395560000000  0.4587070000000  0.4740560000000 1.0
C      1  0.5087550000000  0.5601160000000  0.4699050000000 1.0
C      1  0.5482960000000  0.4643690000000  0.4696720000000 1.0
C      1  0.5345090000000  0.5046860000000  0.5651220000000 1.0
C      1  0.4879850000000  0.4649430000000  0.5667980000000 1.0
C      1  0.4743030000000  0.5303130000000  0.5630970000000 1.0
C      1  0.4748720000000  0.5562230000000  0.4297730000000 1.0
C      1  0.5543680000000  0.4977440000000  0.4281080000000 1.0
C      1  0.4695250000000  0.4587410000000  0.4364110000000 1.0
C      1  0.4766430000000  0.5063080000000  0.4492340000000 1.0
C      1  0.5061750000000  0.5200310000000  0.4584970000000 1.0
C      1  0.5119830000000  0.4868620000000  0.4632710000000 1.0
C      1  0.4630260000000  0.5403390000000  0.4828100000000 1.0
C      1  0.5519330000000  0.5128860000000  0.4811670000000 1.0
C      1  0.4850170000000  0.4486690000000  0.4834380000000 1.0
C      1  0.5156240000000  0.4531630000000  0.4690610000000 1.0
C      1  0.4564540000000  0.5126470000000  0.4678920000000 1.0
C      1  0.5349650000000  0.5377170000000  0.4652950000000 1.0
C      1  0.5234720000000  0.4943520000000  0.5346650000000 1.0
C      1  0.4844260000000  0.4826230000000  0.5379720000000 1.0
C      1  0.4919340000000  0.5244240000000  0.5346250000000 1.0
C      1  0.5493600000000  0.4778890000000  0.5496430000000 1.0
C      1  0.4570370000000  0.4700960000000  0.5529110000000 1.0
C      1  0.4959560000000  0.5538480000000  0.5504910000000 1.0
C      1  0.4632520000000  0.4495320000000  0.4621290000000 1.0
C      1  0.4807990000000  0.5521430000000  0.4609670000000 1.0
C      1  0.5515020000000  0.4916680000000  0.4594770000000 1.0
C      1  0.4865050000000  0.4271260000000  0.5283220000000 1.0
C      1  0.4429200000000  0.5455460000000  0.5263790000000 1.0
C      1  0.5705780000000  0.5239660000000  0.5265650000000 1.0
C      1  0.5280360000000  0.5506610000000  0.4957620000000 1.0
C      1  0.5324250000000  0.4530160000000  0.4975080000000 1.0
C      1  0.4433770000000  0.4875650000000  0.4815850000000 1.0
C      1  0.5246470000000  0.5651240000000  0.5250760000000 1.0
C      1  0.5451130000000  0.4460440000000  0.5261990000000 1.0
C      1  0.4361150000000  0.4883700000000  0.5120700000000 1.0
C      1  0.5250500000000  0.4951370000000  0.4336770000000 1.0
C      1  0.4738800000000  0.4853950000000  0.4310910000000 1.0
C      1  0.5000920000000  0.5399580000000  0.4316250000000 1.0
C      1  0.5111870000000  0.4461180000000  0.5301630000000 1.0
C      1  0.4467920000000  0.5140610000000  0.5245180000000 1.0
C      1  0.5421280000000  0.5363100000000  0.5297330000000 1.0
C      1  0.5197330000000  0.4835610000000  0.4944770000000 1.0
C      1  0.4728700000000  0.4901960000000  0.4965820000000 1.0
C      1  0.5044050000000  0.5265330000000  0.4918230000000 1.0
C      1  0.4614030000000  0.5039280000000  0.5499840000000 1.0
C      1  0.5205820000000  0.5302660000000  0.5517230000000 1.0
C      1  0.5175020000000  0.4666210000000  0.5534100000000 1.0
C      1  0.5711920000000  0.4579780000000  0.4910250000000 1.0
C      1  0.4310150000000  0.4459040000000  0.4973180000000 1.0
C      1  0.5035030000000  0.5816140000000  0.4932770000000 1.0
C      1  0.5309570000000  0.5126980000000  0.5079390000000 1.0
C      1  0.4949500000000  0.4678980000000  0.5096810000000 1.0
C      1  0.4755200000000  0.5205470000000  0.5074980000000 1.0
END
