TITL C-1154810-7815-360 1.85351710776166e-05 125000 -305.260095896382 0 0 60 (C1) n - 1
REM
REM in /home/nfs/bkarasulu/CARBON/AIRSS/Generating-Clusters/AIREBO/Higher-Symm/Only-C60
REM
REM
REM
REM
REM
REM ./C.cell (28575a23ae977d3b5fae324c64b13b57)
REM
REM compiler GCC version 9.2.1 20190827 (Red Hat 9.2.1-1)
REM options -cpp -mtune=generic -march=x86-64 -g -O0 -fpre-include=/usr/include/finclude/math-vector-fortran.h
REM seed 1042766794 -2043544494 676625558 1055487950 -81769036 1116053613 -152189937 1704074726 -610986730 -1841208331 -2075244202 -160443156 -779331608 -2019330384 -743858993 -487284501 1414532528 -447139768 1342434261 -183581575 669124507 -1776105480 554866097 368926200 1872713499 -606177172 1324602606 -2073167811 825308516 2124404687 1359379049 -2008393794 -244442274
REM
CELL 1.54180   50.00000   50.00000   50.00000   90.00000   90.00000   90.00000
LATT -1
SFAC C  
C      1  0.5375090000000  0.4625710000000  0.4248370000000 1.0
C      1  0.4341340000000  0.5301770000000  0.4787070000000 1.0
C      1  0.4756770000000  0.4110250000000  0.5226750000000 1.0
C      1  0.5177010000000  0.5225660000000  0.5857490000000 1.0
C      1  0.4621280000000  0.5147820000000  0.4237600000000 1.0
C      1  0.4690550000000  0.4710750000000  0.5752110000000 1.0
C      1  0.4344700000000  0.4760210000000  0.5281020000000 1.0
C      1  0.5767100000000  0.4897050000000  0.4492330000000 1.0
C      1  0.5658190000000  0.5258960000000  0.5571140000000 1.0
C      1  0.4929310000000  0.5829300000000  0.4726430000000 1.0
C      1  0.5306930000000  0.5725440000000  0.5423440000000 1.0
C      1  0.5455810000000  0.4367810000000  0.4846140000000 1.0
C      1  0.4569690000000  0.4490050000000  0.4332560000000 1.0
C      1  0.5741480000000  0.5379330000000  0.4853390000000 1.0
C      1  0.5475560000000  0.4446080000000  0.5119340000000 1.0
C      1  0.4590760000000  0.5479340000000  0.5758070000000 1.0
C      1  0.5177540000000  0.5120010000000  0.4282080000000 1.0
C      1  0.5311760000000  0.4567350000000  0.5705620000000 1.0
C      1  0.5607330000000  0.4688750000000  0.5159640000000 1.0
C      1  0.4165640000000  0.4693410000000  0.4722150000000 1.0
C      1  0.4269280000000  0.5417340000000  0.5339810000000 1.0
C      1  0.5441010000000  0.5640250000000  0.4459290000000 1.0
C      1  0.4910830000000  0.5827380000000  0.5292820000000 1.0
C      1  0.4770730000000  0.4252120000000  0.4610330000000 1.0
C      1  0.4442810000000  0.4704420000000  0.4766900000000 1.0
C      1  0.4623250000000  0.4444190000000  0.4806070000000 1.0
C      1  0.4608400000000  0.4691430000000  0.4496530000000 1.0
C      1  0.4563150000000  0.5346630000000  0.5269080000000 1.0
C      1  0.5459630000000  0.5245690000000  0.4735260000000 1.0
C      1  0.5389540000000  0.4924900000000  0.5271010000000 1.0
C      1  0.4733180000000  0.5585320000000  0.5174290000000 1.0
C      1  0.5283370000000  0.5461600000000  0.4617400000000 1.0
C      1  0.5229830000000  0.4445080000000  0.5256020000000 1.0
C      1  0.4710710000000  0.5297890000000  0.5541610000000 1.0
C      1  0.5079970000000  0.5322370000000  0.4443240000000 1.0
C      1  0.5174890000000  0.4723900000000  0.5443040000000 1.0
C      1  0.5497710000000  0.4921600000000  0.4638420000000 1.0
C      1  0.5244140000000  0.4473840000000  0.4701660000000 1.0
C      1  0.5297900000000  0.4711990000000  0.4523340000000 1.0
C      1  0.5452990000000  0.5234630000000  0.5347400000000 1.0
C      1  0.4658950000000  0.5344270000000  0.4748460000000 1.0
C      1  0.4649110000000  0.4659270000000  0.5241010000000 1.0
C      1  0.5221500000000  0.5422320000000  0.5374380000000 1.0
C      1  0.4777400000000  0.5586550000000  0.4863400000000 1.0
C      1  0.4699190000000  0.4407680000000  0.5097940000000 1.0
C      1  0.5032630000000  0.5297610000000  0.5567100000000 1.0
C      1  0.4792790000000  0.5243580000000  0.4513310000000 1.0
C      1  0.4834830000000  0.4719440000000  0.5456730000000 1.0
C      1  0.5081010000000  0.4871260000000  0.4361600000000 1.0
C      1  0.4772510000000  0.5002820000000  0.5633330000000 1.0
C      1  0.4541330000000  0.5163850000000  0.5007780000000 1.0
C      1  0.5011770000000  0.4307480000000  0.5116060000000 1.0
C      1  0.4511470000000  0.4871520000000  0.5023860000000 1.0
C      1  0.5510110000000  0.4915210000000  0.4950700000000 1.0
C      1  0.5562190000000  0.5218540000000  0.5062490000000 1.0
C      1  0.5142780000000  0.5614540000000  0.4837570000000 1.0
C      1  0.5069660000000  0.5572740000000  0.5140400000000 1.0
C      1  0.4990690000000  0.4387330000000  0.4804100000000 1.0
C      1  0.5111060000000  0.4981830000000  0.5655120000000 1.0
C      1  0.4781860000000  0.4914540000000  0.4428380000000 1.0
END
