TITL C-1154825-9328-269 26.1346188917803 125000 -270.978704159689 0 0 60 (C1) n - 1
REM
REM in /home/nfs/bkarasulu/CARBON/AIRSS/Generating-Clusters/AIREBO/Higher-Symm/Only-C60
REM
REM
REM
REM
REM
REM ./C.cell (28575a23ae977d3b5fae324c64b13b57)
REM
REM compiler GCC version 9.2.1 20190827 (Red Hat 9.2.1-1)
REM options -cpp -mtune=generic -march=x86-64 -g -O0 -fpre-include=/usr/include/finclude/math-vector-fortran.h
REM seed -601260198 -501451808 -2119273358 -1292982609 784137337 1505490981 1169475601 -871409243 1610125524 1932984328 1336615093 884617855 2073669586 -506648636 -1677240805 -781479747 -736071548 2031918099 -475164674 -910562927 111968527 1677606973 1306873846 -2023538316 -2103258005 1635199789 1509271192 1921376323 1925377139 -1580280702 985487086 -1881318772 1211333377
REM
CELL 1.54180   50.00000   50.00000   50.00000   90.00000   90.00000   90.00000
LATT -1
SFAC C  
C      1  0.5399050000000  0.5062240000000  0.4562530000000 1.0
C      1  0.5574580000000  0.5088460000000  0.4965890000000 1.0
C      1  0.5374800000000  0.5090930000000  0.5445140000000 1.0
C      1  0.4931170000000  0.5055510000000  0.5584800000000 1.0
C      1  0.4487850000000  0.5100020000000  0.5305630000000 1.0
C      1  0.4438920000000  0.5070240000000  0.4754670000000 1.0
C      1  0.4814820000000  0.5041260000000  0.4401620000000 1.0
C      1  0.4623700000000  0.4263930000000  0.4972850000000 1.0
C      1  0.4816890000000  0.4284290000000  0.4700660000000 1.0
C      1  0.5122880000000  0.4345200000000  0.4565470000000 1.0
C      1  0.5363660000000  0.4278400000000  0.4797100000000 1.0
C      1  0.5262220000000  0.4320740000000  0.5103660000000 1.0
C      1  0.5072880000000  0.4280000000000  0.5370980000000 1.0
C      1  0.4792300000000  0.4410010000000  0.5229500000000 1.0
C      1  0.4579100000000  0.4523570000000  0.4757900000000 1.0
C      1  0.4848740000000  0.4520370000000  0.4464850000000 1.0
C      1  0.5389060000000  0.4547580000000  0.4595750000000 1.0
C      1  0.5491360000000  0.4538940000000  0.4981460000000 1.0
C      1  0.5315140000000  0.4520520000000  0.5373660000000 1.0
C      1  0.4880390000000  0.4512740000000  0.5541460000000 1.0
C      1  0.4482360000000  0.4526560000000  0.5152060000000 1.0
C      1  0.5620130000000  0.5314920000000  0.4616390000000 1.0
C      1  0.5636880000000  0.5352950000000  0.5170310000000 1.0
C      1  0.5279960000000  0.5349890000000  0.5644070000000 1.0
C      1  0.4716350000000  0.5290620000000  0.5703980000000 1.0
C      1  0.4447970000000  0.5315120000000  0.5070030000000 1.0
C      1  0.4506770000000  0.5277870000000  0.4494060000000 1.0
C      1  0.5093910000000  0.5149700000000  0.4324450000000 1.0
C      1  0.5399090000000  0.4835230000000  0.5055540000000 1.0
C      1  0.5229870000000  0.4828530000000  0.5351080000000 1.0
C      1  0.4893850000000  0.4801450000000  0.5400430000000 1.0
C      1  0.4616640000000  0.4830210000000  0.5205220000000 1.0
C      1  0.4618540000000  0.4820120000000  0.4863840000000 1.0
C      1  0.4811390000000  0.4798580000000  0.4584070000000 1.0
C      1  0.5329730000000  0.4813830000000  0.4723300000000 1.0
C      1  0.4664490000000  0.5304850000000  0.4853090000000 1.0
C      1  0.4835620000000  0.5340810000000  0.4561490000000 1.0
C      1  0.5176530000000  0.5317910000000  0.4589920000000 1.0
C      1  0.5386340000000  0.5355570000000  0.4860000000000 1.0
C      1  0.5318390000000  0.5299660000000  0.5188530000000 1.0
C      1  0.5048710000000  0.5316320000000  0.5395010000000 1.0
C      1  0.4711110000000  0.5348690000000  0.5369010000000 1.0
C      1  0.5118870000000  0.5761630000000  0.4692150000000 1.0
C      1  0.5299160000000  0.5673380000000  0.4894380000000 1.0
C      1  0.5227570000000  0.5750200000000  0.5158620000000 1.0
C      1  0.5012630000000  0.5642810000000  0.5307220000000 1.0
C      1  0.4728690000000  0.5648060000000  0.5206350000000 1.0
C      1  0.4701590000000  0.5701680000000  0.4929220000000 1.0
C      1  0.4855380000000  0.5654250000000  0.4691800000000 1.0
C      1  0.5346150000000  0.5025600000000  0.4226140000000 1.0
C      1  0.5851970000000  0.5000880000000  0.4861850000000 1.0
C      1  0.5665760000000  0.5029350000000  0.5528380000000 1.0
C      1  0.5048320000000  0.4970640000000  0.5863480000000 1.0
C      1  0.4263220000000  0.5071460000000  0.5506750000000 1.0
C      1  0.4141400000000  0.5040630000000  0.4798960000000 1.0
C      1  0.4611070000000  0.5032590000000  0.4175990000000 1.0
C      1  0.4877290000000  0.5281490000000  0.5080100000000 1.0
C      1  0.5028950000000  0.4804920000000  0.4807930000000 1.0
C      1  0.4947310000000  0.4581260000000  0.5000290000000 1.0
C      1  0.4959730000000  0.5052290000000  0.4945960000000 1.0
END
