TITL C-1154808-8168-87 0.00138999426629861 125000 -328.742941622222 0 0 60 (C1) n - 1
REM
REM in /home/nfs/bkarasulu/CARBON/AIRSS/Generating-Clusters/AIREBO/Higher-Symm/Only-C60
REM
REM
REM
REM
REM
REM ./C.cell (28575a23ae977d3b5fae324c64b13b57)
REM
REM compiler GCC version 9.2.1 20190827 (Red Hat 9.2.1-1)
REM options -cpp -mtune=generic -march=x86-64 -g -O0 -fpre-include=/usr/include/finclude/math-vector-fortran.h
REM seed 943464791 -1010570765 1766783428 -665478402 198196674 263627756 237719563 809537929 -1872476650 2064322552 1571132774 975575487 1801966358 1101705188 1399841679 482329109 1025360671 1719694517 1929309028 -956761724 789589263 1747594268 94243692 678954170 106098026 -264541756 -689754089 -1904625495 -389860852 -578519836 1918270696 -1754365510 1556596422
REM
CELL 1.54180   50.00000   50.00000   50.00000   90.00000   90.00000   90.00000
LATT -1
SFAC C  
C      1  0.4945410000000  0.5143260000000  0.5130700000000 1.0
C      1  0.5449210000000  0.4533660000000  0.4726330000000 1.0
C      1  0.4610200000000  0.5074430000000  0.4165920000000 1.0
C      1  0.5422740000000  0.5646830000000  0.4595480000000 1.0
C      1  0.5527550000000  0.4378750000000  0.4948170000000 1.0
C      1  0.5174990000000  0.4484160000000  0.4581450000000 1.0
C      1  0.5004040000000  0.4507140000000  0.4854330000000 1.0
C      1  0.4722840000000  0.5023710000000  0.4624720000000 1.0
C      1  0.4885210000000  0.4784850000000  0.5294280000000 1.0
C      1  0.4653890000000  0.4970700000000  0.5128160000000 1.0
C      1  0.5112740000000  0.4869870000000  0.5715620000000 1.0
C      1  0.5161970000000  0.4784040000000  0.4845620000000 1.0
C      1  0.5149960000000  0.4237840000000  0.4448820000000 1.0
C      1  0.4506840000000  0.5281930000000  0.5716570000000 1.0
C      1  0.4549790000000  0.5408850000000  0.4886610000000 1.0
C      1  0.4710310000000  0.5589420000000  0.4747680000000 1.0
C      1  0.5417680000000  0.5633620000000  0.5124940000000 1.0
C      1  0.4298710000000  0.5550740000000  0.5350830000000 1.0
C      1  0.4953450000000  0.4290630000000  0.5373750000000 1.0
C      1  0.4193350000000  0.5087300000000  0.5288750000000 1.0
C      1  0.4432690000000  0.5488230000000  0.5125200000000 1.0
C      1  0.5466380000000  0.5317450000000  0.4593140000000 1.0
C      1  0.5240220000000  0.5093860000000  0.5609890000000 1.0
C      1  0.4996350000000  0.5503430000000  0.4752240000000 1.0
C      1  0.5265880000000  0.5165430000000  0.4418890000000 1.0
C      1  0.5242530000000  0.5198960000000  0.5286480000000 1.0
C      1  0.5100790000000  0.4723370000000  0.4409590000000 1.0
C      1  0.4312010000000  0.4620160000000  0.5211610000000 1.0
C      1  0.4783940000000  0.4528860000000  0.5101290000000 1.0
C      1  0.4562230000000  0.4959410000000  0.4405760000000 1.0
C      1  0.5713690000000  0.5365910000000  0.5104460000000 1.0
C      1  0.4831480000000  0.4826220000000  0.5615850000000 1.0
C      1  0.5282780000000  0.5066940000000  0.4157750000000 1.0
C      1  0.4373320000000  0.4893990000000  0.5215950000000 1.0
C      1  0.4854660000000  0.5834530000000  0.4589050000000 1.0
C      1  0.5042520000000  0.4992060000000  0.4609640000000 1.0
C      1  0.4704440000000  0.4544870000000  0.5687400000000 1.0
C      1  0.5065440000000  0.5232270000000  0.4849190000000 1.0
C      1  0.4988570000000  0.4255840000000  0.5063620000000 1.0
C      1  0.5438700000000  0.4441500000000  0.5191410000000 1.0
C      1  0.5377090000000  0.5196530000000  0.3943220000000 1.0
C      1  0.5157170000000  0.5713810000000  0.4607530000000 1.0
C      1  0.5409270000000  0.4729180000000  0.5370290000000 1.0
C      1  0.5317760000000  0.4921240000000  0.5105040000000 1.0
C      1  0.5037130000000  0.5647040000000  0.5432290000000 1.0
C      1  0.5382400000000  0.5134080000000  0.4847880000000 1.0
C      1  0.4631870000000  0.5140510000000  0.4862890000000 1.0
C      1  0.5528160000000  0.5020100000000  0.5499700000000 1.0
C      1  0.5594050000000  0.5215480000000  0.5288500000000 1.0
C      1  0.5130110000000  0.4548520000000  0.5298600000000 1.0
C      1  0.4326960000000  0.5450700000000  0.5603350000000 1.0
C      1  0.5230370000000  0.5521850000000  0.5284910000000 1.0
C      1  0.4696650000000  0.4360330000000  0.5470610000000 1.0
C      1  0.4519960000000  0.4441080000000  0.5245590000000 1.0
C      1  0.5557010000000  0.5504290000000  0.4862460000000 1.0
C      1  0.5285720000000  0.4650100000000  0.5677100000000 1.0
C      1  0.5496200000000  0.4827230000000  0.4762260000000 1.0
C      1  0.5175790000000  0.4803670000000  0.4160000000000 1.0
C      1  0.4357160000000  0.4786440000000  0.4439400000000 1.0
C      1  0.4639690000000  0.5052790000000  0.5691230000000 1.0
END
