TITL C-1154823-9327-444 0.00437117093820543 125000 -323.766614013834 0 0 60 (C1) n - 1
REM
REM in /home/nfs/bkarasulu/CARBON/AIRSS/Generating-Clusters/AIREBO/Higher-Symm/Only-C60
REM
REM
REM
REM
REM
REM ./C.cell (28575a23ae977d3b5fae324c64b13b57)
REM
REM compiler GCC version 9.2.1 20190827 (Red Hat 9.2.1-1)
REM options -cpp -mtune=generic -march=x86-64 -g -O0 -fpre-include=/usr/include/finclude/math-vector-fortran.h
REM seed 230266925 -783907671 469745225 2132886581 600067447 28627659 -189329754 -1138000782 970290421 -1666961024 1065998094 1211389259 142580720 1740748992 1882766756 -2051852545 1198990370 -184586682 -163691038 -947268432 -571773202 1715298031 364712998 477522134 -2135246133 -2056257678 1524279043 1928014678 -119708715 -1370776238 -1813449615 -675687431 781992418
REM
CELL 1.54180   50.00000   50.00000   50.00000   90.00000   90.00000   90.00000
LATT -1
SFAC C  
C      1  0.5215980000000  0.5437510000000  0.5076340000000 1.0
C      1  0.4968000000000  0.5631110000000  0.5205270000000 1.0
C      1  0.4728820000000  0.5531640000000  0.5017540000000 1.0
C      1  0.4822800000000  0.5517860000000  0.4721950000000 1.0
C      1  0.5137010000000  0.5473360000000  0.4752600000000 1.0
C      1  0.5331030000000  0.4876140000000  0.5594320000000 1.0
C      1  0.4502090000000  0.4811230000000  0.5371130000000 1.0
C      1  0.4391750000000  0.4856390000000  0.4623930000000 1.0
C      1  0.5118490000000  0.4853010000000  0.4357920000000 1.0
C      1  0.5605410000000  0.4793520000000  0.5101910000000 1.0
C      1  0.5508300000000  0.5129560000000  0.4685010000000 1.0
C      1  0.5534650000000  0.5084980000000  0.5491460000000 1.0
C      1  0.4843330000000  0.5158300000000  0.5530790000000 1.0
C      1  0.4406380000000  0.5075260000000  0.4880430000000 1.0
C      1  0.4903470000000  0.5111370000000  0.4347580000000 1.0
C      1  0.4731030000000  0.4977140000000  0.4905680000000 1.0
C      1  0.4924110000000  0.5006770000000  0.4670810000000 1.0
C      1  0.5322160000000  0.5032530000000  0.4952540000000 1.0
C      1  0.5156530000000  0.4946690000000  0.5174690000000 1.0
C      1  0.4849680000000  0.5015980000000  0.5222000000000 1.0
C      1  0.5389470000000  0.5055730000000  0.4384270000000 1.0
C      1  0.5612340000000  0.5043080000000  0.5225990000000 1.0
C      1  0.5066410000000  0.5018760000000  0.5738050000000 1.0
C      1  0.4473000000000  0.5096660000000  0.5394820000000 1.0
C      1  0.4428280000000  0.5163400000000  0.4494610000000 1.0
C      1  0.5521930000000  0.5291880000000  0.5046220000000 1.0
C      1  0.5106540000000  0.5333760000000  0.5623210000000 1.0
C      1  0.4624750000000  0.5270710000000  0.5209070000000 1.0
C      1  0.4677450000000  0.5282700000000  0.4522460000000 1.0
C      1  0.5181690000000  0.5197220000000  0.4618980000000 1.0
C      1  0.5223540000000  0.4428230000000  0.5138290000000 1.0
C      1  0.4914640000000  0.4450170000000  0.5233420000000 1.0
C      1  0.4743200000000  0.4437200000000  0.4968520000000 1.0
C      1  0.4966240000000  0.4461900000000  0.4726610000000 1.0
C      1  0.5245720000000  0.4481020000000  0.4833720000000 1.0
C      1  0.4885800000000  0.4710440000000  0.4529200000000 1.0
C      1  0.5445570000000  0.4759700000000  0.4823430000000 1.0
C      1  0.5283400000000  0.4707520000000  0.5322930000000 1.0
C      1  0.4800440000000  0.4729390000000  0.5390660000000 1.0
C      1  0.4550480000000  0.4706380000000  0.4885030000000 1.0
C      1  0.5505960000000  0.4265860000000  0.5242130000000 1.0
C      1  0.4976170000000  0.4414120000000  0.5551230000000 1.0
C      1  0.4425740000000  0.4381050000000  0.5073820000000 1.0
C      1  0.4673280000000  0.4377540000000  0.4579510000000 1.0
C      1  0.5445880000000  0.4444700000000  0.4583090000000 1.0
C      1  0.5577120000000  0.4552640000000  0.5269280000000 1.0
C      1  0.5032000000000  0.4710160000000  0.5632260000000 1.0
C      1  0.4380180000000  0.4669650000000  0.5164220000000 1.0
C      1  0.4571180000000  0.4645030000000  0.4489000000000 1.0
C      1  0.5407450000000  0.4743440000000  0.4497580000000 1.0
C      1  0.5496390000000  0.5353890000000  0.5549080000000 1.0
C      1  0.4728030000000  0.5454240000000  0.5583450000000 1.0
C      1  0.4291630000000  0.5288410000000  0.4988390000000 1.0
C      1  0.4928960000000  0.5413610000000  0.4240780000000 1.0
C      1  0.5616730000000  0.5431910000000  0.4770430000000 1.0
C      1  0.5419320000000  0.5626810000000  0.4697980000000 1.0
C      1  0.5247740000000  0.5485700000000  0.5397220000000 1.0
C      1  0.4845090000000  0.5654590000000  0.5477960000000 1.0
C      1  0.4403710000000  0.5537890000000  0.5013690000000 1.0
C      1  0.4885520000000  0.5602560000000  0.4405490000000 1.0
END
