TITL C-1154824-75-345 5.08820737626325e-05 125000 -323.288278240599 0 0 60 (C1) n - 1
REM
REM in /home/nfs/bkarasulu/CARBON/AIRSS/Generating-Clusters/AIREBO/Higher-Symm/Only-C60
REM
REM
REM
REM
REM
REM ./C.cell (28575a23ae977d3b5fae324c64b13b57)
REM
REM compiler GCC version 9.2.1 20190827 (Red Hat 9.2.1-1)
REM options -cpp -mtune=generic -march=x86-64 -g -O0 -fpre-include=/usr/include/finclude/math-vector-fortran.h
REM seed -863346223 -239669174 1783683203 573641196 -768369704 346734527 -297388640 -1196238224 1212983172 546074277 -1333202334 -1383930319 -900667934 -1553083174 -144286754 -1953940168 -2142165593 1111911537 -1245322600 -796794754 491317925 1592221784 -1425508090 974116715 -507887705 -1610157811 836499730 -898974439 -35797986 1916366665 1234151414 -574752149 419949601
REM
CELL 1.54180   50.00000   50.00000   50.00000   90.00000   90.00000   90.00000
LATT -1
SFAC C  
C      1  0.4592930000000  0.4334180000000  0.5240390000000 1.0
C      1  0.5408290000000  0.4309860000000  0.4864100000000 1.0
C      1  0.5415930000000  0.5599090000000  0.5207080000000 1.0
C      1  0.4683770000000  0.5688210000000  0.4843090000000 1.0
C      1  0.5196860000000  0.4369530000000  0.4648720000000 1.0
C      1  0.4791030000000  0.4252000000000  0.5474290000000 1.0
C      1  0.5203370000000  0.5578410000000  0.5398460000000 1.0
C      1  0.4931530000000  0.5756170000000  0.4680300000000 1.0
C      1  0.5257730000000  0.4659910000000  0.4502690000000 1.0
C      1  0.4694180000000  0.4571350000000  0.5544700000000 1.0
C      1  0.4683020000000  0.5352150000000  0.4452070000000 1.0
C      1  0.5185280000000  0.5338660000000  0.5544850000000 1.0
C      1  0.4455550000000  0.4595230000000  0.5300950000000 1.0
C      1  0.5487910000000  0.4621080000000  0.4751970000000 1.0
C      1  0.4544250000000  0.5407020000000  0.4739130000000 1.0
C      1  0.5643680000000  0.5430820000000  0.5185520000000 1.0
C      1  0.4864300000000  0.5187740000000  0.4335630000000 1.0
C      1  0.4980980000000  0.5293540000000  0.5725500000000 1.0
C      1  0.5079970000000  0.4856780000000  0.4289940000000 1.0
C      1  0.4908640000000  0.4802390000000  0.5626320000000 1.0
C      1  0.4326980000000  0.5232100000000  0.4865620000000 1.0
C      1  0.5688530000000  0.5192880000000  0.5066360000000 1.0
C      1  0.4343710000000  0.4760610000000  0.5107040000000 1.0
C      1  0.5674050000000  0.4848120000000  0.4877730000000 1.0
C      1  0.4754060000000  0.5165540000000  0.5315560000000 1.0
C      1  0.5105760000000  0.4904090000000  0.4684060000000 1.0
C      1  0.5230650000000  0.5085340000000  0.5357020000000 1.0
C      1  0.4818500000000  0.4884140000000  0.4591040000000 1.0
C      1  0.5325780000000  0.5109340000000  0.4842520000000 1.0
C      1  0.4694190000000  0.4999350000000  0.5032700000000 1.0
C      1  0.5375110000000  0.4951110000000  0.5121080000000 1.0
C      1  0.4592460000000  0.4685850000000  0.4749750000000 1.0
C      1  0.5322750000000  0.4652720000000  0.5046160000000 1.0
C      1  0.4774320000000  0.4668760000000  0.5020120000000 1.0
C      1  0.4796020000000  0.5320980000000  0.4950860000000 1.0
C      1  0.5190640000000  0.5378730000000  0.4925300000000 1.0
C      1  0.4902760000000  0.4580650000000  0.5296280000000 1.0
C      1  0.5069080000000  0.4671140000000  0.4876410000000 1.0
C      1  0.4978350000000  0.5459640000000  0.4699170000000 1.0
C      1  0.5033990000000  0.5255790000000  0.5184800000000 1.0
C      1  0.4393340000000  0.5086060000000  0.5165450000000 1.0
C      1  0.5645970000000  0.5149350000000  0.4734740000000 1.0
C      1  0.5683800000000  0.4890610000000  0.5215970000000 1.0
C      1  0.4357090000000  0.4919560000000  0.4805010000000 1.0
C      1  0.5177430000000  0.5146850000000  0.4335410000000 1.0
C      1  0.4769420000000  0.5076740000000  0.5630730000000 1.0
C      1  0.5183650000000  0.4825540000000  0.5540340000000 1.0
C      1  0.4741190000000  0.4885280000000  0.4261040000000 1.0
C      1  0.5073000000000  0.4312460000000  0.5303040000000 1.0
C      1  0.4929120000000  0.4388660000000  0.4781390000000 1.0
C      1  0.4950470000000  0.5693260000000  0.5322520000000 1.0
C      1  0.5175480000000  0.5870360000000  0.4781940000000 1.0
C      1  0.5306640000000  0.4347610000000  0.5157560000000 1.0
C      1  0.4704980000000  0.4338590000000  0.4965550000000 1.0
C      1  0.5314730000000  0.5685640000000  0.4944720000000 1.0
C      1  0.4765120000000  0.5612930000000  0.5127830000000 1.0
C      1  0.4466490000000  0.5141100000000  0.5486340000000 1.0
C      1  0.5386480000000  0.5153080000000  0.4510760000000 1.0
C      1  0.4487990000000  0.4867870000000  0.4490560000000 1.0
C      1  0.5480720000000  0.4797450000000  0.5473800000000 1.0
END
