TITL C-1154828-9214-261 0.000894603466375467 125000 -295.782965504403 0 0 60 (C1) n - 1
REM
REM in /home/nfs/bkarasulu/CARBON/AIRSS/Generating-Clusters/AIREBO/Higher-Symm/Only-C60
REM
REM
REM
REM
REM
REM ./C.cell (28575a23ae977d3b5fae324c64b13b57)
REM
REM compiler GCC version 9.2.1 20190827 (Red Hat 9.2.1-1)
REM options -cpp -mtune=generic -march=x86-64 -g -O0 -fpre-include=/usr/include/finclude/math-vector-fortran.h
REM seed 1179533653 -2019730146 -1089412665 2002468261 -518999575 270975753 1059004349 1437200944 -1417785243 812189193 -1989658512 847544778 1399472580 654732746 491016928 69116017 -1318528915 1730616041 -1731675717 -287708904 804167757 -454164322 -1161767883 739342719 528355307 1096942080 664431143 -2094265068 -1127506094 -235736505 -1926050611 1850260070 -1545661952
REM
CELL 1.54180   50.00000   50.00000   50.00000   90.00000   90.00000   90.00000
LATT -1
SFAC C  
C      1  0.5177730000000  0.5265340000000  0.5040700000000 1.0
C      1  0.4541560000000  0.4620990000000  0.5522320000000 1.0
C      1  0.4283920000000  0.4878780000000  0.5137030000000 1.0
C      1  0.4769210000000  0.5071900000000  0.4314780000000 1.0
C      1  0.4670100000000  0.4618200000000  0.5274700000000 1.0
C      1  0.5420580000000  0.4956500000000  0.5284550000000 1.0
C      1  0.5625870000000  0.4618500000000  0.4976880000000 1.0
C      1  0.4562540000000  0.5397240000000  0.5598960000000 1.0
C      1  0.4659690000000  0.4834820000000  0.5012730000000 1.0
C      1  0.4519160000000  0.4410780000000  0.4829980000000 1.0
C      1  0.5481330000000  0.4792420000000  0.4464160000000 1.0
C      1  0.5308960000000  0.4817950000000  0.4175890000000 1.0
C      1  0.5256940000000  0.5516610000000  0.4825680000000 1.0
C      1  0.5103000000000  0.5118870000000  0.4743040000000 1.0
C      1  0.5139490000000  0.4839050000000  0.5255930000000 1.0
C      1  0.5051740000000  0.4687560000000  0.5694900000000 1.0
C      1  0.5395190000000  0.4945350000000  0.4755400000000 1.0
C      1  0.4768830000000  0.4633730000000  0.5748630000000 1.0
C      1  0.4385300000000  0.4643120000000  0.4952870000000 1.0
C      1  0.4577630000000  0.4897670000000  0.5668780000000 1.0
C      1  0.5197440000000  0.5274060000000  0.5380250000000 1.0
C      1  0.4896710000000  0.5690650000000  0.5201620000000 1.0
C      1  0.5829650000000  0.5065420000000  0.5021480000000 1.0
C      1  0.4999930000000  0.4847070000000  0.4286450000000 1.0
C      1  0.5106640000000  0.4463220000000  0.4675070000000 1.0
C      1  0.5545650000000  0.5186030000000  0.4568060000000 1.0
C      1  0.4981930000000  0.4733580000000  0.4973690000000 1.0
C      1  0.4870300000000  0.5351340000000  0.5157730000000 1.0
C      1  0.4419540000000  0.5205520000000  0.4692040000000 1.0
C      1  0.5475160000000  0.5165400000000  0.5529230000000 1.0
C      1  0.5183420000000  0.5577080000000  0.5319690000000 1.0
C      1  0.5316510000000  0.4454830000000  0.5170280000000 1.0
C      1  0.5202440000000  0.4611090000000  0.4427190000000 1.0
C      1  0.5468970000000  0.5426170000000  0.4575750000000 1.0
C      1  0.4749080000000  0.5408900000000  0.4783230000000 1.0
C      1  0.5409860000000  0.5687670000000  0.5152450000000 1.0
C      1  0.4776660000000  0.4439590000000  0.4677920000000 1.0
C      1  0.4521190000000  0.5421660000000  0.4456920000000 1.0
C      1  0.4961970000000  0.4884280000000  0.4607130000000 1.0
C      1  0.4964560000000  0.4555500000000  0.5326340000000 1.0
C      1  0.4785310000000  0.5349240000000  0.4382660000000 1.0
C      1  0.4659490000000  0.5147280000000  0.5464100000000 1.0
C      1  0.4563570000000  0.4964700000000  0.4497190000000 1.0
C      1  0.5555690000000  0.5484520000000  0.4985030000000 1.0
C      1  0.5079280000000  0.4971210000000  0.5749900000000 1.0
C      1  0.5248730000000  0.4527860000000  0.5481270000000 1.0
C      1  0.4640920000000  0.5570170000000  0.5034800000000 1.0
C      1  0.4713270000000  0.5110580000000  0.4834840000000 1.0
C      1  0.5495720000000  0.5147640000000  0.5014840000000 1.0
C      1  0.5140420000000  0.5790720000000  0.4991020000000 1.0
C      1  0.4427510000000  0.5324010000000  0.5010230000000 1.0
C      1  0.4423940000000  0.5122630000000  0.5216580000000 1.0
C      1  0.5692610000000  0.4826000000000  0.5143740000000 1.0
C      1  0.5012580000000  0.5417820000000  0.4608490000000 1.0
C      1  0.4691340000000  0.4741910000000  0.4687110000000 1.0
C      1  0.5207780000000  0.4260690000000  0.4928790000000 1.0
C      1  0.4946620000000  0.4401080000000  0.5035330000000 1.0
C      1  0.4857230000000  0.5024430000000  0.5216160000000 1.0
C      1  0.4982530000000  0.5156340000000  0.5570300000000 1.0
C      1  0.5299090000000  0.4646720000000  0.4887200000000 1.0
END
