TITL C-1154828-9214-546 0.00133575916687757 125000 -314.118751109579 0 0 60 (C1) n - 1
REM
REM in /home/nfs/bkarasulu/CARBON/AIRSS/Generating-Clusters/AIREBO/Higher-Symm/Only-C60
REM
REM
REM
REM
REM
REM ./C.cell (28575a23ae977d3b5fae324c64b13b57)
REM
REM compiler GCC version 9.2.1 20190827 (Red Hat 9.2.1-1)
REM options -cpp -mtune=generic -march=x86-64 -g -O0 -fpre-include=/usr/include/finclude/math-vector-fortran.h
REM seed -1775420161 428972755 -394156148 -89860534 -1985120421 1345871508 -1990755440 1256860384 -1704713337 -1656601816 -1797513723 -1130228668 514854866 -1698045272 -738874379 -1289509816 -1955812192 -923458242 1689098472 -1258026846 780316486 -1926282019 1708403365 -1745202426 -1131780763 1502998196 -1659587651 1543744005 -216881304 2070973925 1682986629 1288323032 1181494186
REM
CELL 1.54180   50.00000   50.00000   50.00000   90.00000   90.00000   90.00000
LATT -1
SFAC C  
C      1  0.4554250000000  0.4761590000000  0.5596100000000 1.0
C      1  0.5234170000000  0.4831780000000  0.4215220000000 1.0
C      1  0.5401230000000  0.5293930000000  0.5669840000000 1.0
C      1  0.4580370000000  0.5160440000000  0.4370820000000 1.0
C      1  0.5516990000000  0.5135990000000  0.4620810000000 1.0
C      1  0.4383940000000  0.5226680000000  0.5312110000000 1.0
C      1  0.4545710000000  0.4657940000000  0.4579140000000 1.0
C      1  0.5614180000000  0.4843140000000  0.5333830000000 1.0
C      1  0.5193440000000  0.4977880000000  0.4446780000000 1.0
C      1  0.4670170000000  0.4963790000000  0.5388830000000 1.0
C      1  0.4671990000000  0.5152690000000  0.4636810000000 1.0
C      1  0.5253290000000  0.5133790000000  0.5493820000000 1.0
C      1  0.4660930000000  0.4400560000000  0.5084820000000 1.0
C      1  0.5251910000000  0.4448020000000  0.4853700000000 1.0
C      1  0.5578550000000  0.5636940000000  0.5149810000000 1.0
C      1  0.4628160000000  0.5636290000000  0.4939160000000 1.0
C      1  0.5221690000000  0.5119640000000  0.4754590000000 1.0
C      1  0.4643760000000  0.5164650000000  0.5113900000000 1.0
C      1  0.4768870000000  0.4896460000000  0.4807520000000 1.0
C      1  0.5178810000000  0.5019180000000  0.5180540000000 1.0
C      1  0.4866400000000  0.5401670000000  0.5021290000000 1.0
C      1  0.5194310000000  0.5312210000000  0.5008690000000 1.0
C      1  0.5244360000000  0.4773750000000  0.4951480000000 1.0
C      1  0.4716110000000  0.4733730000000  0.5065560000000 1.0
C      1  0.4855920000000  0.5631930000000  0.5267420000000 1.0
C      1  0.5257350000000  0.5592700000000  0.4826850000000 1.0
C      1  0.5228220000000  0.4453680000000  0.5250900000000 1.0
C      1  0.4872000000000  0.4125630000000  0.4753250000000 1.0
C      1  0.4813960000000  0.4584620000000  0.4563570000000 1.0
C      1  0.5377020000000  0.4845310000000  0.5478700000000 1.0
C      1  0.5295450000000  0.5303620000000  0.4428450000000 1.0
C      1  0.4624800000000  0.5262510000000  0.5544790000000 1.0
C      1  0.4784720000000  0.4182770000000  0.5008110000000 1.0
C      1  0.5289060000000  0.4238910000000  0.5070340000000 1.0
C      1  0.5426100000000  0.5771050000000  0.4960220000000 1.0
C      1  0.4707720000000  0.5864190000000  0.5131810000000 1.0
C      1  0.5704410000000  0.5171550000000  0.4903110000000 1.0
C      1  0.4147480000000  0.5188380000000  0.5066950000000 1.0
C      1  0.4309220000000  0.4619230000000  0.4792030000000 1.0
C      1  0.5664260000000  0.4631410000000  0.5171360000000 1.0
C      1  0.4403260000000  0.4595840000000  0.5076060000000 1.0
C      1  0.5560620000000  0.4671140000000  0.4880150000000 1.0
C      1  0.5514180000000  0.5332540000000  0.5122700000000 1.0
C      1  0.4417600000000  0.5182820000000  0.4860460000000 1.0
C      1  0.5171590000000  0.4668650000000  0.5407920000000 1.0
C      1  0.4885000000000  0.4313040000000  0.4551590000000 1.0
C      1  0.4844970000000  0.5503740000000  0.5506310000000 1.0
C      1  0.5121080000000  0.5472440000000  0.4595320000000 1.0
C      1  0.4419960000000  0.5514890000000  0.4814560000000 1.0
C      1  0.5975630000000  0.5204410000000  0.5381770000000 1.0
C      1  0.5791000000000  0.4606820000000  0.4634880000000 1.0
C      1  0.4199120000000  0.4709020000000  0.5275990000000 1.0
C      1  0.5730700000000  0.5104840000000  0.5235780000000 1.0
C      1  0.4346770000000  0.4907720000000  0.4673510000000 1.0
C      1  0.4158510000000  0.4972640000000  0.5296250000000 1.0
C      1  0.5719170000000  0.4905930000000  0.4715280000000 1.0
C      1  0.5043710000000  0.4790150000000  0.4679550000000 1.0
C      1  0.4927310000000  0.4822940000000  0.5284380000000 1.0
C      1  0.4879900000000  0.5365860000000  0.4688660000000 1.0
C      1  0.4958670000000  0.5204350000000  0.5505880000000 1.0
END
