TITL C-1154804-8633-499 0.00118890189019834 125000 -333.962051242446 0 0 60 (C1) n - 1
REM
REM in /home/nfs/bkarasulu/CARBON/AIRSS/Generating-Clusters/AIREBO/Higher-Symm/Only-C60
REM
REM
REM
REM
REM
REM ./C.cell (28575a23ae977d3b5fae324c64b13b57)
REM
REM compiler GCC version 9.2.1 20190827 (Red Hat 9.2.1-1)
REM options -cpp -mtune=generic -march=x86-64 -g -O0 -fpre-include=/usr/include/finclude/math-vector-fortran.h
REM seed -871783598 2130082722 1380010437 -1595966449 833005167 882908603 507065357 946129370 990206792 -1049259819 -1430081732 872949010 726539924 -1709151871 -1881022424 -71031005 997054122 -161857215 -1883837832 189909189 90831242 1476754564 -520671494 -1667301617 707737375 176655653 55710326 1602618609 334515047 1942559123 447035535 1045162190 -1347340504
REM
CELL 1.54180   50.00000   50.00000   50.00000   90.00000   90.00000   90.00000
LATT -1
SFAC C  
C      1  0.5831200000000  0.4828660000000  0.5064380000000 1.0
C      1  0.4858400000000  0.5616420000000  0.4823580000000 1.0
C      1  0.4931460000000  0.4819600000000  0.5680400000000 1.0
C      1  0.5641940000000  0.5250640000000  0.5104800000000 1.0
C      1  0.4251870000000  0.5292850000000  0.4990510000000 1.0
C      1  0.4202480000000  0.4862030000000  0.5173220000000 1.0
C      1  0.4813730000000  0.4379980000000  0.5004280000000 1.0
C      1  0.5212880000000  0.4318110000000  0.4766090000000 1.0
C      1  0.5133480000000  0.5642150000000  0.5204160000000 1.0
C      1  0.4859440000000  0.5173130000000  0.4376180000000 1.0
C      1  0.5152280000000  0.5129490000000  0.5697090000000 1.0
C      1  0.5205930000000  0.4878530000000  0.4224810000000 1.0
C      1  0.4251410000000  0.4739040000000  0.4925680000000 1.0
C      1  0.5100170000000  0.5624370000000  0.4659050000000 1.0
C      1  0.5243840000000  0.4832890000000  0.5740920000000 1.0
C      1  0.4294270000000  0.5121920000000  0.5218460000000 1.0
C      1  0.5713170000000  0.5051310000000  0.4942410000000 1.0
C      1  0.5657320000000  0.4667330000000  0.5213530000000 1.0
C      1  0.5087120000000  0.4306130000000  0.5034510000000 1.0
C      1  0.4733610000000  0.4327860000000  0.4715390000000 1.0
C      1  0.4882770000000  0.5622020000000  0.5111490000000 1.0
C      1  0.5167420000000  0.5137600000000  0.4426520000000 1.0
C      1  0.4792010000000  0.5099330000000  0.5758250000000 1.0
C      1  0.4884200000000  0.4880330000000  0.4312580000000 1.0
C      1  0.4415200000000  0.5207150000000  0.4776290000000 1.0
C      1  0.4754230000000  0.4674440000000  0.5093180000000 1.0
C      1  0.5196150000000  0.4748980000000  0.4515120000000 1.0
C      1  0.4626150000000  0.4906120000000  0.5279960000000 1.0
C      1  0.5420060000000  0.4738420000000  0.4673200000000 1.0
C      1  0.5375940000000  0.5337310000000  0.5294300000000 1.0
C      1  0.4623180000000  0.5425050000000  0.4724680000000 1.0
C      1  0.5398110000000  0.5557320000000  0.5036280000000 1.0
C      1  0.5450490000000  0.4488590000000  0.4797430000000 1.0
C      1  0.5196420000000  0.5360640000000  0.5546530000000 1.0
C      1  0.4750820000000  0.5413880000000  0.4442970000000 1.0
C      1  0.4916670000000  0.4759490000000  0.5373330000000 1.0
C      1  0.5583200000000  0.5008250000000  0.4672380000000 1.0
C      1  0.5271870000000  0.4407460000000  0.5220980000000 1.0
C      1  0.4868750000000  0.4669490000000  0.4561000000000 1.0
C      1  0.5492110000000  0.4793860000000  0.5398970000000 1.0
C      1  0.4404660000000  0.4911630000000  0.4699380000000 1.0
C      1  0.4590820000000  0.5232090000000  0.5308700000000 1.0
C      1  0.5308660000000  0.5460270000000  0.4757120000000 1.0
C      1  0.4606870000000  0.5450620000000  0.5081850000000 1.0
C      1  0.4613520000000  0.4647460000000  0.4784770000000 1.0
C      1  0.4733360000000  0.5331350000000  0.5553150000000 1.0
C      1  0.5348340000000  0.5216660000000  0.4628080000000 1.0
C      1  0.5211580000000  0.4618880000000  0.5478480000000 1.0
C      1  0.4938680000000  0.5628300000000  0.4412500000000 1.0
C      1  0.4563480000000  0.4943060000000  0.5583830000000 1.0
C      1  0.5152550000000  0.4385020000000  0.5672630000000 1.0
C      1  0.4299630000000  0.4879490000000  0.4437930000000 1.0
C      1  0.5492280000000  0.5059120000000  0.5421260000000 1.0
C      1  0.5774180000000  0.5019190000000  0.4462960000000 1.0
C      1  0.5512080000000  0.4472930000000  0.5079820000000 1.0
C      1  0.5005740000000  0.4358490000000  0.4572690000000 1.0
C      1  0.4949690000000  0.5499700000000  0.5529290000000 1.0
C      1  0.4297840000000  0.5589190000000  0.5051010000000 1.0
C      1  0.5615960000000  0.5732130000000  0.5040150000000 1.0
C      1  0.4338350000000  0.4466260000000  0.4869500000000 1.0
END
