TITL C-1154823-9327-658 0.000774112131134379 125000 -328.220715564501 0 0 60 (C5) n - 1
REM
REM in /home/nfs/bkarasulu/CARBON/AIRSS/Generating-Clusters/AIREBO/Higher-Symm/Only-C60
REM
REM
REM
REM
REM
REM ./C.cell (28575a23ae977d3b5fae324c64b13b57)
REM
REM compiler GCC version 9.2.1 20190827 (Red Hat 9.2.1-1)
REM options -cpp -mtune=generic -march=x86-64 -g -O0 -fpre-include=/usr/include/finclude/math-vector-fortran.h
REM seed 1204206874 2031125525 -869770648 -219172951 70730413 520647260 141543134 1937820976 856142862 -1789626152 1724402708 1812388388 1681822848 1933357768 1106363690 -700014400 -1197127204 -2090720039 -93763135 185184053 -1134767381 2063905235 -933344462 785787085 -1180309373 1210560399 717293641 109868132 -661613825 -2058054199 -987712750 -1093206492 -1161786699
REM
CELL 1.54180   50.00000   50.00000   50.00000   90.00000   90.00000   90.00000
LATT -1
SFAC C  
C      1  0.4805350000000  0.5042410000000  0.4745680000000 1.0
C      1  0.4805440000000  0.4771150000000  0.4881070000000 1.0
C      1  0.4805510000000  0.4816100000000  0.5180890000000 1.0
C      1  0.4805460000000  0.5115130000000  0.5230800000000 1.0
C      1  0.4805360000000  0.5255000000000  0.4961820000000 1.0
C      1  0.5362000000000  0.4789520000000  0.5436690000000 1.0
C      1  0.5361850000000  0.5350420000000  0.5335140000000 1.0
C      1  0.5361680000000  0.5427160000000  0.4770300000000 1.0
C      1  0.5361730000000  0.4913690000000  0.4522770000000 1.0
C      1  0.5361930000000  0.4519600000000  0.4934620000000 1.0
C      1  0.5182840000000  0.5760750000000  0.5081790000000 1.0
C      1  0.5182740000000  0.5312940000000  0.4301760000000 1.0
C      1  0.5182980000000  0.4432710000000  0.4486610000000 1.0
C      1  0.5183240000000  0.4336510000000  0.5380880000000 1.0
C      1  0.5183150000000  0.5157280000000  0.5748720000000 1.0
C      1  0.4793960000000  0.4723030000000  0.4329560000000 1.0
C      1  0.4794250000000  0.4276700000000  0.5056230000000 1.0
C      1  0.4794300000000  0.4829890000000  0.5705270000000 1.0
C      1  0.4794040000000  0.5618100000000  0.5379720000000 1.0
C      1  0.4793830000000  0.5552060000000  0.4529490000000 1.0
C      1  0.4535650000000  0.5175570000000  0.5411300000000 1.0
C      1  0.4535470000000  0.5445230000000  0.4960110000000 1.0
C      1  0.4535440000000  0.5099460000000  0.4564220000000 1.0
C      1  0.4535600000000  0.4616100000000  0.4770730000000 1.0
C      1  0.4535730000000  0.4663130000000  0.5294250000000 1.0
C      1  0.4911890000000  0.5814590000000  0.4934890000000 1.0
C      1  0.4911830000000  0.5189760000000  0.4205160000000 1.0
C      1  0.4912120000000  0.4302670000000  0.4573900000000 1.0
C      1  0.4912360000000  0.4379230000000  0.5531530000000 1.0
C      1  0.4912210000000  0.5313650000000  0.5754630000000 1.0
C      1  0.5496240000000  0.5277560000000  0.5036110000000 1.0
C      1  0.5496200000000  0.5120310000000  0.4747190000000 1.0
C      1  0.5496280000000  0.4796940000000  0.4807470000000 1.0
C      1  0.5496380000000  0.4754340000000  0.5133640000000 1.0
C      1  0.5496350000000  0.5051380000000  0.5274940000000 1.0
C      1  0.4980360000000  0.4680300000000  0.5388900000000 1.0
C      1  0.4980230000000  0.5271060000000  0.5424230000000 1.0
C      1  0.4980040000000  0.5487220000000  0.4873300000000 1.0
C      1  0.4980040000000  0.5030050000000  0.4497470000000 1.0
C      1  0.4980240000000  0.4531350000000  0.4816130000000 1.0
C      1  0.5111960000000  0.5434540000000  0.4564180000000 1.0
C      1  0.5112090000000  0.4719840000000  0.4452060000000 1.0
C      1  0.5112330000000  0.4392350000000  0.5097130000000 1.0
C      1  0.5112350000000  0.4904640000000  0.5607930000000 1.0
C      1  0.5112120000000  0.5548750000000  0.5278550000000 1.0
C      1  0.4588990000000  0.4479320000000  0.5048020000000 1.0
C      1  0.4589020000000  0.4884610000000  0.5510030000000 1.0
C      1  0.4588840000000  0.5449240000000  0.5267340000000 1.0
C      1  0.4588690000000  0.5392910000000  0.4655350000000 1.0
C      1  0.4588780000000  0.4793470000000  0.4519800000000 1.0
C      1  0.5265460000000  0.5443630000000  0.5632130000000 1.0
C      1  0.5265170000000  0.5738390000000  0.4773420000000 1.0
C      1  0.5265190000000  0.5012790000000  0.4227750000000 1.0
C      1  0.5265490000000  0.4269600000000  0.4749200000000 1.0
C      1  0.5265660000000  0.4535880000000  0.5617150000000 1.0
C      1  0.4964840000000  0.5798230000000  0.4622360000000 1.0
C      1  0.4964910000000  0.4887490000000  0.4124140000000 1.0
C      1  0.4965260000000  0.4132230000000  0.4836340000000 1.0
C      1  0.4965410000000  0.4576180000000  0.5774730000000 1.0
C      1  0.4965150000000  0.5605830000000  0.5642480000000 1.0
END
