TITL C-1154823-9327-478 0.000968701118142346 125000 -313.432083734295 0 0 60 (C2) n - 1
REM
REM in /home/nfs/bkarasulu/CARBON/AIRSS/Generating-Clusters/AIREBO/Higher-Symm/Only-C60
REM
REM
REM
REM
REM
REM ./C.cell (28575a23ae977d3b5fae324c64b13b57)
REM
REM compiler GCC version 9.2.1 20190827 (Red Hat 9.2.1-1)
REM options -cpp -mtune=generic -march=x86-64 -g -O0 -fpre-include=/usr/include/finclude/math-vector-fortran.h
REM seed 554407066 -1887781997 -328523769 729372159 725083706 340747832 -891027443 -2016193314 -2105119182 1499269433 -305397582 1490654251 679484412 658253063 1772074380 -491050837 2029851375 -1285086326 -390114205 1461131251 944228411 -1863264598 -1245619940 484346964 618752951 817803419 -1777325510 -614696967 -1003787545 372540415 1611339967 1469303953 1184294683
REM
CELL 1.54180   50.00000   50.00000   50.00000   90.00000   90.00000   90.00000
LATT -1
SFAC C  
C      1  0.5507870000000  0.4872750000000  0.5548650000000 1.0
C      1  0.5329920000000  0.4622630000000  0.5695230000000 1.0
C      1  0.5022590000000  0.4562530000000  0.5596950000000 1.0
C      1  0.4696270000000  0.4535540000000  0.5576710000000 1.0
C      1  0.4536240000000  0.4813820000000  0.5631610000000 1.0
C      1  0.4493140000000  0.5128020000000  0.5548600000000 1.0
C      1  0.4670700000000  0.5377840000000  0.5695820000000 1.0
C      1  0.4978080000000  0.5437340000000  0.5596520000000 1.0
C      1  0.5304600000000  0.5464610000000  0.5574810000000 1.0
C      1  0.5464990000000  0.5187340000000  0.5633650000000 1.0
C      1  0.4515990000000  0.5301090000000  0.5191210000000 1.0
C      1  0.4780850000000  0.5448570000000  0.5091460000000 1.0
C      1  0.5108780000000  0.5417090000000  0.5053580000000 1.0
C      1  0.5366800000000  0.5249480000000  0.5021040000000 1.0
C      1  0.5557480000000  0.4981260000000  0.5136080000000 1.0
C      1  0.5483240000000  0.4699050000000  0.5191640000000 1.0
C      1  0.5219150000000  0.4550900000000  0.5091460000000 1.0
C      1  0.4891270000000  0.4583300000000  0.5053640000000 1.0
C      1  0.4633180000000  0.4750700000000  0.5020550000000 1.0
C      1  0.4442250000000  0.5018410000000  0.5136120000000 1.0
C      1  0.5619620000000  0.5011970000000  0.4822280000000 1.0
C      1  0.5490850000000  0.4770080000000  0.4664190000000 1.0
C      1  0.5334590000000  0.4498660000000  0.4801680000000 1.0
C      1  0.5009530000000  0.4445140000000  0.4770570000000 1.0
C      1  0.4493700000000  0.4692320000000  0.4740120000000 1.0
C      1  0.4379910000000  0.4987900000000  0.4822080000000 1.0
C      1  0.4508780000000  0.5229730000000  0.4664060000000 1.0
C      1  0.4665130000000  0.5500980000000  0.4801740000000 1.0
C      1  0.4990180000000  0.5554820000000  0.4770530000000 1.0
C      1  0.5506110000000  0.5307540000000  0.4740360000000 1.0
C      1  0.4924760000000  0.4595310000000  0.4523110000000 1.0
C      1  0.4676580000000  0.4699770000000  0.4505910000000 1.0
C      1  0.4620780000000  0.4901230000000  0.4321280000000 1.0
C      1  0.4650380000000  0.5163780000000  0.4407250000000 1.0
C      1  0.4866760000000  0.5330630000000  0.4352530000000 1.0
C      1  0.5075000000000  0.5404530000000  0.4523190000000 1.0
C      1  0.5323170000000  0.5300060000000  0.4506170000000 1.0
C      1  0.5379000000000  0.5098650000000  0.4321480000000 1.0
C      1  0.5349360000000  0.4836070000000  0.4407340000000 1.0
C      1  0.5133040000000  0.4669200000000  0.4352490000000 1.0
C      1  0.4425120000000  0.5722230000000  0.4717340000000 1.0
C      1  0.5060890000000  0.5852560000000  0.4760440000000 1.0
C      1  0.5703560000000  0.5537560000000  0.4743460000000 1.0
C      1  0.5924210000000  0.5006330000000  0.4768440000000 1.0
C      1  0.5696420000000  0.4513370000000  0.4636200000000 1.0
C      1  0.5574750000000  0.4277600000000  0.4717190000000 1.0
C      1  0.4938450000000  0.4147480000000  0.4760790000000 1.0
C      1  0.4296430000000  0.4462150000000  0.4743490000000 1.0
C      1  0.4075340000000  0.4993450000000  0.4768330000000 1.0
C      1  0.4303370000000  0.5486580000000  0.4636070000000 1.0
C      1  0.5476710000000  0.5327600000000  0.5315510000000 1.0
C      1  0.5712890000000  0.5106720000000  0.5411440000000 1.0
C      1  0.5581090000000  0.4552100000000  0.5477150000000 1.0
C      1  0.5268660000000  0.4438830000000  0.5399660000000 1.0
C      1  0.4878410000000  0.4424580000000  0.5318980000000 1.0
C      1  0.4523580000000  0.4671610000000  0.5314540000000 1.0
C      1  0.4288600000000  0.4892770000000  0.5412390000000 1.0
C      1  0.4418210000000  0.5448940000000  0.5476680000000 1.0
C      1  0.4731290000000  0.5560440000000  0.5399560000000 1.0
C      1  0.5121370000000  0.5576430000000  0.5318660000000 1.0
END
