TITL C-1154808-8168-721 -0.00217577723337287 125000 -336.911346816205 0 0 60 (C1) n - 1
REM
REM in /home/nfs/bkarasulu/CARBON/AIRSS/Generating-Clusters/AIREBO/Higher-Symm/Only-C60
REM
REM
REM
REM
REM
REM ./C.cell (28575a23ae977d3b5fae324c64b13b57)
REM
REM compiler GCC version 9.2.1 20190827 (Red Hat 9.2.1-1)
REM options -cpp -mtune=generic -march=x86-64 -g -O0 -fpre-include=/usr/include/finclude/math-vector-fortran.h
REM seed 1548832320 1523125981 -1401791737 1347879451 2008489263 1032204581 167393207 -1674738795 1590166188 1347973428 -703332914 427982488 -1885762645 470107252 -1982609788 610698971 -1140705739 -37136028 1476230656 1763170961 -1467620984 -1093540700 1406075254 1357098723 -220284575 -2064598007 -777852715 -184178578 -749613575 -2017496486 -1158294995 -1187381558 1507922679
REM
CELL 1.54180   50.00000   50.00000   50.00000   90.00000   90.00000   90.00000
LATT -1
SFAC C  
C      1  0.5693980000000  0.4755770000000  0.4715100000000 1.0
C      1  0.5703340000000  0.4859830000000  0.5431150000000 1.0
C      1  0.5690340000000  0.5401630000000  0.4881520000000 1.0
C      1  0.4307010000000  0.4693480000000  0.4689410000000 1.0
C      1  0.4310400000000  0.4902270000000  0.5340700000000 1.0
C      1  0.4288890000000  0.5454750000000  0.4924350000000 1.0
C      1  0.5709830000000  0.5300480000000  0.4653510000000 1.0
C      1  0.5676420000000  0.5105890000000  0.5392320000000 1.0
C      1  0.5681860000000  0.4620550000000  0.4924970000000 1.0
C      1  0.4319950000000  0.5274150000000  0.4753270000000 1.0
C      1  0.4297540000000  0.5151510000000  0.5359610000000 1.0
C      1  0.4285710000000  0.4540070000000  0.4889290000000 1.0
C      1  0.5159470000000  0.4779930000000  0.5329710000000 1.0
C      1  0.5155280000000  0.5326120000000  0.4941820000000 1.0
C      1  0.5143360000000  0.4799600000000  0.4662780000000 1.0
C      1  0.4850480000000  0.4906150000000  0.5291290000000 1.0
C      1  0.4847140000000  0.5437130000000  0.5033080000000 1.0
C      1  0.4851890000000  0.4757650000000  0.4804800000000 1.0
C      1  0.5145000000000  0.5095850000000  0.5295370000000 1.0
C      1  0.5148600000000  0.4664890000000  0.4965080000000 1.0
C      1  0.5163530000000  0.5181510000000  0.4651600000000 1.0
C      1  0.4857120000000  0.5231640000000  0.5355950000000 1.0
C      1  0.4873930000000  0.4502400000000  0.5028610000000 1.0
C      1  0.4859310000000  0.5220200000000  0.4792790000000 1.0
C      1  0.5459360000000  0.4651980000000  0.5401280000000 1.0
C      1  0.5429850000000  0.5430950000000  0.5067250000000 1.0
C      1  0.5437840000000  0.4861260000000  0.4546540000000 1.0
C      1  0.4578770000000  0.4733420000000  0.5291370000000 1.0
C      1  0.4535140000000  0.5546810000000  0.5112220000000 1.0
C      1  0.4586450000000  0.4842810000000  0.4642550000000 1.0
C      1  0.5403640000000  0.5260990000000  0.5312580000000 1.0
C      1  0.5416420000000  0.4561960000000  0.5099190000000 1.0
C      1  0.5462610000000  0.5170750000000  0.4490210000000 1.0
C      1  0.4559140000000  0.5343110000000  0.5353160000000 1.0
C      1  0.4547240000000  0.4504770000000  0.5071530000000 1.0
C      1  0.4596740000000  0.5135520000000  0.4660310000000 1.0
C      1  0.5383120000000  0.4379860000000  0.4813690000000 1.0
C      1  0.5357630000000  0.5146300000000  0.5629420000000 1.0
C      1  0.5379250000000  0.5496940000000  0.4545220000000 1.0
C      1  0.4616090000000  0.4346130000000  0.4776440000000 1.0
C      1  0.4587640000000  0.5149930000000  0.5633660000000 1.0
C      1  0.4625470000000  0.5464210000000  0.4579760000000 1.0
C      1  0.5371570000000  0.5627110000000  0.4795630000000 1.0
C      1  0.5371710000000  0.4863750000000  0.5654080000000 1.0
C      1  0.5407840000000  0.4521470000000  0.4564710000000 1.0
C      1  0.4612690000000  0.5650190000000  0.4796240000000 1.0
C      1  0.4608030000000  0.4862670000000  0.5604600000000 1.0
C      1  0.4644190000000  0.4524620000000  0.4556140000000 1.0
C      1  0.4832020000000  0.5498430000000  0.4384040000000 1.0
C      1  0.4907790000000  0.4224850000000  0.4873320000000 1.0
C      1  0.4880750000000  0.5281580000000  0.5677380000000 1.0
C      1  0.5098180000000  0.5426230000000  0.4424780000000 1.0
C      1  0.5181880000000  0.4171960000000  0.4827300000000 1.0
C      1  0.5146010000000  0.5282860000000  0.5769140000000 1.0
C      1  0.4858540000000  0.4492850000000  0.4369140000000 1.0
C      1  0.4897530000000  0.5743030000000  0.4896010000000 1.0
C      1  0.4823680000000  0.4728690000000  0.5740020000000 1.0
C      1  0.5121440000000  0.4569240000000  0.4428670000000 1.0
C      1  0.5162790000000  0.5816800000000  0.4846650000000 1.0
C      1  0.5090520000000  0.4722530000000  0.5657680000000 1.0
END
