TITL C-1154824-75-99 0.00107179696749808 125000 -323.608047017702 0 0 60 (C1) n - 1
REM
REM in /home/nfs/bkarasulu/CARBON/AIRSS/Generating-Clusters/AIREBO/Higher-Symm/Only-C60
REM
REM
REM
REM
REM
REM ./C.cell (28575a23ae977d3b5fae324c64b13b57)
REM
REM compiler GCC version 9.2.1 20190827 (Red Hat 9.2.1-1)
REM options -cpp -mtune=generic -march=x86-64 -g -O0 -fpre-include=/usr/include/finclude/math-vector-fortran.h
REM seed -331117102 -1900934141 -1301248766 1387486705 -1495206703 257419804 2028015763 767909268 1867483820 2028110655 -1588813283 907028926 -1675303424 925935436 413421296 -1888468630 1984348621 1051585742 -1908744902 -403337636 184366467 2139216816 1060231447 -672880796 -1575338121 -1296361076 1508521617 1073325055 735029914 1701121798 -1837129241 1672647313 -1824547805
REM
CELL 1.54180   50.00000   50.00000   50.00000   90.00000   90.00000   90.00000
LATT -1
SFAC C  
C      1  0.5032440000000  0.5116400000000  0.5079280000000 1.0
C      1  0.5037770000000  0.4716930000000  0.5059820000000 1.0
C      1  0.5540240000000  0.5218290000000  0.4428270000000 1.0
C      1  0.4858870000000  0.5120310000000  0.4546830000000 1.0
C      1  0.5183330000000  0.4491880000000  0.5272600000000 1.0
C      1  0.4157880000000  0.4838930000000  0.4708730000000 1.0
C      1  0.4574760000000  0.5502480000000  0.5274400000000 1.0
C      1  0.4569650000000  0.4735920000000  0.4495550000000 1.0
C      1  0.4979960000000  0.5283010000000  0.5825220000000 1.0
C      1  0.5311710000000  0.4860030000000  0.5202170000000 1.0
C      1  0.3908560000000  0.4844570000000  0.4804240000000 1.0
C      1  0.5604220000000  0.5218640000000  0.4163170000000 1.0
C      1  0.4600620000000  0.5421080000000  0.4981060000000 1.0
C      1  0.5203220000000  0.4694300000000  0.5726430000000 1.0
C      1  0.5392970000000  0.5935640000000  0.5626260000000 1.0
C      1  0.4489040000000  0.5055410000000  0.4411550000000 1.0
C      1  0.4622110000000  0.5592090000000  0.4696920000000 1.0
C      1  0.5053310000000  0.4519560000000  0.5522680000000 1.0
C      1  0.5753510000000  0.4368160000000  0.4738940000000 1.0
C      1  0.5073380000000  0.5369500000000  0.4630490000000 1.0
C      1  0.5508460000000  0.4800040000000  0.5635630000000 1.0
C      1  0.4814930000000  0.4633670000000  0.4340640000000 1.0
C      1  0.5085210000000  0.5166560000000  0.5355730000000 1.0
C      1  0.4984460000000  0.4462000000000  0.4522430000000 1.0
C      1  0.4071200000000  0.5045880000000  0.5233070000000 1.0
C      1  0.5674690000000  0.5013070000000  0.4590920000000 1.0
C      1  0.4516320000000  0.5044330000000  0.5432740000000 1.0
C      1  0.5359340000000  0.5425220000000  0.4514750000000 1.0
C      1  0.5705780000000  0.4758090000000  0.5443420000000 1.0
C      1  0.4766340000000  0.4572950000000  0.5463730000000 1.0
C      1  0.4932870000000  0.5343780000000  0.5554160000000 1.0
C      1  0.5239720000000  0.4947880000000  0.5502740000000 1.0
C      1  0.4782840000000  0.4936550000000  0.5009110000000 1.0
C      1  0.5157910000000  0.5107470000000  0.4811970000000 1.0
C      1  0.4731960000000  0.4925340000000  0.4698900000000 1.0
C      1  0.5281430000000  0.4418290000000  0.4955470000000 1.0
C      1  0.5519710000000  0.4794940000000  0.4669620000000 1.0
C      1  0.4961690000000  0.5649410000000  0.5493810000000 1.0
C      1  0.4596470000000  0.4789420000000  0.5529630000000 1.0
C      1  0.5581410000000  0.4800550000000  0.5188180000000 1.0
C      1  0.4788450000000  0.4995090000000  0.4261370000000 1.0
C      1  0.4639200000000  0.5292200000000  0.5461280000000 1.0
C      1  0.5439550000000  0.5688480000000  0.4500200000000 1.0
C      1  0.5102450000000  0.4604180000000  0.4745610000000 1.0
C      1  0.4726200000000  0.5731420000000  0.5354400000000 1.0
C      1  0.4504460000000  0.5125090000000  0.4955460000000 1.0
C      1  0.5187250000000  0.5792380000000  0.5549810000000 1.0
C      1  0.4353440000000  0.5053970000000  0.4692040000000 1.0
C      1  0.4955570000000  0.4328010000000  0.4993470000000 1.0
C      1  0.5934160000000  0.5042120000000  0.4658490000000 1.0
C      1  0.5963620000000  0.4698060000000  0.5482960000000 1.0
C      1  0.4300460000000  0.4615810000000  0.4593530000000 1.0
C      1  0.4797110000000  0.4505250000000  0.5173690000000 1.0
C      1  0.5232750000000  0.4868980000000  0.4637580000000 1.0
C      1  0.4927940000000  0.5468070000000  0.4921640000000 1.0
C      1  0.5151520000000  0.4659530000000  0.5994130000000 1.0
C      1  0.5542480000000  0.4537710000000  0.4784160000000 1.0
C      1  0.4814740000000  0.5566700000000  0.4531210000000 1.0
C      1  0.4343200000000  0.5046670000000  0.5206990000000 1.0
C      1  0.5075190000000  0.4841720000000  0.4360740000000 1.0
END
