TITL C-1154802-8274-456 -2.64798020926145e-06 125000 -317.086762957299 0 0 60 (C1) n - 1
REM
REM in /home/nfs/bkarasulu/CARBON/AIRSS/Generating-Clusters/AIREBO/Higher-Symm/Only-C60
REM
REM
REM
REM
REM
REM ./C.cell (28575a23ae977d3b5fae324c64b13b57)
REM
REM compiler GCC version 9.2.1 20190827 (Red Hat 9.2.1-1)
REM options -cpp -mtune=generic -march=x86-64 -g -O0 -fpre-include=/usr/include/finclude/math-vector-fortran.h
REM seed 1322738143 255664779 -1246652849 1399806 -1921946742 355047236 1973070922 -1412780728 27035146 -2018415005 1104526649 573403280 300526164 -991001060 -571027018 -1542603790 711556384 1935658394 -43714943 -1431718846 -2133377929 1694820304 2142250061 -1577380523 2044257549 -1039900343 -1810493875 1789571523 1047916765 -56525838 467219267 1472900082 1058115637
REM
CELL 1.54180   50.00000   50.00000   50.00000   90.00000   90.00000   90.00000
LATT -1
SFAC C  
C      1  0.5104480000000  0.5873160000000  0.4522050000000 1.0
C      1  0.5348510000000  0.5824630000000  0.4648010000000 1.0
C      1  0.5432310000000  0.5977160000000  0.4870420000000 1.0
C      1  0.5448880000000  0.5852250000000  0.5118060000000 1.0
C      1  0.5312100000000  0.5886290000000  0.5368670000000 1.0
C      1  0.5080460000000  0.5992450000000  0.5471230000000 1.0
C      1  0.4836600000000  0.5898250000000  0.5375880000000 1.0
C      1  0.4646800000000  0.6047960000000  0.5236900000000 1.0
C      1  0.4577890000000  0.5970500000000  0.4979190000000 1.0
C      1  0.4705420000000  0.6041190000000  0.4728680000000 1.0
C      1  0.4942240000000  0.6091880000000  0.4596630000000 1.0
C      1  0.5390810000000  0.4641750000000  0.4658180000000 1.0
C      1  0.5555240000000  0.4586020000000  0.4942710000000 1.0
C      1  0.5511380000000  0.4541810000000  0.5268830000000 1.0
C      1  0.5386350000000  0.4328520000000  0.5490640000000 1.0
C      1  0.5073840000000  0.4381730000000  0.5604240000000 1.0
C      1  0.4756560000000  0.4270890000000  0.5565790000000 1.0
C      1  0.4544890000000  0.4443900000000  0.5365780000000 1.0
C      1  0.4412240000000  0.4434850000000  0.5054250000000 1.0
C      1  0.4543860000000  0.4631970000000  0.4818150000000 1.0
C      1  0.4754050000000  0.4642140000000  0.4559370000000 1.0
C      1  0.5085410000000  0.4610540000000  0.4513930000000 1.0
C      1  0.5271080000000  0.4135230000000  0.5742770000000 1.0
C      1  0.4958210000000  0.4117830000000  0.5790620000000 1.0
C      1  0.4431270000000  0.4179420000000  0.5553680000000 1.0
C      1  0.4259920000000  0.4261880000000  0.5300880000000 1.0
C      1  0.4259920000000  0.4451720000000  0.4750850000000 1.0
C      1  0.4433390000000  0.4547110000000  0.4502780000000 1.0
C      1  0.4910950000000  0.4825270000000  0.4319310000000 1.0
C      1  0.5321010000000  0.4374590000000  0.4460020000000 1.0
C      1  0.5507100000000  0.4894440000000  0.4825490000000 1.0
C      1  0.5793270000000  0.4416880000000  0.5112830000000 1.0
C      1  0.5712230000000  0.4297290000000  0.5398300000000 1.0
C      1  0.4802580000000  0.5596150000000  0.5368750000000 1.0
C      1  0.4680380000000  0.5496710000000  0.5092600000000 1.0
C      1  0.4475580000000  0.5674230000000  0.4958140000000 1.0
C      1  0.4539350000000  0.5769200000000  0.4637320000000 1.0
C      1  0.4727130000000  0.5573950000000  0.4498770000000 1.0
C      1  0.4964510000000  0.5666850000000  0.4382290000000 1.0
C      1  0.5486830000000  0.5576920000000  0.4620410000000 1.0
C      1  0.5517960000000  0.5423460000000  0.4853680000000 1.0
C      1  0.5576040000000  0.5564030000000  0.5113980000000 1.0
C      1  0.5344140000000  0.5557330000000  0.5364920000000 1.0
C      1  0.5070390000000  0.5442160000000  0.5290060000000 1.0
C      1  0.5046360000000  0.5181720000000  0.5238620000000 1.0
C      1  0.4674400000000  0.5495510000000  0.5598280000000 1.0
C      1  0.4725060000000  0.5251480000000  0.5010960000000 1.0
C      1  0.4208980000000  0.5614390000000  0.5015350000000 1.0
C      1  0.4306600000000  0.5827750000000  0.4489150000000 1.0
C      1  0.4651570000000  0.5310440000000  0.4479750000000 1.0
C      1  0.5056940000000  0.5567060000000  0.4149280000000 1.0
C      1  0.5583860000000  0.5494820000000  0.4382460000000 1.0
C      1  0.5524840000000  0.5149420000000  0.4834810000000 1.0
C      1  0.5842930000000  0.5546410000000  0.5198260000000 1.0
C      1  0.5447460000000  0.5447440000000  0.5603480000000 1.0
C      1  0.4990220000000  0.4152320000000  0.4964650000000 1.0
C      1  0.5003030000000  0.4667140000000  0.5109230000000 1.0
C      1  0.4978190000000  0.3895460000000  0.4914070000000 1.0
C      1  0.5009100000000  0.4407360000000  0.5040530000000 1.0
C      1  0.5019620000000  0.4927990000000  0.5162160000000 1.0
END
