TITL C-1154823-9327-659 6.60675870643471e-05 125000 -307.054657657025 0 0 60 (C1) n - 1
REM
REM in /home/nfs/bkarasulu/CARBON/AIRSS/Generating-Clusters/AIREBO/Higher-Symm/Only-C60
REM
REM
REM
REM
REM
REM ./C.cell (28575a23ae977d3b5fae324c64b13b57)
REM
REM compiler GCC version 9.2.1 20190827 (Red Hat 9.2.1-1)
REM options -cpp -mtune=generic -march=x86-64 -g -O0 -fpre-include=/usr/include/finclude/math-vector-fortran.h
REM seed -1400251035 342430594 -37308469 -1926032427 -1794504583 410371997 1919155303 -101085292 -1527364823 369125849 2078305960 -1938923018 -1006533630 2113371299 -1503687091 136427458 814433321 420336943 677546776 1483845098 -270695800 727211190 52648241 -825014873 -280461784 633888571 431769919 66687906 -1770198489 -80819166 738973860 2035040142 1384967864
REM
CELL 1.54180   50.00000   50.00000   50.00000   90.00000   90.00000   90.00000
LATT -1
SFAC C  
C      1  0.5611620000000  0.4897540000000  0.4639490000000 1.0
C      1  0.4957860000000  0.4826110000000  0.4297930000000 1.0
C      1  0.4231380000000  0.4880010000000  0.4697570000000 1.0
C      1  0.4386360000000  0.4860440000000  0.5378560000000 1.0
C      1  0.5026310000000  0.4842170000000  0.5695440000000 1.0
C      1  0.5737500000000  0.4878450000000  0.5340350000000 1.0
C      1  0.5617620000000  0.5125730000000  0.4470700000000 1.0
C      1  0.4886650000000  0.5075530000000  0.4173280000000 1.0
C      1  0.4341120000000  0.5136330000000  0.4651730000000 1.0
C      1  0.4374690000000  0.5091240000000  0.5545440000000 1.0
C      1  0.5082260000000  0.5102060000000  0.5807020000000 1.0
C      1  0.5648640000000  0.5146940000000  0.5355470000000 1.0
C      1  0.5206940000000  0.4603290000000  0.4711010000000 1.0
C      1  0.4869210000000  0.4570450000000  0.4745700000000 1.0
C      1  0.4666880000000  0.4690690000000  0.4987830000000 1.0
C      1  0.4795960000000  0.4588340000000  0.5285790000000 1.0
C      1  0.5135280000000  0.4587110000000  0.5257100000000 1.0
C      1  0.5321230000000  0.4717430000000  0.5010360000000 1.0
C      1  0.5134490000000  0.5435980000000  0.4728630000000 1.0
C      1  0.4810360000000  0.5392990000000  0.4668560000000 1.0
C      1  0.4652670000000  0.5439670000000  0.4969220000000 1.0
C      1  0.4826010000000  0.5427820000000  0.5242920000000 1.0
C      1  0.5159830000000  0.5425510000000  0.5308830000000 1.0
C      1  0.5261120000000  0.5348980000000  0.4998740000000 1.0
C      1  0.5261210000000  0.4299280000000  0.4727890000000 1.0
C      1  0.4784160000000  0.4294020000000  0.4674680000000 1.0
C      1  0.4440470000000  0.4445410000000  0.5660020000000 1.0
C      1  0.4765470000000  0.4282420000000  0.5268710000000 1.0
C      1  0.5245260000000  0.4322050000000  0.5337010000000 1.0
C      1  0.5587700000000  0.4481820000000  0.4356860000000 1.0
C      1  0.5245060000000  0.5660770000000  0.4607130000000 1.0
C      1  0.4711040000000  0.5683790000000  0.4542720000000 1.0
C      1  0.4509010000000  0.5701000000000  0.4962580000000 1.0
C      1  0.4648420000000  0.5565210000000  0.5499740000000 1.0
C      1  0.5252550000000  0.5700750000000  0.5355760000000 1.0
C      1  0.5940590000000  0.5506540000000  0.5107750000000 1.0
C      1  0.4464870000000  0.5171070000000  0.5029420000000 1.0
C      1  0.4832740000000  0.5118690000000  0.5380230000000 1.0
C      1  0.5353960000000  0.5159470000000  0.5394010000000 1.0
C      1  0.5512550000000  0.5220150000000  0.4987460000000 1.0
C      1  0.5141770000000  0.5129080000000  0.4601900000000 1.0
C      1  0.4627550000000  0.5116810000000  0.4591250000000 1.0
C      1  0.4451980000000  0.4914500000000  0.5111280000000 1.0
C      1  0.4848160000000  0.4863150000000  0.5479170000000 1.0
C      1  0.5249300000000  0.4879500000000  0.5365890000000 1.0
C      1  0.5529890000000  0.4951390000000  0.4901930000000 1.0
C      1  0.5137530000000  0.4868100000000  0.4509260000000 1.0
C      1  0.4732380000000  0.4846120000000  0.4627460000000 1.0
C      1  0.4596820000000  0.5266940000000  0.5525890000000 1.0
C      1  0.5163060000000  0.5289590000000  0.5627670000000 1.0
C      1  0.5745320000000  0.5333110000000  0.5145730000000 1.0
C      1  0.5379010000000  0.5270090000000  0.4460320000000 1.0
C      1  0.4793030000000  0.5263900000000  0.4346530000000 1.0
C      1  0.4303870000000  0.5369390000000  0.4840990000000 1.0
C      1  0.4507490000000  0.4620780000000  0.5462870000000 1.0
C      1  0.5259490000000  0.4667390000000  0.5607660000000 1.0
C      1  0.5608540000000  0.4687940000000  0.5189820000000 1.0
C      1  0.5502370000000  0.4653700000000  0.4550360000000 1.0
C      1  0.4742980000000  0.4631390000000  0.4392110000000 1.0
C      1  0.4382380000000  0.4673880000000  0.4802270000000 1.0
END
