TITL C-1154821-8623-159 -0.00507449840408149 125000 -298.969106640398 0 0 60 (C1) n - 1
REM
REM in /home/nfs/bkarasulu/CARBON/AIRSS/Generating-Clusters/AIREBO/Higher-Symm/Only-C60
REM
REM
REM
REM
REM
REM ./C.cell (28575a23ae977d3b5fae324c64b13b57)
REM
REM compiler GCC version 9.2.1 20190827 (Red Hat 9.2.1-1)
REM options -cpp -mtune=generic -march=x86-64 -g -O0 -fpre-include=/usr/include/finclude/math-vector-fortran.h
REM seed 1442576885 -351909908 -1897698633 -1931595040 -1256306216 -464649322 190956003 1569054725 38286999 1127409660 -793474288 134591789 722790797 1175628063 271839905 -1049098645 2136792180 -749160824 -776416596 -401189011 865132412 1054639829 -521280112 -1877638974 -232920345 948742044 -84133259 1886370805 1782658436 1792692270 -709792979 1165855679 291569754
REM
CELL 1.54180   50.00000   50.00000   50.00000   90.00000   90.00000   90.00000
LATT -1
SFAC C  
C      1  0.5422520000000  0.4714310000000  0.4645700000000 1.0
C      1  0.5054450000000  0.5484060000000  0.4530070000000 1.0
C      1  0.4567610000000  0.4794040000000  0.4583160000000 1.0
C      1  0.4757250000000  0.5194160000000  0.5581520000000 1.0
C      1  0.4967810000000  0.4684210000000  0.5492140000000 1.0
C      1  0.5322140000000  0.5097770000000  0.5552010000000 1.0
C      1  0.5410190000000  0.4824370000000  0.5082630000000 1.0
C      1  0.4907310000000  0.5460650000000  0.5137110000000 1.0
C      1  0.4692520000000  0.4752850000000  0.5110330000000 1.0
C      1  0.5685810000000  0.5086020000000  0.5117450000000 1.0
C      1  0.4558910000000  0.5599410000000  0.5215930000000 1.0
C      1  0.4617760000000  0.4366100000000  0.5109420000000 1.0
C      1  0.5127400000000  0.4475150000000  0.4921040000000 1.0
C      1  0.5337670000000  0.5202530000000  0.4827740000000 1.0
C      1  0.4594930000000  0.5197870000000  0.4874260000000 1.0
C      1  0.4902890000000  0.4196910000000  0.5148690000000 1.0
C      1  0.5593770000000  0.5392090000000  0.5080760000000 1.0
C      1  0.4346030000000  0.5370500000000  0.5180300000000 1.0
C      1  0.5246960000000  0.4784220000000  0.5444130000000 1.0
C      1  0.5061590000000  0.5311140000000  0.5502620000000 1.0
C      1  0.4706710000000  0.4871540000000  0.5489010000000 1.0
C      1  0.4349390000000  0.4689290000000  0.5135760000000 1.0
C      1  0.5668880000000  0.4607490000000  0.5123460000000 1.0
C      1  0.5062860000000  0.5758720000000  0.5184520000000 1.0
C      1  0.4742600000000  0.5679160000000  0.4940390000000 1.0
C      1  0.4591500000000  0.4573840000000  0.4841310000000 1.0
C      1  0.5633080000000  0.4900270000000  0.4837240000000 1.0
C      1  0.4413230000000  0.4946520000000  0.5334550000000 1.0
C      1  0.5440930000000  0.4528960000000  0.5348740000000 1.0
C      1  0.5251760000000  0.5530150000000  0.5315820000000 1.0
C      1  0.5090570000000  0.5171370000000  0.4395000000000 1.0
C      1  0.4856680000000  0.4952580000000  0.4491780000000 1.0
C      1  0.5168970000000  0.4848510000000  0.4457290000000 1.0
C      1  0.5042610000000  0.4407360000000  0.4658970000000 1.0
C      1  0.5511250000000  0.5334130000000  0.4617780000000 1.0
C      1  0.4549530000000  0.5318190000000  0.4625170000000 1.0
C      1  0.5036380000000  0.5599990000000  0.4788040000000 1.0
C      1  0.4327820000000  0.4792510000000  0.4824430000000 1.0
C      1  0.5562870000000  0.4505570000000  0.4839890000000 1.0
C      1  0.4791950000000  0.5511730000000  0.5450530000000 1.0
C      1  0.4565320000000  0.4582490000000  0.5375700000000 1.0
C      1  0.5556980000000  0.4907360000000  0.5378090000000 1.0
C      1  0.4862900000000  0.5180170000000  0.5039550000000 1.0
C      1  0.5002220000000  0.4735020000000  0.5059690000000 1.0
C      1  0.5145350000000  0.5035610000000  0.5053020000000 1.0
C      1  0.4571670000000  0.5103410000000  0.4442050000000 1.0
C      1  0.5209950000000  0.4530230000000  0.4466480000000 1.0
C      1  0.5332480000000  0.5398650000000  0.4411300000000 1.0
C      1  0.5148670000000  0.4107230000000  0.5076150000000 1.0
C      1  0.5574080000000  0.5710200000000  0.4962340000000 1.0
C      1  0.4048130000000  0.5257670000000  0.5061260000000 1.0
C      1  0.4342410000000  0.5071120000000  0.5018790000000 1.0
C      1  0.5375020000000  0.4346320000000  0.5074490000000 1.0
C      1  0.5290130000000  0.5504640000000  0.4976750000000 1.0
C      1  0.4932510000000  0.4477210000000  0.5270110000000 1.0
C      1  0.5352660000000  0.5220980000000  0.5248660000000 1.0
C      1  0.4623850000000  0.5197180000000  0.5272340000000 1.0
C      1  0.4588380000000  0.5599390000000  0.4658340000000 1.0
C      1  0.4763650000000  0.4363560000000  0.4649020000000 1.0
C      1  0.5738540000000  0.5155310000000  0.4669220000000 1.0
END
