TITL C-1154827-9204-246 -0.00185004850812101 125000 -339.558398921142 0 0 60 (C1) n - 1
REM
REM in /home/nfs/bkarasulu/CARBON/AIRSS/Generating-Clusters/AIREBO/Higher-Symm/Only-C60
REM
REM
REM
REM
REM
REM ./C.cell (28575a23ae977d3b5fae324c64b13b57)
REM
REM compiler GCC version 9.2.1 20190827 (Red Hat 9.2.1-1)
REM options -cpp -mtune=generic -march=x86-64 -g -O0 -fpre-include=/usr/include/finclude/math-vector-fortran.h
REM seed 1034885798 -656196263 2143338850 1285989152 -1948485946 30429028 -1915734306 -1964921498 -561469976 -1348065725 -1314253292 -9592907 -144325267 -860649180 -2006325180 -1597253900 1602932125 -536695783 -610016683 -652631911 -793677501 -135740489 245191904 439434249 -1206357055 -1389847485 -1223290012 -681739531 1525293698 1340062324 657318878 -473231432 -1155640972
REM
CELL 1.54180   50.00000   50.00000   50.00000   90.00000   90.00000   90.00000
LATT -1
SFAC C  
C      1  0.4567660000000  0.5761720000000  0.5117510000000 1.0
C      1  0.5127200000000  0.5709440000000  0.4619300000000 1.0
C      1  0.5213790000000  0.5756270000000  0.5215470000000 1.0
C      1  0.5387770000000  0.4256310000000  0.5080550000000 1.0
C      1  0.4892800000000  0.4311530000000  0.4598060000000 1.0
C      1  0.4733140000000  0.4218150000000  0.5288480000000 1.0
C      1  0.5423340000000  0.4263820000000  0.4831640000000 1.0
C      1  0.4924260000000  0.4254860000000  0.5450330000000 1.0
C      1  0.4679900000000  0.4304730000000  0.4729760000000 1.0
C      1  0.4574450000000  0.5723250000000  0.4869010000000 1.0
C      1  0.5031330000000  0.5720900000000  0.5385010000000 1.0
C      1  0.5372880000000  0.5714850000000  0.4671350000000 1.0
C      1  0.4814200000000  0.4667010000000  0.4433420000000 1.0
C      1  0.5608990000000  0.4591900000000  0.5114940000000 1.0
C      1  0.4571650000000  0.4606120000000  0.5498940000000 1.0
C      1  0.5207200000000  0.5391140000000  0.4392460000000 1.0
C      1  0.4330260000000  0.5376790000000  0.5115960000000 1.0
C      1  0.5367050000000  0.5506710000000  0.5486600000000 1.0
C      1  0.5153030000000  0.5366300000000  0.5601070000000 1.0
C      1  0.4361030000000  0.5387130000000  0.4835090000000 1.0
C      1  0.5474790000000  0.5351010000000  0.4540620000000 1.0
C      1  0.4812570000000  0.4585680000000  0.5644720000000 1.0
C      1  0.5591940000000  0.4625510000000  0.4848630000000 1.0
C      1  0.4557490000000  0.4656210000000  0.4586510000000 1.0
C      1  0.4870600000000  0.5446690000000  0.5446550000000 1.0
C      1  0.4668780000000  0.5458840000000  0.4709370000000 1.0
C      1  0.5522250000000  0.5488170000000  0.4844330000000 1.0
C      1  0.5100250000000  0.4522470000000  0.5474760000000 1.0
C      1  0.5375900000000  0.4494870000000  0.4625820000000 1.0
C      1  0.4580100000000  0.4556880000000  0.4910030000000 1.0
C      1  0.5088660000000  0.4565200000000  0.4577280000000 1.0
C      1  0.5359890000000  0.4474920000000  0.5314640000000 1.0
C      1  0.4570000000000  0.4461270000000  0.5209490000000 1.0
C      1  0.4945240000000  0.5439850000000  0.4603660000000 1.0
C      1  0.4572110000000  0.5511740000000  0.5315520000000 1.0
C      1  0.5421150000000  0.5515750000000  0.5150720000000 1.0
C      1  0.5025750000000  0.4840570000000  0.5627700000000 1.0
C      1  0.4524910000000  0.4939790000000  0.4449400000000 1.0
C      1  0.5470980000000  0.4851760000000  0.4644640000000 1.0
C      1  0.5217700000000  0.5086520000000  0.5638970000000 1.0
C      1  0.5405270000000  0.5056110000000  0.4457010000000 1.0
C      1  0.4447540000000  0.5142600000000  0.4625560000000 1.0
C      1  0.5076020000000  0.5077360000000  0.4372860000000 1.0
C      1  0.5432640000000  0.5049320000000  0.5439240000000 1.0
C      1  0.4420540000000  0.5108990000000  0.5255050000000 1.0
C      1  0.4831290000000  0.4934870000000  0.4301900000000 1.0
C      1  0.4491970000000  0.4871170000000  0.5364740000000 1.0
C      1  0.5571040000000  0.4810390000000  0.5345700000000 1.0
C      1  0.5010500000000  0.4883720000000  0.5315560000000 1.0
C      1  0.4751370000000  0.4848960000000  0.4877730000000 1.0
C      1  0.5288460000000  0.4883100000000  0.4922180000000 1.0
C      1  0.4993190000000  0.5190990000000  0.5271780000000 1.0
C      1  0.5350470000000  0.5215140000000  0.4897880000000 1.0
C      1  0.4681380000000  0.5153860000000  0.4862610000000 1.0
C      1  0.5107270000000  0.5159800000000  0.4701250000000 1.0
C      1  0.5295100000000  0.5217280000000  0.5220760000000 1.0
C      1  0.4705240000000  0.5247660000000  0.5147490000000 1.0
C      1  0.5022170000000  0.4831780000000  0.4735850000000 1.0
C      1  0.4758700000000  0.4774680000000  0.5190890000000 1.0
C      1  0.5266850000000  0.4779560000000  0.5195660000000 1.0
END
