TITL C-1154829-9094-199 -0.000848450524369611 125000 -320.677765347992 0 0 60 (C1) n - 1
REM
REM in /home/nfs/bkarasulu/CARBON/AIRSS/Generating-Clusters/AIREBO/Higher-Symm/Only-C60
REM
REM
REM
REM
REM
REM ./C.cell (28575a23ae977d3b5fae324c64b13b57)
REM
REM compiler GCC version 9.2.1 20190827 (Red Hat 9.2.1-1)
REM options -cpp -mtune=generic -march=x86-64 -g -O0 -fpre-include=/usr/include/finclude/math-vector-fortran.h
REM seed -1948288602 -1614732514 292453453 -671831293 -1025778932 -1295055584 -906528747 1946567612 -236245821 -1883068703 1023087672 -505375472 1296491930 -728047858 19146928 -2006327538 -2072618910 1486611041 2084441549 -1574692276 36075458 -1295719761 502299182 -1044866383 1283016658 -1778686732 -1977850112 1820636398 1017602449 1044023931 1306835155 238260417 -750548012
REM
CELL 1.54180   50.00000   50.00000   50.00000   90.00000   90.00000   90.00000
LATT -1
SFAC C  
C      1  0.5096250000000  0.4480030000000  0.5481730000000 1.0
C      1  0.5077960000000  0.5684090000000  0.5187870000000 1.0
C      1  0.5128410000000  0.4798860000000  0.4278240000000 1.0
C      1  0.5501000000000  0.4756100000000  0.4504640000000 1.0
C      1  0.5454610000000  0.4695110000000  0.5461870000000 1.0
C      1  0.5475660000000  0.5536870000000  0.5026970000000 1.0
C      1  0.4304080000000  0.5398170000000  0.5117020000000 1.0
C      1  0.4337390000000  0.4852010000000  0.4532760000000 1.0
C      1  0.4335860000000  0.4792530000000  0.5366780000000 1.0
C      1  0.4922050000000  0.5720930000000  0.4896410000000 1.0
C      1  0.4963830000000  0.4534450000000  0.4403480000000 1.0
C      1  0.5076530000000  0.4663970000000  0.5757300000000 1.0
C      1  0.4613860000000  0.5261020000000  0.4906330000000 1.0
C      1  0.4632500000000  0.4750650000000  0.4782160000000 1.0
C      1  0.4651470000000  0.5016770000000  0.5269350000000 1.0
C      1  0.4798740000000  0.4786440000000  0.4292280000000 1.0
C      1  0.4807320000000  0.4633000000000  0.5550550000000 1.0
C      1  0.4749320000000  0.5676870000000  0.5168480000000 1.0
C      1  0.5278880000000  0.4207540000000  0.5389450000000 1.0
C      1  0.5265920000000  0.5749870000000  0.5463620000000 1.0
C      1  0.5301170000000  0.5042720000000  0.4113570000000 1.0
C      1  0.4272880000000  0.5243050000000  0.4892230000000 1.0
C      1  0.4293630000000  0.4711380000000  0.4764210000000 1.0
C      1  0.4329640000000  0.5069280000000  0.5367550000000 1.0
C      1  0.4931340000000  0.4359520000000  0.4600160000000 1.0
C      1  0.4864560000000  0.4908980000000  0.5744230000000 1.0
C      1  0.4921900000000  0.5682460000000  0.4631600000000 1.0
C      1  0.5179270000000  0.5414830000000  0.5358150000000 1.0
C      1  0.5236050000000  0.5068410000000  0.4446300000000 1.0
C      1  0.5238650000000  0.4472290000000  0.5179910000000 1.0
C      1  0.5158520000000  0.5505950000000  0.5671210000000 1.0
C      1  0.5161020000000  0.5322940000000  0.4247060000000 1.0
C      1  0.5132390000000  0.4175590000000  0.5083750000000 1.0
C      1  0.4704800000000  0.4555260000000  0.5041780000000 1.0
C      1  0.4648950000000  0.5248740000000  0.5498710000000 1.0
C      1  0.4713160000000  0.5212920000000  0.4593250000000 1.0
C      1  0.5697730000000  0.5084170000000  0.4830020000000 1.0
C      1  0.5681010000000  0.4790290000000  0.5018160000000 1.0
C      1  0.5680210000000  0.5100140000000  0.5179370000000 1.0
C      1  0.4747540000000  0.5477400000000  0.4460830000000 1.0
C      1  0.4730110000000  0.4313670000000  0.4846820000000 1.0
C      1  0.4813820000000  0.5177030000000  0.5713820000000 1.0
C      1  0.4978830000000  0.5379400000000  0.5822340000000 1.0
C      1  0.5040880000000  0.5539560000000  0.4351800000000 1.0
C      1  0.5007450000000  0.4154190000000  0.4846850000000 1.0
C      1  0.5414780000000  0.4889100000000  0.5205330000000 1.0
C      1  0.5429050000000  0.5222880000000  0.4985640000000 1.0
C      1  0.5435270000000  0.4870400000000  0.4797130000000 1.0
C      1  0.4912620000000  0.5057460000000  0.5122780000000 1.0
C      1  0.4933090000000  0.5165150000000  0.4824430000000 1.0
C      1  0.4925400000000  0.4787420000000  0.4954660000000 1.0
C      1  0.4632740000000  0.4680630000000  0.5316870000000 1.0
C      1  0.4613190000000  0.5410570000000  0.5211770000000 1.0
C      1  0.4644550000000  0.4934480000000  0.4498260000000 1.0
C      1  0.5197010000000  0.5152860000000  0.5224110000000 1.0
C      1  0.5216500000000  0.5126220000000  0.4738490000000 1.0
C      1  0.5213590000000  0.4707090000000  0.4996630000000 1.0
C      1  0.5476000000000  0.5690470000000  0.5222210000000 1.0
C      1  0.5524490000000  0.4851250000000  0.4274910000000 1.0
C      1  0.5494540000000  0.4448560000000  0.5485800000000 1.0
END
