TITL C-1154802-8274-654 -0.00205937673076776 125000 -333.606141916037 0 0 60 (C1) n - 1
REM
REM in /home/nfs/bkarasulu/CARBON/AIRSS/Generating-Clusters/AIREBO/Higher-Symm/Only-C60
REM
REM
REM
REM
REM
REM ./C.cell (28575a23ae977d3b5fae324c64b13b57)
REM
REM compiler GCC version 9.2.1 20190827 (Red Hat 9.2.1-1)
REM options -cpp -mtune=generic -march=x86-64 -g -O0 -fpre-include=/usr/include/finclude/math-vector-fortran.h
REM seed 495964938 891475545 375585140 529427453 959729918 951211506 18289567 -65008717 -87643274 413603525 -561103466 927263143 1459388799 1073342575 374116709 1320606994 644922621 1112650937 1407776584 492066483 1726185849 -2083165733 1461420431 570674067 -2131314256 472573338 -274432427 1213661579 -736695645 737017847 122004151 1869005818 2062390975
REM
CELL 1.54180   50.00000   50.00000   50.00000   90.00000   90.00000   90.00000
LATT -1
SFAC C  
C      1  0.5328390000000  0.4706780000000  0.4783330000000 1.0
C      1  0.5156360000000  0.5416610000000  0.4894370000000 1.0
C      1  0.4536250000000  0.4865820000000  0.4985870000000 1.0
C      1  0.4623740000000  0.4632890000000  0.5201650000000 1.0
C      1  0.4852790000000  0.5423340000000  0.5097820000000 1.0
C      1  0.5383690000000  0.4935940000000  0.5002500000000 1.0
C      1  0.4580020000000  0.5420130000000  0.4942530000000 1.0
C      1  0.4908390000000  0.4507250000000  0.5111920000000 1.0
C      1  0.5457070000000  0.5163790000000  0.5209420000000 1.0
C      1  0.5409540000000  0.5431630000000  0.5087930000000 1.0
C      1  0.5080970000000  0.4542910000000  0.4814810000000 1.0
C      1  0.4543710000000  0.5143510000000  0.4812260000000 1.0
C      1  0.4892480000000  0.4599250000000  0.4588180000000 1.0
C      1  0.5254970000000  0.5116270000000  0.4473370000000 1.0
C      1  0.4741910000000  0.5095440000000  0.4571340000000 1.0
C      1  0.4977330000000  0.4700670000000  0.5372950000000 1.0
C      1  0.4782870000000  0.5164520000000  0.5525520000000 1.0
C      1  0.5255410000000  0.5127350000000  0.5444400000000 1.0
C      1  0.4997880000000  0.5341700000000  0.5386130000000 1.0
C      1  0.4716520000000  0.4914890000000  0.5359810000000 1.0
C      1  0.5261360000000  0.4822500000000  0.5292950000000 1.0
C      1  0.5027660000000  0.5273850000000  0.4618210000000 1.0
C      1  0.5442810000000  0.4965560000000  0.4612650000000 1.0
C      1  0.4656960000000  0.4784530000000  0.4682700000000 1.0
C      1  0.4796920000000  0.4810790000000  0.5832300000000 1.0
C      1  0.5265090000000  0.4773540000000  0.5774030000000 1.0
C      1  0.5076680000000  0.5193060000000  0.5893880000000 1.0
C      1  0.5158200000000  0.4734250000000  0.4197760000000 1.0
C      1  0.4685450000000  0.4767990000000  0.4202630000000 1.0
C      1  0.4941270000000  0.5154190000000  0.4122060000000 1.0
C      1  0.5178300000000  0.5022680000000  0.4219250000000 1.0
C      1  0.4712230000000  0.5050450000000  0.4261360000000 1.0
C      1  0.4914920000000  0.4622060000000  0.4307630000000 1.0
C      1  0.4820860000000  0.5099340000000  0.5798320000000 1.0
C      1  0.5282240000000  0.5061450000000  0.5741650000000 1.0
C      1  0.5006820000000  0.4673950000000  0.5686640000000 1.0
C      1  0.5846460000000  0.5261440000000  0.4857640000000 1.0
C      1  0.4636710000000  0.5681180000000  0.4562650000000 1.0
C      1  0.4673960000000  0.4260230000000  0.4721630000000 1.0
C      1  0.4309020000000  0.5272110000000  0.5317470000000 1.0
C      1  0.5363820000000  0.5732530000000  0.5479570000000 1.0
C      1  0.5324950000000  0.4299910000000  0.5196130000000 1.0
C      1  0.4400090000000  0.4970160000000  0.5346570000000 1.0
C      1  0.5449400000000  0.4556020000000  0.5207230000000 1.0
C      1  0.5115940000000  0.5644250000000  0.5338980000000 1.0
C      1  0.5705610000000  0.5019440000000  0.4706330000000 1.0
C      1  0.4508280000000  0.4489450000000  0.4754350000000 1.0
C      1  0.4917920000000  0.5586890000000  0.4605160000000 1.0
C      1  0.5743550000000  0.5080580000000  0.5098170000000 1.0
C      1  0.4485490000000  0.5627350000000  0.4791580000000 1.0
C      1  0.4864880000000  0.4226770000000  0.4924630000000 1.0
C      1  0.4281980000000  0.5167840000000  0.5022380000000 1.0
C      1  0.5501030000000  0.5643750000000  0.5231350000000 1.0
C      1  0.5172330000000  0.4250670000000  0.4962920000000 1.0
C      1  0.4216920000000  0.4856580000000  0.5101860000000 1.0
C      1  0.5596410000000  0.4604840000000  0.4961850000000 1.0
C      1  0.5124970000000  0.5709860000000  0.5063700000000 1.0
C      1  0.5785370000000  0.4813540000000  0.4940730000000 1.0
C      1  0.4397070000000  0.4494230000000  0.5010160000000 1.0
C      1  0.4869810000000  0.5689500000000  0.4886800000000 1.0
END
