TITL C-1154816-9297-665 0.00233909953375361 125000 -332.585433631141 0 0 60 (C1) n - 1
REM
REM in /home/nfs/bkarasulu/CARBON/AIRSS/Generating-Clusters/AIREBO/Higher-Symm/Only-C60
REM
REM
REM
REM
REM
REM ./C.cell (28575a23ae977d3b5fae324c64b13b57)
REM
REM compiler GCC version 9.2.1 20190827 (Red Hat 9.2.1-1)
REM options -cpp -mtune=generic -march=x86-64 -g -O0 -fpre-include=/usr/include/finclude/math-vector-fortran.h
REM seed 1864957983 1948912810 -1872326524 -840949645 -2146934116 -1332010729 275581421 1502963288 -45846147 371648100 -789021513 -941340770 -169459547 1027174584 136671091 1940768775 771014336 -1992718333 356344980 732223998 733945812 24512834 519171550 -1854302689 -522428501 1291177142 -315497569 -728993236 1732815247 1701724330 821695864 -1895618412 -1813177609
REM
CELL 1.54180   50.00000   50.00000   50.00000   90.00000   90.00000   90.00000
LATT -1
SFAC C  
C      1  0.4633190000000  0.4366350000000  0.4672310000000 1.0
C      1  0.4625790000000  0.5642550000000  0.5358350000000 1.0
C      1  0.4586920000000  0.4406820000000  0.5439250000000 1.0
C      1  0.4691840000000  0.5587770000000  0.4579440000000 1.0
C      1  0.5030170000000  0.5852840000000  0.5380130000000 1.0
C      1  0.5073220000000  0.4234290000000  0.4656180000000 1.0
C      1  0.5006670000000  0.5967270000000  0.4775900000000 1.0
C      1  0.4705330000000  0.4292190000000  0.5902660000000 1.0
C      1  0.4700040000000  0.4453920000000  0.5683170000000 1.0
C      1  0.4806760000000  0.5507750000000  0.4369830000000 1.0
C      1  0.4870630000000  0.4383380000000  0.4527420000000 1.0
C      1  0.4772490000000  0.5841630000000  0.5486430000000 1.0
C      1  0.5978770000000  0.4210570000000  0.4260970000000 1.0
C      1  0.5406390000000  0.5706490000000  0.4794380000000 1.0
C      1  0.5785390000000  0.4366840000000  0.4343920000000 1.0
C      1  0.5634800000000  0.5822880000000  0.4879220000000 1.0
C      1  0.4766170000000  0.4801380000000  0.5375150000000 1.0
C      1  0.4769250000000  0.5165150000000  0.4643730000000 1.0
C      1  0.4780910000000  0.4834890000000  0.4725670000000 1.0
C      1  0.4781410000000  0.5144660000000  0.5318230000000 1.0
C      1  0.5179860000000  0.5095970000000  0.4397100000000 1.0
C      1  0.5152910000000  0.4796500000000  0.5631870000000 1.0
C      1  0.5199880000000  0.5071110000000  0.5650260000000 1.0
C      1  0.5190010000000  0.4810450000000  0.4408890000000 1.0
C      1  0.5065370000000  0.5130520000000  0.5131720000000 1.0
C      1  0.5071620000000  0.4820990000000  0.4882480000000 1.0
C      1  0.5030170000000  0.5169790000000  0.4821860000000 1.0
C      1  0.5012140000000  0.4816870000000  0.5195750000000 1.0
C      1  0.4903340000000  0.4681510000000  0.4446900000000 1.0
C      1  0.4916510000000  0.5248630000000  0.5612490000000 1.0
C      1  0.4841750000000  0.4723570000000  0.5680190000000 1.0
C      1  0.4892320000000  0.5205030000000  0.4346230000000 1.0
C      1  0.4743980000000  0.5023970000000  0.4144550000000 1.0
C      1  0.4713220000000  0.4918860000000  0.5886720000000 1.0
C      1  0.4737800000000  0.5167990000000  0.5847630000000 1.0
C      1  0.4739410000000  0.4775460000000  0.4197570000000 1.0
C      1  0.4435230000000  0.5394980000000  0.5044740000000 1.0
C      1  0.4350280000000  0.4943760000000  0.5093020000000 1.0
C      1  0.4461860000000  0.5173490000000  0.5205160000000 1.0
C      1  0.4460960000000  0.4837530000000  0.4874930000000 1.0
C      1  0.5060070000000  0.4209000000000  0.4930940000000 1.0
C      1  0.5051950000000  0.5679740000000  0.5152780000000 1.0
C      1  0.5012330000000  0.4351240000000  0.5166590000000 1.0
C      1  0.5154440000000  0.5782230000000  0.4908860000000 1.0
C      1  0.5407990000000  0.5507270000000  0.4596260000000 1.0
C      1  0.5206890000000  0.4399260000000  0.5362900000000 1.0
C      1  0.5181540000000  0.5454440000000  0.5557210000000 1.0
C      1  0.5606960000000  0.4538890000000  0.4441360000000 1.0
C      1  0.5350720000000  0.4835140000000  0.5165380000000 1.0
C      1  0.5359670000000  0.5097550000000  0.4865500000000 1.0
C      1  0.5393630000000  0.4773090000000  0.4833650000000 1.0
C      1  0.5370050000000  0.5170210000000  0.5201170000000 1.0
C      1  0.5398560000000  0.5249720000000  0.5485620000000 1.0
C      1  0.5408480000000  0.4693800000000  0.4546780000000 1.0
C      1  0.5338830000000  0.5238750000000  0.4580250000000 1.0
C      1  0.5292470000000  0.4658600000000  0.5430590000000 1.0
C      1  0.4691040000000  0.5423770000000  0.4850600000000 1.0
C      1  0.4748310000000  0.4518770000000  0.5185050000000 1.0
C      1  0.4812090000000  0.5446230000000  0.5163720000000 1.0
C      1  0.4649240000000  0.4575720000000  0.4902410000000 1.0
END
