TITL C-1154804-8633-366 5.25518066261876e-05 125000 -332.782540275425 0 0 60 (C1) n - 1
REM
REM in /home/nfs/bkarasulu/CARBON/AIRSS/Generating-Clusters/AIREBO/Higher-Symm/Only-C60
REM
REM
REM
REM
REM
REM ./C.cell (28575a23ae977d3b5fae324c64b13b57)
REM
REM compiler GCC version 9.2.1 20190827 (Red Hat 9.2.1-1)
REM options -cpp -mtune=generic -march=x86-64 -g -O0 -fpre-include=/usr/include/finclude/math-vector-fortran.h
REM seed -1554101581 1574307050 -333495545 -696775638 1857041316 1297110877 828035367 -736306177 1788858360 1768514032 -449174891 1313932543 -1860921870 -1720111409 -374259645 -911319833 1332982800 1531017897 -1000745484 126927898 -232891708 -44237454 -172653721 -218946642 1221051324 1631003389 -819689784 -1684560657 -323076462 1238107220 -534038916 1532063602 204287017
REM
CELL 1.54180   50.00000   50.00000   50.00000   90.00000   90.00000   90.00000
LATT -1
SFAC C  
C      1  0.4534870000000  0.4617640000000  0.4680720000000 1.0
C      1  0.5430980000000  0.4593210000000  0.5295930000000 1.0
C      1  0.5402640000000  0.5384400000000  0.4718760000000 1.0
C      1  0.4625300000000  0.5402390000000  0.5296030000000 1.0
C      1  0.4816430000000  0.4476710000000  0.5342240000000 1.0
C      1  0.5539420000000  0.4869460000000  0.4642780000000 1.0
C      1  0.5155420000000  0.5580080000000  0.5381050000000 1.0
C      1  0.4421120000000  0.5176320000000  0.4624660000000 1.0
C      1  0.4950840000000  0.5437030000000  0.4870330000000 1.0
C      1  0.4518410000000  0.4948900000000  0.5131480000000 1.0
C      1  0.5104810000000  0.4555050000000  0.4819230000000 1.0
C      1  0.5460560000000  0.5047400000000  0.5120100000000 1.0
C      1  0.5511130000000  0.5290070000000  0.5525300000000 1.0
C      1  0.4791270000000  0.5465110000000  0.4504680000000 1.0
C      1  0.4513640000000  0.4811850000000  0.5506300000000 1.0
C      1  0.5298780000000  0.4493950000000  0.4475610000000 1.0
C      1  0.4992820000000  0.4691660000000  0.5521920000000 1.0
C      1  0.5268910000000  0.4994150000000  0.4478750000000 1.0
C      1  0.5018090000000  0.5288250000000  0.5469940000000 1.0
C      1  0.4688120000000  0.4991040000000  0.4539020000000 1.0
C      1  0.5315910000000  0.4794980000000  0.5496550000000 1.0
C      1  0.5151410000000  0.5305500000000  0.4551110000000 1.0
C      1  0.4703190000000  0.5158900000000  0.5482900000000 1.0
C      1  0.4796310000000  0.4668530000000  0.4524500000000 1.0
C      1  0.5062660000000  0.5628120000000  0.4612270000000 1.0
C      1  0.4379520000000  0.5102390000000  0.5391340000000 1.0
C      1  0.4992560000000  0.4393130000000  0.4563860000000 1.0
C      1  0.5581690000000  0.4991890000000  0.5416390000000 1.0
C      1  0.4744410000000  0.5113370000000  0.5039080000000 1.0
C      1  0.4845870000000  0.4669510000000  0.4993510000000 1.0
C      1  0.5267580000000  0.4848080000000  0.5034570000000 1.0
C      1  0.5133400000000  0.5225360000000  0.4967040000000 1.0
C      1  0.4998270000000  0.5109850000000  0.5218900000000 1.0
C      1  0.4848730000000  0.4948640000000  0.4802040000000 1.0
C      1  0.5019730000000  0.4803720000000  0.5229900000000 1.0
C      1  0.5152850000000  0.4973640000000  0.4772680000000 1.0
C      1  0.4942020000000  0.5083510000000  0.4088590000000 1.0
C      1  0.4917170000000  0.4974990000000  0.5937950000000 1.0
C      1  0.5038730000000  0.4848240000000  0.4081010000000 1.0
C      1  0.5149990000000  0.5076070000000  0.5916550000000 1.0
C      1  0.5768670000000  0.4944810000000  0.5132770000000 1.0
C      1  0.5053830000000  0.5726410000000  0.4939150000000 1.0
C      1  0.4244730000000  0.5093060000000  0.5075870000000 1.0
C      1  0.4921240000000  0.4202210000000  0.4837520000000 1.0
C      1  0.5727810000000  0.4962950000000  0.4835510000000 1.0
C      1  0.5085200000000  0.5788920000000  0.5197550000000 1.0
C      1  0.4204610000000  0.5143940000000  0.4812640000000 1.0
C      1  0.4882640000000  0.4341100000000  0.5073720000000 1.0
C      1  0.4886900000000  0.5190910000000  0.4368540000000 1.0
C      1  0.4784310000000  0.4889960000000  0.5674530000000 1.0
C      1  0.5091830000000  0.4725070000000  0.4364230000000 1.0
C      1  0.5260130000000  0.5105600000000  0.5625350000000 1.0
C      1  0.4558850000000  0.4599510000000  0.5320980000000 1.0
C      1  0.5474990000000  0.4593700000000  0.4674150000000 1.0
C      1  0.5418900000000  0.5471590000000  0.5324080000000 1.0
C      1  0.4572630000000  0.5419860000000  0.4678130000000 1.0
C      1  0.5387930000000  0.4550280000000  0.4975120000000 1.0
C      1  0.5423370000000  0.5345790000000  0.5044950000000 1.0
C      1  0.4656750000000  0.5411400000000  0.4973180000000 1.0
C      1  0.4509130000000  0.4659840000000  0.5006470000000 1.0
END
