TITL C-1154810-7815-675 0.00548080238009061 125000 -341.462794208161 0 0 60 (C2) n - 1
REM
REM in /home/nfs/bkarasulu/CARBON/AIRSS/Generating-Clusters/AIREBO/Higher-Symm/Only-C60
REM
REM
REM
REM
REM
REM ./C.cell (28575a23ae977d3b5fae324c64b13b57)
REM
REM compiler GCC version 9.2.1 20190827 (Red Hat 9.2.1-1)
REM options -cpp -mtune=generic -march=x86-64 -g -O0 -fpre-include=/usr/include/finclude/math-vector-fortran.h
REM seed -1967056661 -1570721300 1911138472 118388929 1869018725 2073807103 -132734639 77081217 -1622038157 1007212676 1742206114 -1015051581 709740527 48993039 1886409339 185203481 -1701621889 -646103307 -696385946 783019617 -1392770460 696566534 33825817 -195490067 157088477 2069215619 781167274 -1232579588 550420297 1195810329 -251770810 -604230731 -1014274243
REM
CELL 1.54180   50.00000   50.00000   50.00000   90.00000   90.00000   90.00000
LATT -1
SFAC C  
C      1  0.4418490000000  0.4662010000000  0.4757910000000 1.0
C      1  0.4927030000000  0.4682920000000  0.4396140000000 1.0
C      1  0.5509260000000  0.4677030000000  0.4625430000000 1.0
C      1  0.5581860000000  0.4662170000000  0.5241480000000 1.0
C      1  0.5073300000000  0.4681910000000  0.5603290000000 1.0
C      1  0.4491080000000  0.4675830000000  0.5373990000000 1.0
C      1  0.5099270000000  0.5247420000000  0.4725730000000 1.0
C      1  0.5285400000000  0.5154580000000  0.4966170000000 1.0
C      1  0.5165150000000  0.5245410000000  0.5243490000000 1.0
C      1  0.4900470000000  0.5246820000000  0.5274710000000 1.0
C      1  0.4714440000000  0.5154230000000  0.5034110000000 1.0
C      1  0.4834600000000  0.5245680000000  0.4756950000000 1.0
C      1  0.5605060000000  0.4768080000000  0.4929970000000 1.0
C      1  0.5365000000000  0.4785510000000  0.5472990000000 1.0
C      1  0.4757290000000  0.4795450000000  0.5549460000000 1.0
C      1  0.4395180000000  0.4767330000000  0.5069610000000 1.0
C      1  0.4635220000000  0.4785980000000  0.4526630000000 1.0
C      1  0.5242930000000  0.4796690000000  0.4450170000000 1.0
C      1  0.4401650000000  0.5459800000000  0.4614400000000 1.0
C      1  0.5031730000000  0.5465820000000  0.4275590000000 1.0
C      1  0.5641790000000  0.5417280000000  0.4666760000000 1.0
C      1  0.5597880000000  0.5459730000000  0.5386430000000 1.0
C      1  0.4967780000000  0.5464480000000  0.5725250000000 1.0
C      1  0.4357780000000  0.5416020000000  0.5333990000000 1.0
C      1  0.5297480000000  0.5042570000000  0.4299160000000 1.0
C      1  0.5777320000000  0.5010670000000  0.4919870000000 1.0
C      1  0.5461710000000  0.5030510000000  0.5603950000000 1.0
C      1  0.4702480000000  0.5041000000000  0.5700910000000 1.0
C      1  0.4222670000000  0.5009720000000  0.5080140000000 1.0
C      1  0.4538250000000  0.5031110000000  0.4396110000000 1.0
C      1  0.4916930000000  0.4398790000000  0.5251670000000 1.0
C      1  0.4744430000000  0.4266930000000  0.5068360000000 1.0
C      1  0.4790790000000  0.4359800000000  0.4804270000000 1.0
C      1  0.5083690000000  0.4399330000000  0.4747250000000 1.0
C      1  0.5256330000000  0.4267320000000  0.4930330000000 1.0
C      1  0.5209870000000  0.4359660000000  0.5194580000000 1.0
C      1  0.4870700000000  0.4714050000000  0.5262100000000 1.0
C      1  0.4712780000000  0.4832680000000  0.5033940000000 1.0
C      1  0.4814430000000  0.4691530000000  0.4778990000000 1.0
C      1  0.5129600000000  0.4714660000000  0.4737390000000 1.0
C      1  0.5287390000000  0.4833030000000  0.4965760000000 1.0
C      1  0.5185890000000  0.4691320000000  0.5220460000000 1.0
C      1  0.4395070000000  0.5258510000000  0.5074170000000 1.0
C      1  0.4636850000000  0.5291000000000  0.4514010000000 1.0
C      1  0.5229530000000  0.5299210000000  0.4442530000000 1.0
C      1  0.5604660000000  0.5259270000000  0.4926290000000 1.0
C      1  0.5362850000000  0.5290500000000  0.5486510000000 1.0
C      1  0.4770160000000  0.5297970000000  0.5558000000000 1.0
C      1  0.4517770000000  0.5465500000000  0.5515870000000 1.0
C      1  0.4314270000000  0.5444900000000  0.4845160000000 1.0
C      1  0.4784730000000  0.5456440000000  0.4300210000000 1.0
C      1  0.5481750000000  0.5466920000000  0.4484960000000 1.0
C      1  0.5685270000000  0.5445330000000  0.5155640000000 1.0
C      1  0.5214800000000  0.5455410000000  0.5700610000000 1.0
C      1  0.3962960000000  0.5009830000000  0.5097680000000 1.0
C      1  0.4377250000000  0.5027050000000  0.4190000000000 1.0
C      1  0.5398540000000  0.5042060000000  0.4058040000000 1.0
C      1  0.6037030000000  0.5011080000000  0.4902340000000 1.0
C      1  0.5622730000000  0.5026240000000  0.5810050000000 1.0
C      1  0.4601420000000  0.5039950000000  0.5942030000000 1.0
END
