TITL C-1154827-9204-195 -4.60918568377915e-06 125000 -324.546983140753 0 0 60 (C1) n - 1
REM
REM in /home/nfs/bkarasulu/CARBON/AIRSS/Generating-Clusters/AIREBO/Higher-Symm/Only-C60
REM
REM
REM
REM
REM
REM ./C.cell (28575a23ae977d3b5fae324c64b13b57)
REM
REM compiler GCC version 9.2.1 20190827 (Red Hat 9.2.1-1)
REM options -cpp -mtune=generic -march=x86-64 -g -O0 -fpre-include=/usr/include/finclude/math-vector-fortran.h
REM seed 443686883 -471073122 859097194 596362840 2005090021 293059067 434445417 -609905008 1776096727 -589573650 494181114 702779234 1711855546 -70174694 894299309 1049131666 2137688105 -423551928 1108345438 -975782032 1662575454 -1796621607 1502755380 -1768842883 -744260009 -1984926482 -815831176 1224290449 -448956385 1770781825 -2115063812 -1649551366 -1788467903
REM
CELL 1.54180   50.00000   50.00000   50.00000   90.00000   90.00000   90.00000
LATT -1
SFAC C  
C      1  0.4953030000000  0.4823620000000  0.5110320000000 1.0
C      1  0.5635270000000  0.5483780000000  0.4780600000000 1.0
C      1  0.4679320000000  0.5538700000000  0.4604180000000 1.0
C      1  0.5454610000000  0.4425460000000  0.4501200000000 1.0
C      1  0.4610980000000  0.5398370000000  0.5547570000000 1.0
C      1  0.5025150000000  0.5155710000000  0.4483550000000 1.0
C      1  0.5160990000000  0.5571730000000  0.5389260000000 1.0
C      1  0.5622390000000  0.5248680000000  0.4614930000000 1.0
C      1  0.4802500000000  0.4581450000000  0.4949990000000 1.0
C      1  0.4692550000000  0.4801410000000  0.4413310000000 1.0
C      1  0.4754600000000  0.4278080000000  0.5096290000000 1.0
C      1  0.5777150000000  0.4852390000000  0.4794640000000 1.0
C      1  0.4491350000000  0.4641460000000  0.4944730000000 1.0
C      1  0.4565170000000  0.4201260000000  0.4867250000000 1.0
C      1  0.5165820000000  0.5619330000000  0.4821960000000 1.0
C      1  0.4675260000000  0.5572420000000  0.5095660000000 1.0
C      1  0.5062560000000  0.4498720000000  0.5474820000000 1.0
C      1  0.4825830000000  0.5178590000000  0.4824790000000 1.0
C      1  0.5707170000000  0.5112980000000  0.5257100000000 1.0
C      1  0.5586770000000  0.4931980000000  0.5047860000000 1.0
C      1  0.4717710000000  0.4218850000000  0.4618530000000 1.0
C      1  0.4782420000000  0.5192690000000  0.5710130000000 1.0
C      1  0.4699150000000  0.5078230000000  0.4531890000000 1.0
C      1  0.5436350000000  0.5558100000000  0.4970950000000 1.0
C      1  0.5151700000000  0.5907790000000  0.4729570000000 1.0
C      1  0.4990570000000  0.5468110000000  0.5044680000000 1.0
C      1  0.4430450000000  0.4896060000000  0.5102270000000 1.0
C      1  0.4506430000000  0.5473420000000  0.4873410000000 1.0
C      1  0.4973510000000  0.5429330000000  0.4648560000000 1.0
C      1  0.5184960000000  0.4874700000000  0.4530470000000 1.0
C      1  0.5334670000000  0.5050510000000  0.4933650000000 1.0
C      1  0.5204400000000  0.4658090000000  0.5209160000000 1.0
C      1  0.5108680000000  0.5255850000000  0.5383760000000 1.0
C      1  0.5133720000000  0.4180040000000  0.4815490000000 1.0
C      1  0.4735700000000  0.4582350000000  0.5476650000000 1.0
C      1  0.5371710000000  0.5106930000000  0.4648660000000 1.0
C      1  0.4161020000000  0.5175750000000  0.4737170000000 1.0
C      1  0.4924560000000  0.5716540000000  0.5276470000000 1.0
C      1  0.5267250000000  0.4589700000000  0.4685660000000 1.0
C      1  0.4929840000000  0.5029000000000  0.5873250000000 1.0
C      1  0.5416190000000  0.5497050000000  0.5254030000000 1.0
C      1  0.5844070000000  0.5062240000000  0.4626840000000 1.0
C      1  0.5383360000000  0.4594510000000  0.4977280000000 1.0
C      1  0.4786910000000  0.5185490000000  0.5368540000000 1.0
C      1  0.5523390000000  0.5264800000000  0.5383300000000 1.0
C      1  0.4814540000000  0.4299020000000  0.5363200000000 1.0
C      1  0.5168290000000  0.4936100000000  0.5790920000000 1.0
C      1  0.4445530000000  0.5258880000000  0.4616670000000 1.0
C      1  0.4361100000000  0.4407440000000  0.4884620000000 1.0
C      1  0.4934450000000  0.4668680000000  0.4472690000000 1.0
C      1  0.4557160000000  0.5613240000000  0.5394700000000 1.0
C      1  0.5057570000000  0.5135520000000  0.5069850000000 1.0
C      1  0.4493200000000  0.4712860000000  0.4249780000000 1.0
C      1  0.4342660000000  0.5201500000000  0.4996560000000 1.0
C      1  0.5259970000000  0.4759780000000  0.5522720000000 1.0
C      1  0.5687960000000  0.4615850000000  0.4981640000000 1.0
C      1  0.5316310000000  0.5093280000000  0.5545670000000 1.0
C      1  0.4659510000000  0.5135730000000  0.5101780000000 1.0
C      1  0.4683190000000  0.4777730000000  0.5277420000000 1.0
C      1  0.4971360000000  0.4422150000000  0.4701430000000 1.0
END
