TITL C-1154825-9328-113 -47.5247524890116 125000 -339.691981356138 0 0 60 (C3) n - 1
REM
REM in /home/nfs/bkarasulu/CARBON/AIRSS/Generating-Clusters/AIREBO/Higher-Symm/Only-C60
REM
REM
REM
REM
REM
REM ./C.cell (28575a23ae977d3b5fae324c64b13b57)
REM
REM compiler GCC version 9.2.1 20190827 (Red Hat 9.2.1-1)
REM options -cpp -mtune=generic -march=x86-64 -g -O0 -fpre-include=/usr/include/finclude/math-vector-fortran.h
REM seed 1904906248 1458765364 531092479 -1688505209 -356169855 1180393421 1174506392 -1927213092 -996350576 1694010371 -1739313964 -64038863 -277211311 -419085354 -772983285 -1347882511 1308825401 -1367271514 -1417915559 -414700714 -1634930186 -412783111 -219739811 1535193733 1704309390 1323324547 1573561048 -2092855007 2034260978 564282356 -841031057 -1339824914 -1510589080
REM
CELL 1.54180   50.00000   50.00000   50.00000   90.00000   90.00000   90.00000
LATT -1
SFAC C  
C      1  0.4646170000000  0.4625220000000  0.5388340000000 1.0
C      1  0.4840310000000  0.4625430000000  0.4499330000000 1.0
C      1  0.5513140000000  0.4625020000000  0.5111970000000 1.0
C      1  0.5405110000000  0.4737320000000  0.4127470000000 1.0
C      1  0.5552870000000  0.4736750000000  0.5787050000000 1.0
C      1  0.4041760000000  0.4737470000000  0.5085230000000 1.0
C      1  0.5269510000000  0.4317420000000  0.4747770000000 1.0
C      1  0.5083160000000  0.4317290000000  0.5359400000000 1.0
C      1  0.4646650000000  0.4317590000000  0.4892190000000 1.0
C      1  0.5424410000000  0.5713180000000  0.5077790000000 1.0
C      1  0.4720980000000  0.5713340000000  0.5328790000000 1.0
C      1  0.4855320000000  0.5713520000000  0.4594100000000 1.0
C      1  0.4722430000000  0.5463760000000  0.5453070000000 1.0
C      1  0.4746780000000  0.5464040000000  0.4533170000000 1.0
C      1  0.5531260000000  0.5463630000000  0.5014210000000 1.0
C      1  0.5363630000000  0.4622330000000  0.4365520000000 1.0
C      1  0.5367370000000  0.4621930000000  0.5632080000000 1.0
C      1  0.4268630000000  0.4622490000000  0.5002040000000 1.0
C      1  0.4381420000000  0.4468300000000  0.4776430000000 1.0
C      1  0.5502500000000  0.4467990000000  0.4575990000000 1.0
C      1  0.5115540000000  0.4467780000000  0.5647090000000 1.0
C      1  0.5178480000000  0.5828710000000  0.5050420000000 1.0
C      1  0.4867740000000  0.5828790000000  0.5129510000000 1.0
C      1  0.4954610000000  0.5828860000000  0.4820850000000 1.0
C      1  0.5117590000000  0.5214500000000  0.5554670000000 1.0
C      1  0.4461010000000  0.5214950000000  0.4824540000000 1.0
C      1  0.5421610000000  0.5214690000000  0.4620990000000 1.0
C      1  0.5524700000000  0.4449910000000  0.4900630000000 1.0
C      1  0.4823280000000  0.4449950000000  0.5503990000000 1.0
C      1  0.4651460000000  0.4450300000000  0.4594860000000 1.0
C      1  0.4686630000000  0.5000100000000  0.4782730000000 1.0
C      1  0.5344850000000  0.4999860000000  0.4837250000000 1.0
C      1  0.4968520000000  0.4999820000000  0.5380020000000 1.0
C      1  0.5048880000000  0.5165810000000  0.4814500000000 1.0
C      1  0.5136340000000  0.5165680000000  0.5135120000000 1.0
C      1  0.4814940000000  0.5165820000000  0.5050540000000 1.0
C      1  0.5781600000000  0.5050610000000  0.5268320000000 1.0
C      1  0.4376870000000  0.5050990000000  0.5542740000000 1.0
C      1  0.4841580000000  0.5051260000000  0.4188990000000 1.0
C      1  0.4807740000000  0.4774420000000  0.4971940000000 1.0
C      1  0.5120260000000  0.4774360000000  0.4847490000000 1.0
C      1  0.5071770000000  0.4774270000000  0.5180360000000 1.0
C      1  0.5674300000000  0.5184480000000  0.5484750000000 1.0
C      1  0.4243180000000  0.5185000000000  0.5341620000000 1.0
C      1  0.5082700000000  0.5185080000000  0.4173800000000 1.0
C      1  0.5435200000000  0.5220290000000  0.5166100000000 1.0
C      1  0.4638720000000  0.5220520000000  0.5293890000000 1.0
C      1  0.4926300000000  0.5220660000000  0.4540220000000 1.0
C      1  0.5566690000000  0.4922470000000  0.5061610000000 1.0
C      1  0.4663240000000  0.4922650000000  0.5459950000000 1.0
C      1  0.4769990000000  0.4922920000000  0.4478370000000 1.0
C      1  0.5587500000000  0.5407270000000  0.4742610000000 1.0
C      1  0.4929470000000  0.5407210000000  0.5637560000000 1.0
C      1  0.4483430000000  0.5407670000000  0.4620220000000 1.0
C      1  0.4593530000000  0.4587450000000  0.5092430000000 1.0
C      1  0.5122880000000  0.4587430000000  0.4601700000000 1.0
C      1  0.5283190000000  0.4587160000000  0.5305490000000 1.0
C      1  0.4386180000000  0.5245600000000  0.5087210000000 1.0
C      1  0.5231570000000  0.5245520000000  0.4424860000000 1.0
C      1  0.5382490000000  0.5245140000000  0.5488160000000 1.0
END
