TITL C-1154827-9204-588 -0.000180373689170002 125000 -320.226586074238 0 0 60 (C1) n - 1
REM
REM in /home/nfs/bkarasulu/CARBON/AIRSS/Generating-Clusters/AIREBO/Higher-Symm/Only-C60
REM
REM
REM
REM
REM
REM ./C.cell (28575a23ae977d3b5fae324c64b13b57)
REM
REM compiler GCC version 9.2.1 20190827 (Red Hat 9.2.1-1)
REM options -cpp -mtune=generic -march=x86-64 -g -O0 -fpre-include=/usr/include/finclude/math-vector-fortran.h
REM seed 1798375396 -1405877835 -207607298 -52946437 1807301797 1370392169 183483218 645003527 815273810 -1391363184 1399084728 171448398 -530869018 931421505 -586083099 10695009 -609737818 950661559 1849251147 -871394226 1177491302 -259913119 341681350 -678376949 245960695 255563510 -700472895 249342980 -608289830 -11525857 1947433409 2111155265 -506742063
REM
CELL 1.54180   50.00000   50.00000   50.00000   90.00000   90.00000   90.00000
LATT -1
SFAC C  
C      1  0.4983000000000  0.4676890000000  0.4833710000000 1.0
C      1  0.4974600000000  0.4597720000000  0.5139460000000 1.0
C      1  0.5007540000000  0.4835740000000  0.5375040000000 1.0
C      1  0.4952730000000  0.5144980000000  0.5277550000000 1.0
C      1  0.4983550000000  0.5390490000000  0.5044230000000 1.0
C      1  0.5013970000000  0.5301250000000  0.4712110000000 1.0
C      1  0.4956750000000  0.4969040000000  0.4661460000000 1.0
C      1  0.5335670000000  0.4918050000000  0.5409970000000 1.0
C      1  0.5276940000000  0.5242550000000  0.5308990000000 1.0
C      1  0.5315440000000  0.5445580000000  0.5038240000000 1.0
C      1  0.5339060000000  0.5251880000000  0.4625170000000 1.0
C      1  0.5287760000000  0.4916420000000  0.4604160000000 1.0
C      1  0.5271340000000  0.4504950000000  0.4889380000000 1.0
C      1  0.5292350000000  0.4614690000000  0.5253200000000 1.0
C      1  0.4924290000000  0.5205490000000  0.4311480000000 1.0
C      1  0.5071560000000  0.4510420000000  0.4366430000000 1.0
C      1  0.4884420000000  0.4171000000000  0.4993750000000 1.0
C      1  0.4981890000000  0.4551190000000  0.5654500000000 1.0
C      1  0.5031590000000  0.5187070000000  0.5733620000000 1.0
C      1  0.5032380000000  0.5694170000000  0.5307830000000 1.0
C      1  0.4991800000000  0.5699900000000  0.4706040000000 1.0
C      1  0.5562680000000  0.5342900000000  0.4864720000000 1.0
C      1  0.5592620000000  0.4775810000000  0.4549800000000 1.0
C      1  0.5561910000000  0.4652120000000  0.4817060000000 1.0
C      1  0.5614950000000  0.4839500000000  0.5015580000000 1.0
C      1  0.5651100000000  0.4958080000000  0.5289200000000 1.0
C      1  0.5814090000000  0.5191600000000  0.5274620000000 1.0
C      1  0.5819490000000  0.5355240000000  0.5046690000000 1.0
C      1  0.5213030000000  0.5550710000000  0.5409480000000 1.0
C      1  0.5175810000000  0.5696710000000  0.4875870000000 1.0
C      1  0.5168140000000  0.5303970000000  0.4343740000000 1.0
C      1  0.5253600000000  0.4581160000000  0.4558180000000 1.0
C      1  0.5151120000000  0.4204990000000  0.4932020000000 1.0
C      1  0.5183940000000  0.4476760000000  0.5515220000000 1.0
C      1  0.5229230000000  0.5029830000000  0.5712960000000 1.0
C      1  0.4387900000000  0.4934230000000  0.4702200000000 1.0
C      1  0.4443890000000  0.4631370000000  0.4846920000000 1.0
C      1  0.4392190000000  0.4749310000000  0.5163570000000 1.0
C      1  0.4385450000000  0.5017520000000  0.5345370000000 1.0
C      1  0.4386480000000  0.5280750000000  0.5241770000000 1.0
C      1  0.4352060000000  0.5374550000000  0.4974940000000 1.0
C      1  0.4496020000000  0.5255380000000  0.4701540000000 1.0
C      1  0.4614880000000  0.5200530000000  0.4405210000000 1.0
C      1  0.4814810000000  0.4607370000000  0.4398280000000 1.0
C      1  0.4602860000000  0.4329400000000  0.4882880000000 1.0
C      1  0.4557300000000  0.4562210000000  0.5351680000000 1.0
C      1  0.4579240000000  0.4993270000000  0.5560450000000 1.0
C      1  0.4594340000000  0.5433260000000  0.5373950000000 1.0
C      1  0.4572990000000  0.5580580000000  0.4916130000000 1.0
C      1  0.4778190000000  0.5237510000000  0.5543420000000 1.0
C      1  0.4761890000000  0.5593500000000  0.5166590000000 1.0
C      1  0.4743560000000  0.5484530000000  0.4655760000000 1.0
C      1  0.4789130000000  0.4911010000000  0.4392790000000 1.0
C      1  0.4727520000000  0.4555530000000  0.4685120000000 1.0
C      1  0.4737930000000  0.4398630000000  0.5181120000000 1.0
C      1  0.4734910000000  0.4728030000000  0.5542110000000 1.0
C      1  0.5444350000000  0.5073920000000  0.4967020000000 1.0
C      1  0.4846630000000  0.5021760000000  0.4978900000000 1.0
C      1  0.4556440000000  0.4982160000000  0.4986460000000 1.0
C      1  0.5185090000000  0.5054440000000  0.4969430000000 1.0
END
