TITL C-1154827-9204-544 -0.000936137178267416 125000 -343.13555148843 0 0 60 (C1) n - 1
REM
REM in /home/nfs/bkarasulu/CARBON/AIRSS/Generating-Clusters/AIREBO/Higher-Symm/Only-C60
REM
REM
REM
REM
REM
REM ./C.cell (28575a23ae977d3b5fae324c64b13b57)
REM
REM compiler GCC version 9.2.1 20190827 (Red Hat 9.2.1-1)
REM options -cpp -mtune=generic -march=x86-64 -g -O0 -fpre-include=/usr/include/finclude/math-vector-fortran.h
REM seed -95051333 1911749493 -1635577223 2097743749 -1679500577 -2142324360 -1706020673 -1640928849 1787346547 -825267101 1986839037 -1628095202 -2066695605 -1231389904 -1205120101 65697086 2014722163 1991341812 -443085984 -315070170 337322779 1193546335 -1919390891 2051368883 1140992845 -1432551351 -1309578190 894313057 -810757427 949316188 -946553736 -641513032 774575446
REM
CELL 1.54180   50.00000   50.00000   50.00000   90.00000   90.00000   90.00000
LATT -1
SFAC C  
C      1  0.4972520000000  0.4910230000000  0.4360030000000 1.0
C      1  0.5004330000000  0.4533300000000  0.4868170000000 1.0
C      1  0.5089100000000  0.4564530000000  0.5393540000000 1.0
C      1  0.5116200000000  0.5180690000000  0.5368630000000 1.0
C      1  0.5152440000000  0.5695950000000  0.5235630000000 1.0
C      1  0.5099270000000  0.5346610000000  0.4736420000000 1.0
C      1  0.4957670000000  0.4879150000000  0.5366980000000 1.0
C      1  0.4925100000000  0.4417910000000  0.5144850000000 1.0
C      1  0.4799740000000  0.4645910000000  0.4620700000000 1.0
C      1  0.4919960000000  0.5100820000000  0.4637570000000 1.0
C      1  0.4996330000000  0.5532880000000  0.4992600000000 1.0
C      1  0.4946220000000  0.5477100000000  0.5382820000000 1.0
C      1  0.4806830000000  0.4305940000000  0.4617970000000 1.0
C      1  0.4695270000000  0.4354700000000  0.5381400000000 1.0
C      1  0.4789850000000  0.4994470000000  0.5639320000000 1.0
C      1  0.4634050000000  0.5618020000000  0.5336870000000 1.0
C      1  0.4844260000000  0.5638930000000  0.4640660000000 1.0
C      1  0.4722910000000  0.4809630000000  0.4233870000000 1.0
C      1  0.5295050000000  0.4355110000000  0.5274000000000 1.0
C      1  0.5126070000000  0.4423470000000  0.4572790000000 1.0
C      1  0.5045150000000  0.5196470000000  0.4271070000000 1.0
C      1  0.5182600000000  0.5669410000000  0.4669510000000 1.0
C      1  0.5300450000000  0.5621720000000  0.5496540000000 1.0
C      1  0.5013620000000  0.4797220000000  0.5788530000000 1.0
C      1  0.4616770000000  0.5184340000000  0.4748710000000 1.0
C      1  0.4573110000000  0.4879970000000  0.4716590000000 1.0
C      1  0.4587670000000  0.4671130000000  0.4956970000000 1.0
C      1  0.4649450000000  0.4811550000000  0.5231820000000 1.0
C      1  0.4523560000000  0.5098830000000  0.5260990000000 1.0
C      1  0.4518020000000  0.5271820000000  0.5033840000000 1.0
C      1  0.5419900000000  0.5168380000000  0.5216090000000 1.0
C      1  0.5542350000000  0.4899830000000  0.5276560000000 1.0
C      1  0.5588790000000  0.4730860000000  0.5059730000000 1.0
C      1  0.5526250000000  0.4818200000000  0.4797240000000 1.0
C      1  0.5561010000000  0.5092950000000  0.4741230000000 1.0
C      1  0.5503050000000  0.5278210000000  0.4942620000000 1.0
C      1  0.4739710000000  0.5669810000000  0.4913370000000 1.0
C      1  0.4807370000000  0.5350780000000  0.4267600000000 1.0
C      1  0.4637640000000  0.4518860000000  0.4349300000000 1.0
C      1  0.4661040000000  0.4203590000000  0.5110270000000 1.0
C      1  0.4708170000000  0.4691230000000  0.5722420000000 1.0
C      1  0.4673590000000  0.5434080000000  0.5571720000000 1.0
C      1  0.5295350000000  0.5791630000000  0.4966110000000 1.0
C      1  0.5205110000000  0.5350430000000  0.5655140000000 1.0
C      1  0.5224870000000  0.4724700000000  0.5620410000000 1.0
C      1  0.5270380000000  0.4356710000000  0.4955170000000 1.0
C      1  0.5174560000000  0.4697370000000  0.4388910000000 1.0
C      1  0.5241380000000  0.5287710000000  0.4448290000000 1.0
C      1  0.4476680000000  0.4789590000000  0.4435260000000 1.0
C      1  0.4630070000000  0.4392660000000  0.4877670000000 1.0
C      1  0.4608510000000  0.4597080000000  0.5475620000000 1.0
C      1  0.4585430000000  0.5176040000000  0.5534770000000 1.0
C      1  0.4540200000000  0.5554490000000  0.5079570000000 1.0
C      1  0.4711660000000  0.5420930000000  0.4523170000000 1.0
C      1  0.5481790000000  0.4806120000000  0.5537970000000 1.0
C      1  0.5538620000000  0.4456690000000  0.5098320000000 1.0
C      1  0.5341880000000  0.4674320000000  0.4657820000000 1.0
C      1  0.5504200000000  0.5193790000000  0.4482420000000 1.0
C      1  0.5432960000000  0.5528640000000  0.4857040000000 1.0
C      1  0.5463940000000  0.5356500000000  0.5458780000000 1.0
END
