TITL C-1154829-9094-29 -0.000923583948679077 125000 -339.579000771303 0 0 60 (C1) n - 1
REM
REM in /home/nfs/bkarasulu/CARBON/AIRSS/Generating-Clusters/AIREBO/Higher-Symm/Only-C60
REM
REM
REM
REM
REM
REM ./C.cell (28575a23ae977d3b5fae324c64b13b57)
REM
REM compiler GCC version 9.2.1 20190827 (Red Hat 9.2.1-1)
REM options -cpp -mtune=generic -march=x86-64 -g -O0 -fpre-include=/usr/include/finclude/math-vector-fortran.h
REM seed -504843002 -1524130852 -882958084 -279075475 -1847610811 887347631 -1233502295 814308604 279396107 1059406652 -570441889 -830844184 -608642634 -1756539659 767266648 -373419237 -449957494 -2109784578 830819449 173241534 8342169 -1088107121 -495678657 1886137376 -523552835 193065407 -135920325 -1212017764 -1588085382 1208059798 -375812425 475060904 -995080914
REM
CELL 1.54180   50.00000   50.00000   50.00000   90.00000   90.00000   90.00000
LATT -1
SFAC C  
C      1  0.5428650000000  0.5026360000000  0.4956430000000 1.0
C      1  0.5012710000000  0.4058750000000  0.5108880000000 1.0
C      1  0.4690170000000  0.5760680000000  0.5119550000000 1.0
C      1  0.5577170000000  0.4433520000000  0.4432620000000 1.0
C      1  0.4987970000000  0.5108710000000  0.5370070000000 1.0
C      1  0.5152900000000  0.4026920000000  0.4867810000000 1.0
C      1  0.5452180000000  0.5112240000000  0.4682490000000 1.0
C      1  0.5422400000000  0.5128270000000  0.5541200000000 1.0
C      1  0.5300280000000  0.5598700000000  0.4772320000000 1.0
C      1  0.5193780000000  0.5294380000000  0.5520650000000 1.0
C      1  0.4393490000000  0.4855480000000  0.4758340000000 1.0
C      1  0.4791780000000  0.4618040000000  0.4945310000000 1.0
C      1  0.5318460000000  0.5514290000000  0.5047670000000 1.0
C      1  0.4948140000000  0.5256790000000  0.4897130000000 1.0
C      1  0.4614200000000  0.5636470000000  0.4874050000000 1.0
C      1  0.4388120000000  0.5304570000000  0.5513150000000 1.0
C      1  0.5191180000000  0.4822640000000  0.4976200000000 1.0
C      1  0.5398860000000  0.5419040000000  0.4585980000000 1.0
C      1  0.4622080000000  0.6017310000000  0.5188600000000 1.0
C      1  0.4468650000000  0.4703150000000  0.5008910000000 1.0
C      1  0.4987030000000  0.4558180000000  0.5194200000000 1.0
C      1  0.5416220000000  0.4931480000000  0.5320080000000 1.0
C      1  0.4793220000000  0.4867090000000  0.4419530000000 1.0
C      1  0.5100840000000  0.5551680000000  0.5509470000000 1.0
C      1  0.4700560000000  0.5107090000000  0.4725320000000 1.0
C      1  0.4579710000000  0.6269820000000  0.5244520000000 1.0
C      1  0.4860730000000  0.5345070000000  0.4572130000000 1.0
C      1  0.5044590000000  0.5371810000000  0.5158090000000 1.0
C      1  0.5418980000000  0.4640170000000  0.4853940000000 1.0
C      1  0.4750350000000  0.3953030000000  0.5118990000000 1.0
C      1  0.5126920000000  0.4136420000000  0.4621220000000 1.0
C      1  0.5101510000000  0.4459630000000  0.4529620000000 1.0
C      1  0.4550050000000  0.4112380000000  0.5017560000000 1.0
C      1  0.4734440000000  0.5070110000000  0.5533850000000 1.0
C      1  0.5402290000000  0.4886690000000  0.4445340000000 1.0
C      1  0.4598360000000  0.5441330000000  0.5473710000000 1.0
C      1  0.4538920000000  0.4741990000000  0.4544740000000 1.0
C      1  0.5652970000000  0.5173500000000  0.5116240000000 1.0
C      1  0.5772570000000  0.5118750000000  0.5946490000000 1.0
C      1  0.5379140000000  0.4600880000000  0.4550160000000 1.0
C      1  0.5112780000000  0.4832660000000  0.5290120000000 1.0
C      1  0.5081650000000  0.4194040000000  0.4316780000000 1.0
C      1  0.4551050000000  0.4373290000000  0.5009630000000 1.0
C      1  0.4407560000000  0.5165700000000  0.4786170000000 1.0
C      1  0.4846860000000  0.4595790000000  0.4609930000000 1.0
C      1  0.4274130000000  0.4964550000000  0.5447700000000 1.0
C      1  0.5581240000000  0.5445590000000  0.5139970000000 1.0
C      1  0.4393820000000  0.5448300000000  0.4834270000000 1.0
C      1  0.4337510000000  0.4805860000000  0.5259350000000 1.0
C      1  0.4566260000000  0.5010020000000  0.5716720000000 1.0
C      1  0.4877000000000  0.4933560000000  0.4923680000000 1.0
C      1  0.4824360000000  0.5622810000000  0.4687100000000 1.0
C      1  0.5508020000000  0.5196740000000  0.4362330000000 1.0
C      1  0.5072930000000  0.5755780000000  0.4702470000000 1.0
C      1  0.4827740000000  0.5579430000000  0.5317760000000 1.0
C      1  0.4869980000000  0.5111370000000  0.4357430000000 1.0
C      1  0.5609260000000  0.5131820000000  0.5741930000000 1.0
C      1  0.5691510000000  0.4849180000000  0.5193480000000 1.0
C      1  0.5655040000000  0.4647250000000  0.4994240000000 1.0
C      1  0.5048750000000  0.4302830000000  0.5246410000000 1.0
END
