TITL C-1154827-9204-101 -0.00359799340339669 125000 -338.800509283357 0 0 60 (C1) n - 1
REM
REM in /home/nfs/bkarasulu/CARBON/AIRSS/Generating-Clusters/AIREBO/Higher-Symm/Only-C60
REM
REM
REM
REM
REM
REM ./C.cell (28575a23ae977d3b5fae324c64b13b57)
REM
REM compiler GCC version 9.2.1 20190827 (Red Hat 9.2.1-1)
REM options -cpp -mtune=generic -march=x86-64 -g -O0 -fpre-include=/usr/include/finclude/math-vector-fortran.h
REM seed 1192384802 -1695454050 1106346049 469893501 199824789 -212791050 -1697882267 30312085 -1948938073 1952027437 1014126202 -2060103735 636063737 347973632 830529756 881034326 1207582546 1230545272 -1119209278 1421399307 -492336534 -270679142 -2136117952 2120849756 1021636208 1264062723 220878378 1988508087 -1962999042 -378222790 1194146576 2001754227 21213908
REM
CELL 1.54180   50.00000   50.00000   50.00000   90.00000   90.00000   90.00000
LATT -1
SFAC C  
C      1  0.4786340000000  0.4635260000000  0.4851190000000 1.0
C      1  0.5305080000000  0.4555500000000  0.4849800000000 1.0
C      1  0.5013300000000  0.4656610000000  0.5243190000000 1.0
C      1  0.4723230000000  0.4582570000000  0.5155390000000 1.0
C      1  0.5303250000000  0.4583870000000  0.5171770000000 1.0
C      1  0.5057230000000  0.4709280000000  0.4771790000000 1.0
C      1  0.5395090000000  0.4528110000000  0.4437460000000 1.0
C      1  0.5182870000000  0.4475570000000  0.5549330000000 1.0
C      1  0.4442430000000  0.4441130000000  0.4868690000000 1.0
C      1  0.5447560000000  0.4565690000000  0.5543650000000 1.0
C      1  0.5113160000000  0.4505090000000  0.4439250000000 1.0
C      1  0.4331230000000  0.4516740000000  0.5115990000000 1.0
C      1  0.4538860000000  0.5875000000000  0.5136850000000 1.0
C      1  0.5117230000000  0.5755820000000  0.4654060000000 1.0
C      1  0.5398980000000  0.5717620000000  0.5306420000000 1.0
C      1  0.4556780000000  0.5800600000000  0.4870090000000 1.0
C      1  0.5142220000000  0.5787880000000  0.5381740000000 1.0
C      1  0.5373170000000  0.5729030000000  0.4756360000000 1.0
C      1  0.4483950000000  0.4766740000000  0.5261240000000 1.0
C      1  0.5009380000000  0.4828710000000  0.4456790000000 1.0
C      1  0.5512070000000  0.4804190000000  0.5324980000000 1.0
C      1  0.4493410000000  0.4715470000000  0.4698300000000 1.0
C      1  0.4990210000000  0.4755700000000  0.5555960000000 1.0
C      1  0.5537130000000  0.4702910000000  0.4677010000000 1.0
C      1  0.5760510000000  0.4941110000000  0.4694150000000 1.0
C      1  0.4817390000000  0.4978380000000  0.5736580000000 1.0
C      1  0.4346460000000  0.4941790000000  0.4511550000000 1.0
C      1  0.5613210000000  0.5131990000000  0.5313630000000 1.0
C      1  0.4949250000000  0.5132920000000  0.4305710000000 1.0
C      1  0.4366740000000  0.4990690000000  0.5466910000000 1.0
C      1  0.5362870000000  0.5228830000000  0.4701980000000 1.0
C      1  0.5009690000000  0.5326830000000  0.5452200000000 1.0
C      1  0.4504360000000  0.5274440000000  0.4826470000000 1.0
C      1  0.5286390000000  0.5226290000000  0.5314460000000 1.0
C      1  0.5084320000000  0.5274510000000  0.4584410000000 1.0
C      1  0.4564110000000  0.5332020000000  0.5156330000000 1.0
C      1  0.5432600000000  0.5485320000000  0.4887590000000 1.0
C      1  0.4944960000000  0.5604150000000  0.5352220000000 1.0
C      1  0.4703480000000  0.5531830000000  0.4824580000000 1.0
C      1  0.5423790000000  0.5476080000000  0.5162260000000 1.0
C      1  0.4950920000000  0.5540030000000  0.4665280000000 1.0
C      1  0.4712220000000  0.5608980000000  0.5184140000000 1.0
C      1  0.4740540000000  0.5231350000000  0.5636700000000 1.0
C      1  0.4456110000000  0.5203070000000  0.4495140000000 1.0
C      1  0.5685450000000  0.5188640000000  0.4803710000000 1.0
C      1  0.4677460000000  0.5219180000000  0.4306090000000 1.0
C      1  0.4499570000000  0.5236100000000  0.5477190000000 1.0
C      1  0.5740570000000  0.5220770000000  0.5083880000000 1.0
C      1  0.4636370000000  0.4999220000000  0.4785440000000 1.0
C      1  0.5369430000000  0.4949210000000  0.4838370000000 1.0
C      1  0.4927390000000  0.5022740000000  0.5354640000000 1.0
C      1  0.4693090000000  0.5020510000000  0.5204630000000 1.0
C      1  0.5321100000000  0.4973970000000  0.5100690000000 1.0
C      1  0.4872180000000  0.5044090000000  0.4681390000000 1.0
C      1  0.5318840000000  0.4258430000000  0.5115290000000 1.0
C      1  0.4850000000000  0.4284320000000  0.5205440000000 1.0
C      1  0.5013460000000  0.4328340000000  0.4659920000000 1.0
C      1  0.5254190000000  0.4220810000000  0.4822000000000 1.0
C      1  0.4752360000000  0.4299210000000  0.4876850000000 1.0
C      1  0.5104490000000  0.4278780000000  0.5334920000000 1.0
END
