TITL C-1154825-9328-514 0.000826987345013971 125000 -328.648260858944 0 0 60 (C1) n - 1
REM
REM in /home/nfs/bkarasulu/CARBON/AIRSS/Generating-Clusters/AIREBO/Higher-Symm/Only-C60
REM
REM
REM
REM
REM
REM ./C.cell (28575a23ae977d3b5fae324c64b13b57)
REM
REM compiler GCC version 9.2.1 20190827 (Red Hat 9.2.1-1)
REM options -cpp -mtune=generic -march=x86-64 -g -O0 -fpre-include=/usr/include/finclude/math-vector-fortran.h
REM seed -1576620528 1753611402 997558041 -465246665 -1948151173 1570642263 271426019 -1979479495 1737514899 -1001176504 -2118506952 1562785841 -1630542363 -1413362024 67689440 181402078 1805269439 -1177244583 391791431 744217728 -2092227504 -884285565 1860811619 2045177947 -500100768 -1202683635 -1376102464 -2138521930 1531765874 2110553137 2035490191 1125526286 784452008
REM
CELL 1.54180   50.00000   50.00000   50.00000   90.00000   90.00000   90.00000
LATT -1
SFAC C  
C      1  0.5456510000000  0.5102690000000  0.5558960000000 1.0
C      1  0.5358530000000  0.4738400000000  0.4347710000000 1.0
C      1  0.4476580000000  0.5229790000000  0.5620510000000 1.0
C      1  0.4576570000000  0.4808620000000  0.4443570000000 1.0
C      1  0.5522640000000  0.4777260000000  0.5611210000000 1.0
C      1  0.5495680000000  0.5193180000000  0.4440220000000 1.0
C      1  0.4538470000000  0.4908470000000  0.5573830000000 1.0
C      1  0.4554810000000  0.5288210000000  0.4347770000000 1.0
C      1  0.5166100000000  0.4457690000000  0.4686140000000 1.0
C      1  0.5266590000000  0.5392040000000  0.5360180000000 1.0
C      1  0.4870720000000  0.4625800000000  0.4672910000000 1.0
C      1  0.4706040000000  0.5391850000000  0.5342150000000 1.0
C      1  0.5249280000000  0.5421810000000  0.4652330000000 1.0
C      1  0.5303330000000  0.4590850000000  0.5339010000000 1.0
C      1  0.4785470000000  0.5400370000000  0.4648890000000 1.0
C      1  0.4733730000000  0.4608950000000  0.5396090000000 1.0
C      1  0.4757680000000  0.5608890000000  0.5119810000000 1.0
C      1  0.4811300000000  0.4391680000000  0.4912300000000 1.0
C      1  0.5212600000000  0.5620310000000  0.5137300000000 1.0
C      1  0.5199480000000  0.4296140000000  0.4916330000000 1.0
C      1  0.4812410000000  0.4407870000000  0.5159580000000 1.0
C      1  0.4724230000000  0.5625000000000  0.4870830000000 1.0
C      1  0.5212040000000  0.4337790000000  0.5186300000000 1.0
C      1  0.5218110000000  0.5640720000000  0.4890040000000 1.0
C      1  0.4866410000000  0.4858030000000  0.5580590000000 1.0
C      1  0.4869520000000  0.5185600000000  0.4398890000000 1.0
C      1  0.5186560000000  0.4811570000000  0.5571610000000 1.0
C      1  0.5188530000000  0.5252840000000  0.4363440000000 1.0
C      1  0.4814300000000  0.5194840000000  0.5598420000000 1.0
C      1  0.4882980000000  0.4844380000000  0.4402960000000 1.0
C      1  0.5130980000000  0.5152810000000  0.5560420000000 1.0
C      1  0.5166660000000  0.4928860000000  0.4312190000000 1.0
C      1  0.5588520000000  0.5411380000000  0.4656630000000 1.0
C      1  0.5636140000000  0.4604660000000  0.5381510000000 1.0
C      1  0.4445570000000  0.5370000000000  0.4613880000000 1.0
C      1  0.4416380000000  0.4641440000000  0.5409400000000 1.0
C      1  0.5394290000000  0.4595940000000  0.4594750000000 1.0
C      1  0.5586460000000  0.5344770000000  0.5386120000000 1.0
C      1  0.4532270000000  0.4594750000000  0.4660470000000 1.0
C      1  0.4379030000000  0.5385760000000  0.5368450000000 1.0
C      1  0.4306690000000  0.5236700000000  0.4839070000000 1.0
C      1  0.4329480000000  0.4735040000000  0.5135960000000 1.0
C      1  0.5714050000000  0.5251090000000  0.4877030000000 1.0
C      1  0.5593560000000  0.4690230000000  0.5070670000000 1.0
C      1  0.4365580000000  0.4710940000000  0.4872620000000 1.0
C      1  0.4283510000000  0.5243650000000  0.5115100000000 1.0
C      1  0.5564420000000  0.4718990000000  0.4795170000000 1.0
C      1  0.5711810000000  0.5225300000000  0.5143420000000 1.0
C      1  0.5034960000000  0.5263260000000  0.5160500000000 1.0
C      1  0.5263160000000  0.4971870000000  0.4861850000000 1.0
C      1  0.4770620000000  0.5080990000000  0.5220440000000 1.0
C      1  0.4951060000000  0.4857980000000  0.4879580000000 1.0
C      1  0.5237280000000  0.4848650000000  0.5157910000000 1.0
C      1  0.5083330000000  0.5232450000000  0.4853390000000 1.0
C      1  0.4909390000000  0.4800070000000  0.5188970000000 1.0
C      1  0.4777120000000  0.5102650000000  0.4778940000000 1.0
C      1  0.5538620000000  0.5022310000000  0.4720670000000 1.0
C      1  0.4449790000000  0.5008910000000  0.5260340000000 1.0
C      1  0.5539060000000  0.4970540000000  0.5256760000000 1.0
C      1  0.4483060000000  0.4986380000000  0.4717940000000 1.0
END
