TITL C-1154816-9297-125 -0.00240446358344614 125000 -330.509566339226 0 0 60 (C1) n - 1
REM
REM in /home/nfs/bkarasulu/CARBON/AIRSS/Generating-Clusters/AIREBO/Higher-Symm/Only-C60
REM
REM
REM
REM
REM
REM ./C.cell (28575a23ae977d3b5fae324c64b13b57)
REM
REM compiler GCC version 9.2.1 20190827 (Red Hat 9.2.1-1)
REM options -cpp -mtune=generic -march=x86-64 -g -O0 -fpre-include=/usr/include/finclude/math-vector-fortran.h
REM seed -1370284967 -608424834 -1067261816 -1064749798 1996502603 -1477830702 -1833049397 1477062523 -27695960 1350469125 1167030285 -1005817883 305120852 -10994796 -949081728 -2101112819 -1984119466 -1776391510 1353238910 692247422 616553246 -293606789 -1794106692 174555478 -1568828156 -1663148219 221560334 -1232620823 1194606497 -1510343070 -1639413895 -77038943 -32749220
REM
CELL 1.54180   50.00000   50.00000   50.00000   90.00000   90.00000   90.00000
LATT -1
SFAC C  
C      1  0.4443990000000  0.5159850000000  0.4809550000000 1.0
C      1  0.4454090000000  0.5215680000000  0.5334740000000 1.0
C      1  0.4358520000000  0.4736630000000  0.5283550000000 1.0
C      1  0.4376060000000  0.4726590000000  0.4844650000000 1.0
C      1  0.4610850000000  0.4351220000000  0.5009280000000 1.0
C      1  0.4610840000000  0.5008800000000  0.4356180000000 1.0
C      1  0.4579130000000  0.5572510000000  0.5030690000000 1.0
C      1  0.4511100000000  0.4924360000000  0.5716790000000 1.0
C      1  0.4366030000000  0.4979350000000  0.5470160000000 1.0
C      1  0.4338750000000  0.4511440000000  0.5098570000000 1.0
C      1  0.4350310000000  0.4928250000000  0.4571360000000 1.0
C      1  0.4430150000000  0.5310930000000  0.5070790000000 1.0
C      1  0.4839540000000  0.4604550000000  0.5503800000000 1.0
C      1  0.4930210000000  0.4504880000000  0.4569300000000 1.0
C      1  0.4844160000000  0.5464620000000  0.4413300000000 1.0
C      1  0.4896300000000  0.5585930000000  0.5394000000000 1.0
C      1  0.5024890000000  0.5026880000000  0.5683970000000 1.0
C      1  0.5110220000000  0.4401610000000  0.5052180000000 1.0
C      1  0.5096710000000  0.4993500000000  0.4356740000000 1.0
C      1  0.5058610000000  0.5650470000000  0.4936440000000 1.0
C      1  0.5096740000000  0.4729720000000  0.4494570000000 1.0
C      1  0.5039340000000  0.5575810000000  0.4623540000000 1.0
C      1  0.5056760000000  0.5310300000000  0.5522000000000 1.0
C      1  0.5027770000000  0.4424590000000  0.5353140000000 1.0
C      1  0.5504060000000  0.4984100000000  0.4745530000000 1.0
C      1  0.5577320000000  0.5317700000000  0.4772890000000 1.0
C      1  0.5519890000000  0.5034100000000  0.5253130000000 1.0
C      1  0.5596500000000  0.4829500000000  0.4999200000000 1.0
C      1  0.4791360000000  0.4855850000000  0.5693980000000 1.0
C      1  0.4894050000000  0.4353820000000  0.4871850000000 1.0
C      1  0.4857080000000  0.5153120000000  0.4302870000000 1.0
C      1  0.4843340000000  0.5676080000000  0.5127470000000 1.0
C      1  0.5239560000000  0.4863890000000  0.5619810000000 1.0
C      1  0.5326100000000  0.4543800000000  0.4929290000000 1.0
C      1  0.5320440000000  0.5151330000000  0.4432090000000 1.0
C      1  0.5280120000000  0.5550000000000  0.5066370000000 1.0
C      1  0.5610380000000  0.5088380000000  0.4448770000000 1.0
C      1  0.5565030000000  0.5463430000000  0.5035950000000 1.0
C      1  0.5514670000000  0.4864570000000  0.5506110000000 1.0
C      1  0.5621740000000  0.4498970000000  0.4923250000000 1.0
C      1  0.4678690000000  0.4691780000000  0.4996000000000 1.0
C      1  0.4671090000000  0.4940050000000  0.4683720000000 1.0
C      1  0.4763490000000  0.5394050000000  0.4856240000000 1.0
C      1  0.4821040000000  0.5061630000000  0.5297170000000 1.0
C      1  0.5795170000000  0.5316390000000  0.4511650000000 1.0
C      1  0.5622900000000  0.5427290000000  0.5332890000000 1.0
C      1  0.5511490000000  0.4641780000000  0.5269700000000 1.0
C      1  0.5810170000000  0.4316730000000  0.4867890000000 1.0
C      1  0.4722030000000  0.5316990000000  0.5462710000000 1.0
C      1  0.4683390000000  0.4795070000000  0.5314710000000 1.0
C      1  0.4657910000000  0.4600610000000  0.4668990000000 1.0
C      1  0.4648250000000  0.5326840000000  0.4595050000000 1.0
C      1  0.4960750000000  0.4959320000000  0.4790070000000 1.0
C      1  0.5031750000000  0.5257900000000  0.4864920000000 1.0
C      1  0.5085750000000  0.5107620000000  0.5136160000000 1.0
C      1  0.4997740000000  0.4784360000000  0.5069430000000 1.0
C      1  0.5265650000000  0.5346900000000  0.4667440000000 1.0
C      1  0.5308190000000  0.5297310000000  0.5292230000000 1.0
C      1  0.5196770000000  0.4699500000000  0.5330680000000 1.0
C      1  0.5255050000000  0.4790780000000  0.4764460000000 1.0
END
