TITL C-1154801-8518-71 -0.0229067577304584 125000 -376.7460183971 0 0 60 (C1) n - 1
REM
REM in /home/nfs/bkarasulu/CARBON/AIRSS/Generating-Clusters/AIREBO/Higher-Symm/Only-C60
REM
REM
REM
REM
REM
REM ./C.cell (28575a23ae977d3b5fae324c64b13b57)
REM
REM compiler GCC version 9.2.1 20190827 (Red Hat 9.2.1-1)
REM options -cpp -mtune=generic -march=x86-64 -g -O0 -fpre-include=/usr/include/finclude/math-vector-fortran.h
REM seed 436868626 1895473210 1636871448 -224711839 353862823 2035114255 1227890488 -579121272 -467483544 -1365836724 473453414 1973682350 1894894798 -509253086 -379574961 -1389774168 -312305845 750110499 -135757557 -1622260097 -433820605 -577882225 -526278875 1696818311 -1731624318 2019147422 -1102191136 -1791814472 -1574833959 1900364952 614626762 1544083833 -1199639199
REM
CELL 1.54180   50.00000   50.00000   50.00000   90.00000   90.00000   90.00000
LATT -1
SFAC C  
C      1  0.5792700000000  0.4848500000000  0.5260080000000 1.0
C      1  0.5504540000000  0.5632430000000  0.5241260000000 1.0
C      1  0.4700400000000  0.5839460000000  0.5199550000000 1.0
C      1  0.4256210000000  0.5152710000000  0.5271530000000 1.0
C      1  0.4481580000000  0.4329870000000  0.5207580000000 1.0
C      1  0.5277130000000  0.4203380000000  0.5230400000000 1.0
C      1  0.5780230000000  0.5129530000000  0.5251790000000 1.0
C      1  0.5518770000000  0.4347100000000  0.5248410000000 1.0
C      1  0.4711100000000  0.4167800000000  0.5194640000000 1.0
C      1  0.4279220000000  0.4870320000000  0.5269310000000 1.0
C      1  0.4465560000000  0.5685030000000  0.5213860000000 1.0
C      1  0.5265930000000  0.5781810000000  0.5228620000000 1.0
C      1  0.4337440000000  0.4883580000000  0.4788220000000 1.0
C      1  0.4781410000000  0.4154680000000  0.4689280000000 1.0
C      1  0.5542440000000  0.4374630000000  0.4759470000000 1.0
C      1  0.5736860000000  0.5126820000000  0.4760330000000 1.0
C      1  0.5244520000000  0.5726040000000  0.4739960000000 1.0
C      1  0.4373050000000  0.5617940000000  0.4713990000000 1.0
C      1  0.4241930000000  0.5157030000000  0.4782800000000 1.0
C      1  0.4765360000000  0.5857120000000  0.4694690000000 1.0
C      1  0.5514500000000  0.5601030000000  0.4753320000000 1.0
C      1  0.5795750000000  0.4831590000000  0.4769320000000 1.0
C      1  0.5266050000000  0.4262910000000  0.4741880000000 1.0
C      1  0.4400700000000  0.4413220000000  0.4704510000000 1.0
C      1  0.5145600000000  0.4177230000000  0.4980820000000 1.0
C      1  0.5773030000000  0.4700700000000  0.5018420000000 1.0
C      1  0.5609200000000  0.5516380000000  0.5003970000000 1.0
C      1  0.4854650000000  0.5871520000000  0.4963230000000 1.0
C      1  0.4246190000000  0.5297490000000  0.5026720000000 1.0
C      1  0.4373190000000  0.4464880000000  0.4983310000000 1.0
C      1  0.5131970000000  0.5816080000000  0.4981150000000 1.0
C      1  0.5732670000000  0.5263410000000  0.5006000000000 1.0
C      1  0.5637090000000  0.4453580000000  0.5012990000000 1.0
C      1  0.4866390000000  0.4134120000000  0.4958940000000 1.0
C      1  0.4309500000000  0.4736930000000  0.5021960000000 1.0
C      1  0.4338570000000  0.5563210000000  0.4991660000000 1.0
C      1  0.5363710000000  0.5387230000000  0.4570740000000 1.0
C      1  0.4806350000000  0.5606400000000  0.4556270000000 1.0
C      1  0.4494660000000  0.5181580000000  0.4577770000000 1.0
C      1  0.4603190000000  0.4564140000000  0.4557970000000 1.0
C      1  0.5113750000000  0.4450630000000  0.4538450000000 1.0
C      1  0.5541050000000  0.4835100000000  0.4574880000000 1.0
C      1  0.5403070000000  0.4595240000000  0.4573730000000 1.0
C      1  0.4836020000000  0.4403800000000  0.4552480000000 1.0
C      1  0.4550010000000  0.4844780000000  0.4570300000000 1.0
C      1  0.4566490000000  0.5457630000000  0.4564800000000 1.0
C      1  0.5081390000000  0.5546880000000  0.4538040000000 1.0
C      1  0.5504550000000  0.5149680000000  0.4550100000000 1.0
C      1  0.5123400000000  0.4111890000000  0.5450050000000 1.0
C      1  0.5766510000000  0.4689610000000  0.5493050000000 1.0
C      1  0.5630770000000  0.5539100000000  0.5476930000000 1.0
C      1  0.4842710000000  0.5909730000000  0.5435530000000 1.0
C      1  0.4291030000000  0.5321130000000  0.5496970000000 1.0
C      1  0.4382330000000  0.4430400000000  0.5454820000000 1.0
C      1  0.5117220000000  0.5873290000000  0.5451750000000 1.0
C      1  0.5769380000000  0.5299050000000  0.5478420000000 1.0
C      1  0.5633010000000  0.4446680000000  0.5487710000000 1.0
C      1  0.4847760000000  0.4087630000000  0.5430680000000 1.0
C      1  0.4304870000000  0.4694910000000  0.5490700000000 1.0
C      1  0.4375310000000  0.5583420000000  0.5463870000000 1.0
END
