TITL C-1154828-9214-101 0.000764119426952977 125000 -324.201904780669 0 0 60 (C1) n - 1
REM
REM in /home/nfs/bkarasulu/CARBON/AIRSS/Generating-Clusters/AIREBO/Higher-Symm/Only-C60
REM
REM
REM
REM
REM
REM ./C.cell (28575a23ae977d3b5fae324c64b13b57)
REM
REM compiler GCC version 9.2.1 20190827 (Red Hat 9.2.1-1)
REM options -cpp -mtune=generic -march=x86-64 -g -O0 -fpre-include=/usr/include/finclude/math-vector-fortran.h
REM seed 486202155 -970067603 -637619807 1543263919 490430871 -326152871 137980641 736050272 -285091627 -1996689540 886446626 -2000930118 306603292 -1645888764 594110040 -1432238835 -604965783 -1833470959 -2117153406 -1001188082 -1725495957 -1602722834 -1316260645 238900116 255027085 -1196373668 1820867463 1297601949 1164720121 1828537682 -1867112266 161913409 -236906726
REM
CELL 1.54180   50.00000   50.00000   50.00000   90.00000   90.00000   90.00000
LATT -1
SFAC C  
C      1  0.4618500000000  0.5308640000000  0.5349980000000 1.0
C      1  0.4539350000000  0.5017390000000  0.5480800000000 1.0
C      1  0.4647590000000  0.4768510000000  0.5323220000000 1.0
C      1  0.4872230000000  0.4573760000000  0.5466730000000 1.0
C      1  0.5117840000000  0.4496540000000  0.5299720000000 1.0
C      1  0.5370790000000  0.4704610000000  0.5329380000000 1.0
C      1  0.5447690000000  0.4986490000000  0.5478900000000 1.0
C      1  0.5389860000000  0.5258920000000  0.5331340000000 1.0
C      1  0.5134030000000  0.5428570000000  0.5471340000000 1.0
C      1  0.4878810000000  0.5510170000000  0.5314110000000 1.0
C      1  0.5541120000000  0.4879640000000  0.4556130000000 1.0
C      1  0.5543400000000  0.5325730000000  0.4501640000000 1.0
C      1  0.5276470000000  0.5525910000000  0.4567070000000 1.0
C      1  0.4898570000000  0.5721240000000  0.4545800000000 1.0
C      1  0.4504690000000  0.5445490000000  0.4509530000000 1.0
C      1  0.4467820000000  0.5109260000000  0.4561780000000 1.0
C      1  0.4458120000000  0.4674590000000  0.4501090000000 1.0
C      1  0.4723880000000  0.4467740000000  0.4567650000000 1.0
C      1  0.5103570000000  0.4276920000000  0.4547280000000 1.0
C      1  0.5496570000000  0.4544400000000  0.4506760000000 1.0
C      1  0.4430290000000  0.4703460000000  0.5074160000000 1.0
C      1  0.4743100000000  0.4481120000000  0.5166140000000 1.0
C      1  0.5166700000000  0.4229340000000  0.5094400000000 1.0
C      1  0.5390770000000  0.4482550000000  0.5088410000000 1.0
C      1  0.5535460000000  0.4932960000000  0.5153710000000 1.0
C      1  0.5580150000000  0.5321560000000  0.5071540000000 1.0
C      1  0.5246230000000  0.5517720000000  0.5163040000000 1.0
C      1  0.4836910000000  0.5766410000000  0.5094060000000 1.0
C      1  0.4614800000000  0.5511880000000  0.5090100000000 1.0
C      1  0.4443340000000  0.5090750000000  0.5162830000000 1.0
C      1  0.5347850000000  0.4771680000000  0.4296740000000 1.0
C      1  0.5480420000000  0.5071390000000  0.4281970000000 1.0
C      1  0.5269780000000  0.5322280000000  0.4294870000000 1.0
C      1  0.5081790000000  0.5589950000000  0.4291900000000 1.0
C      1  0.4756540000000  0.5535780000000  0.4298600000000 1.0
C      1  0.4652020000000  0.5224690000000  0.4297030000000 1.0
C      1  0.4521170000000  0.4925630000000  0.4280620000000 1.0
C      1  0.4729800000000  0.4672320000000  0.4296140000000 1.0
C      1  0.4917300000000  0.4403170000000  0.4293020000000 1.0
C      1  0.5242270000000  0.4461120000000  0.4296990000000 1.0
C      1  0.4559270000000  0.4747320000000  0.4797680000000 1.0
C      1  0.4810460000000  0.4525910000000  0.4871900000000 1.0
C      1  0.5102870000000  0.4415770000000  0.4819920000000 1.0
C      1  0.5369070000000  0.4619320000000  0.4802680000000 1.0
C      1  0.5464810000000  0.4940350000000  0.4860790000000 1.0
C      1  0.5447220000000  0.5254660000000  0.4802660000000 1.0
C      1  0.5188540000000  0.5469250000000  0.4870750000000 1.0
C      1  0.4897780000000  0.5582810000000  0.4817600000000 1.0
C      1  0.4635110000000  0.5376130000000  0.4804820000000 1.0
C      1  0.4529560000000  0.5064140000000  0.4876240000000 1.0
C      1  0.4878130000000  0.5385210000000  0.5889210000000 1.0
C      1  0.4665630000000  0.5216470000000  0.5906090000000 1.0
C      1  0.4573420000000  0.4989660000000  0.5772200000000 1.0
C      1  0.4647570000000  0.4732530000000  0.5859870000000 1.0
C      1  0.4871810000000  0.4594290000000  0.5759170000000 1.0
C      1  0.5117580000000  0.4607600000000  0.5888900000000 1.0
C      1  0.5332920000000  0.4773110000000  0.5900890000000 1.0
C      1  0.5418730000000  0.5004300000000  0.5770900000000 1.0
C      1  0.5345830000000  0.5258610000000  0.5867150000000 1.0
C      1  0.5126090000000  0.5402280000000  0.5764070000000 1.0
END
