TITL C-1154816-9297-577 -0.00173176589538354 125000 -318.519965539244 0 0 60 (C1) n - 1
REM
REM in /home/nfs/bkarasulu/CARBON/AIRSS/Generating-Clusters/AIREBO/Higher-Symm/Only-C60
REM
REM
REM
REM
REM
REM ./C.cell (28575a23ae977d3b5fae324c64b13b57)
REM
REM compiler GCC version 9.2.1 20190827 (Red Hat 9.2.1-1)
REM options -cpp -mtune=generic -march=x86-64 -g -O0 -fpre-include=/usr/include/finclude/math-vector-fortran.h
REM seed 1670199446 2101347102 -1712218653 -521543693 1148851115 1140730527 1949574138 -871713658 -584588351 -1865137146 721848186 81986689 -645244930 337487290 1993922241 408096410 -101011999 1645214112 1200634775 -701962126 451965806 1853217233 1700060246 543664414 -1673231027 998825935 -981686173 -2128679400 -109500858 529923102 -1871481649 -1754255074 -1289016646
REM
CELL 1.54180   50.00000   50.00000   50.00000   90.00000   90.00000   90.00000
LATT -1
SFAC C  
C      1  0.4939060000000  0.4324930000000  0.4814410000000 1.0
C      1  0.5677460000000  0.4909870000000  0.5159610000000 1.0
C      1  0.5094630000000  0.5759600000000  0.5000220000000 1.0
C      1  0.4350040000000  0.5059420000000  0.5143850000000 1.0
C      1  0.5647300000000  0.5283330000000  0.5519990000000 1.0
C      1  0.4619510000000  0.5536410000000  0.4534830000000 1.0
C      1  0.4323340000000  0.4747610000000  0.5564280000000 1.0
C      1  0.5278570000000  0.4514310000000  0.4456870000000 1.0
C      1  0.5348860000000  0.5550850000000  0.4973520000000 1.0
C      1  0.4447530000000  0.5351680000000  0.4998190000000 1.0
C      1  0.4654180000000  0.4409480000000  0.4974910000000 1.0
C      1  0.5572970000000  0.4606310000000  0.5059930000000 1.0
C      1  0.5196860000000  0.4754400000000  0.4296470000000 1.0
C      1  0.5126000000000  0.5238910000000  0.5741070000000 1.0
C      1  0.4916660000000  0.5238990000000  0.4284750000000 1.0
C      1  0.4871250000000  0.4790920000000  0.5775480000000 1.0
C      1  0.4573590000000  0.4641910000000  0.5077160000000 1.0
C      1  0.5349560000000  0.4512030000000  0.4954970000000 1.0
C      1  0.5451860000000  0.5309150000000  0.5033010000000 1.0
C      1  0.4695280000000  0.5439020000000  0.4929050000000 1.0
C      1  0.5176560000000  0.5212370000000  0.4179030000000 1.0
C      1  0.4720060000000  0.5012030000000  0.5685370000000 1.0
C      1  0.4902130000000  0.4781900000000  0.4314790000000 1.0
C      1  0.5273320000000  0.5008110000000  0.5670940000000 1.0
C      1  0.4816940000000  0.5140780000000  0.5296690000000 1.0
C      1  0.4944900000000  0.4934470000000  0.4707670000000 1.0
C      1  0.5052750000000  0.4856280000000  0.5145240000000 1.0
C      1  0.4994260000000  0.5245670000000  0.5108310000000 1.0
C      1  0.5286450000000  0.4527370000000  0.5771080000000 1.0
C      1  0.5602870000000  0.4973120000000  0.4131000000000 1.0
C      1  0.4710630000000  0.5501590000000  0.5724070000000 1.0
C      1  0.4489630000000  0.5014530000000  0.4192230000000 1.0
C      1  0.5110900000000  0.5619160000000  0.4512260000000 1.0
C      1  0.4332270000000  0.5253860000000  0.5492680000000 1.0
C      1  0.4733480000000  0.4401960000000  0.4481210000000 1.0
C      1  0.5680030000000  0.4768700000000  0.5533820000000 1.0
C      1  0.5270690000000  0.5112000000000  0.5199810000000 1.0
C      1  0.4910720000000  0.5218390000000  0.4792790000000 1.0
C      1  0.4738790000000  0.4816810000000  0.5261930000000 1.0
C      1  0.5132430000000  0.4710880000000  0.4882260000000 1.0
C      1  0.4844130000000  0.5260440000000  0.5718760000000 1.0
C      1  0.4757600000000  0.5008740000000  0.4255680000000 1.0
C      1  0.5152200000000  0.4766370000000  0.5741630000000 1.0
C      1  0.5335830000000  0.4978810000000  0.4200380000000 1.0
C      1  0.5417130000000  0.4306430000000  0.5823950000000 1.0
C      1  0.5848840000000  0.4961230000000  0.4041300000000 1.0
C      1  0.4581910000000  0.5727820000000  0.5754700000000 1.0
C      1  0.4229980000000  0.5021790000000  0.4157240000000 1.0
C      1  0.5496670000000  0.5040630000000  0.5444060000000 1.0
C      1  0.4874360000000  0.5413030000000  0.4531270000000 1.0
C      1  0.4498960000000  0.4959750000000  0.5456180000000 1.0
C      1  0.4977650000000  0.4608250000000  0.4597280000000 1.0
C      1  0.5253280000000  0.5728600000000  0.4724790000000 1.0
C      1  0.4236950000000  0.5366280000000  0.5236860000000 1.0
C      1  0.4626830000000  0.4244210000000  0.4706470000000 1.0
C      1  0.5781140000000  0.4618440000000  0.5299930000000 1.0
C      1  0.5683190000000  0.5165850000000  0.4995660000000 1.0
C      1  0.4823830000000  0.5679670000000  0.5001490000000 1.0
C      1  0.4346630000000  0.4782520000000  0.5018230000000 1.0
C      1  0.5218550000000  0.4272060000000  0.4918450000000 1.0
END
