TITL C-1154802-8274-146 -0.00183793655047428 125000 -349.015407141662 0 0 60 (C1) n - 1
REM
REM in /home/nfs/bkarasulu/CARBON/AIRSS/Generating-Clusters/AIREBO/Higher-Symm/Only-C60
REM
REM
REM
REM
REM
REM ./C.cell (28575a23ae977d3b5fae324c64b13b57)
REM
REM compiler GCC version 9.2.1 20190827 (Red Hat 9.2.1-1)
REM options -cpp -mtune=generic -march=x86-64 -g -O0 -fpre-include=/usr/include/finclude/math-vector-fortran.h
REM seed 1552676858 -485004118 -1100498394 141656047 -629468522 34549678 265707077 515344002 1821292615 -1858551296 479020404 -1018151746 -430727901 -2008671486 -595034937 -1400135611 -661952682 188898326 904935788 -1758946538 -2145571794 -820782209 1633891555 -632548185 -96341521 414707680 -435281188 -1911551193 -683235813 808645748 -1267405186 -894598841 1088772370
REM
CELL 1.54180   50.00000   50.00000   50.00000   90.00000   90.00000   90.00000
LATT -1
SFAC C  
C      1  0.5250160000000  0.5285410000000  0.4267990000000 1.0
C      1  0.5220050000000  0.4160480000000  0.4666160000000 1.0
C      1  0.5137150000000  0.4416540000000  0.5554460000000 1.0
C      1  0.5135890000000  0.5264230000000  0.5703420000000 1.0
C      1  0.5123590000000  0.5785040000000  0.4945910000000 1.0
C      1  0.4790120000000  0.5009210000000  0.4763590000000 1.0
C      1  0.4839210000000  0.4768950000000  0.4958680000000 1.0
C      1  0.4770530000000  0.4862140000000  0.5256540000000 1.0
C      1  0.4906810000000  0.5154220000000  0.5215340000000 1.0
C      1  0.4917730000000  0.5267470000000  0.4904850000000 1.0
C      1  0.4668390000000  0.5663870000000  0.4924310000000 1.0
C      1  0.4786900000000  0.5146580000000  0.4393150000000 1.0
C      1  0.4735400000000  0.4415150000000  0.4677280000000 1.0
C      1  0.4683400000000  0.4515710000000  0.5435950000000 1.0
C      1  0.4670030000000  0.5245970000000  0.5596370000000 1.0
C      1  0.5964080000000  0.5047380000000  0.5111530000000 1.0
C      1  0.5799140000000  0.5214840000000  0.4925130000000 1.0
C      1  0.5746650000000  0.5037260000000  0.4693710000000 1.0
C      1  0.5744700000000  0.4727840000000  0.4826220000000 1.0
C      1  0.5792720000000  0.4802460000000  0.5110420000000 1.0
C      1  0.5248840000000  0.5300190000000  0.4975610000000 1.0
C      1  0.5244030000000  0.5244220000000  0.4663190000000 1.0
C      1  0.5150110000000  0.4681480000000  0.4852260000000 1.0
C      1  0.5275670000000  0.4692130000000  0.5168460000000 1.0
C      1  0.5179320000000  0.4984820000000  0.5315800000000 1.0
C      1  0.5544640000000  0.4846810000000  0.5238720000000 1.0
C      1  0.5468420000000  0.5136110000000  0.5265790000000 1.0
C      1  0.5562880000000  0.5311700000000  0.5048360000000 1.0
C      1  0.5455180000000  0.5029800000000  0.4590660000000 1.0
C      1  0.5455210000000  0.4769900000000  0.4739610000000 1.0
C      1  0.4918010000000  0.4835110000000  0.5703140000000 1.0
C      1  0.4944680000000  0.5556170000000  0.5329900000000 1.0
C      1  0.4934440000000  0.5615800000000  0.4520560000000 1.0
C      1  0.4923170000000  0.4552050000000  0.4429030000000 1.0
C      1  0.4992560000000  0.4318270000000  0.5114320000000 1.0
C      1  0.4499100000000  0.4764520000000  0.4954790000000 1.0
C      1  0.4377970000000  0.4903070000000  0.5201490000000 1.0
C      1  0.4389720000000  0.5186700000000  0.5152340000000 1.0
C      1  0.4396430000000  0.5223960000000  0.4869320000000 1.0
C      1  0.4394880000000  0.4965700000000  0.4744060000000 1.0
C      1  0.4671470000000  0.4971770000000  0.5651120000000 1.0
C      1  0.4675330000000  0.5625700000000  0.5204470000000 1.0
C      1  0.4730270000000  0.5408040000000  0.4496190000000 1.0
C      1  0.4620570000000  0.4628790000000  0.4435860000000 1.0
C      1  0.4726810000000  0.4392510000000  0.5181510000000 1.0
C      1  0.4897420000000  0.5767130000000  0.4771850000000 1.0
C      1  0.5080140000000  0.5046400000000  0.4439940000000 1.0
C      1  0.5045000000000  0.4361260000000  0.4807080000000 1.0
C      1  0.4902310000000  0.4557970000000  0.5622140000000 1.0
C      1  0.4924110000000  0.5406580000000  0.5574650000000 1.0
C      1  0.5143130000000  0.5564010000000  0.5126010000000 1.0
C      1  0.5190210000000  0.5506200000000  0.4471540000000 1.0
C      1  0.5094460000000  0.4756190000000  0.4525250000000 1.0
C      1  0.5190830000000  0.4425880000000  0.5278780000000 1.0
C      1  0.5140660000000  0.4990000000000  0.5620910000000 1.0
C      1  0.4581100000000  0.4464930000000  0.4948040000000 1.0
C      1  0.4506780000000  0.4783920000000  0.5456400000000 1.0
C      1  0.4624360000000  0.5320670000000  0.5290760000000 1.0
C      1  0.4627510000000  0.5390560000000  0.4786080000000 1.0
C      1  0.4589640000000  0.4922220000000  0.4503030000000 1.0
END
