TITL C-1154804-8633-372 0.000462453122309367 125000 -315.990454198846 0 0 60 (C1) n - 1
REM
REM in /home/nfs/bkarasulu/CARBON/AIRSS/Generating-Clusters/AIREBO/Higher-Symm/Only-C60
REM
REM
REM
REM
REM
REM ./C.cell (28575a23ae977d3b5fae324c64b13b57)
REM
REM compiler GCC version 9.2.1 20190827 (Red Hat 9.2.1-1)
REM options -cpp -mtune=generic -march=x86-64 -g -O0 -fpre-include=/usr/include/finclude/math-vector-fortran.h
REM seed 737275357 251320851 1010505297 -1142969212 -378770263 -2118354821 868193804 2141826378 -2086073911 752528749 924787398 -1958977301 1373766167 -1285026871 -594414711 -793739792 -488895852 -1146125849 606738323 1146326474 -894050213 1923839311 1525396204 -950789848 1506219286 -1345061075 -1020054314 -1847257761 -1289026122 949649343 -559554178 -1725251137 2056350306
REM
CELL 1.54180   50.00000   50.00000   50.00000   90.00000   90.00000   90.00000
LATT -1
SFAC C  
C      1  0.5473410000000  0.4279530000000  0.4900080000000 1.0
C      1  0.5016160000000  0.4161980000000  0.4618700000000 1.0
C      1  0.4506130000000  0.4342830000000  0.4848480000000 1.0
C      1  0.4675050000000  0.4297040000000  0.5389360000000 1.0
C      1  0.5215690000000  0.4247820000000  0.5419620000000 1.0
C      1  0.5393220000000  0.5771950000000  0.5245550000000 1.0
C      1  0.4911960000000  0.5672270000000  0.5538040000000 1.0
C      1  0.4608100000000  0.5793500000000  0.5244850000000 1.0
C      1  0.4705080000000  0.5769990000000  0.4689240000000 1.0
C      1  0.5250310000000  0.5771890000000  0.4649580000000 1.0
C      1  0.4823550000000  0.5548830000000  0.4854100000000 1.0
C      1  0.4790170000000  0.5626440000000  0.5160370000000 1.0
C      1  0.4968640000000  0.5444830000000  0.5350530000000 1.0
C      1  0.5305520000000  0.5545740000000  0.5100420000000 1.0
C      1  0.5146110000000  0.5634770000000  0.4846140000000 1.0
C      1  0.4795610000000  0.4531470000000  0.5235880000000 1.0
C      1  0.4765700000000  0.4492530000000  0.4915130000000 1.0
C      1  0.5007800000000  0.4346540000000  0.4800920000000 1.0
C      1  0.5260450000000  0.4482900000000  0.4961310000000 1.0
C      1  0.5109880000000  0.4401690000000  0.5237630000000 1.0
C      1  0.5223560000000  0.5107570000000  0.4767020000000 1.0
C      1  0.4949930000000  0.5269560000000  0.4706920000000 1.0
C      1  0.4778700000000  0.5074960000000  0.4924370000000 1.0
C      1  0.4885210000000  0.5135590000000  0.5236200000000 1.0
C      1  0.5162450000000  0.5238530000000  0.5068280000000 1.0
C      1  0.5179350000000  0.4900710000000  0.5103230000000 1.0
C      1  0.4965980000000  0.4812290000000  0.5311540000000 1.0
C      1  0.4778570000000  0.4785050000000  0.4814880000000 1.0
C      1  0.4966870000000  0.4760720000000  0.4532740000000 1.0
C      1  0.5189020000000  0.4768080000000  0.4790270000000 1.0
C      1  0.4568850000000  0.5316410000000  0.4817220000000 1.0
C      1  0.4629130000000  0.5212450000000  0.5446290000000 1.0
C      1  0.5249140000000  0.5302070000000  0.5471740000000 1.0
C      1  0.5538980000000  0.5225870000000  0.4814070000000 1.0
C      1  0.5065870000000  0.5258630000000  0.4399810000000 1.0
C      1  0.4510970000000  0.4717330000000  0.5244390000000 1.0
C      1  0.4570630000000  0.4789670000000  0.4569310000000 1.0
C      1  0.5293950000000  0.4675200000000  0.4480240000000 1.0
C      1  0.5471790000000  0.4728970000000  0.5078640000000 1.0
C      1  0.5096230000000  0.4768360000000  0.5597250000000 1.0
C      1  0.4402780000000  0.5146450000000  0.5040430000000 1.0
C      1  0.4796360000000  0.5127980000000  0.5673190000000 1.0
C      1  0.5462010000000  0.5183620000000  0.5326690000000 1.0
C      1  0.5542480000000  0.5112500000000  0.4529520000000 1.0
C      1  0.4777160000000  0.5186690000000  0.4355830000000 1.0
C      1  0.4395180000000  0.4863090000000  0.5030090000000 1.0
C      1  0.4736970000000  0.4907820000000  0.4354370000000 1.0
C      1  0.5544830000000  0.4831370000000  0.4576790000000 1.0
C      1  0.5492070000000  0.4902340000000  0.5351440000000 1.0
C      1  0.4816290000000  0.4843030000000  0.5680170000000 1.0
C      1  0.4576790000000  0.5334830000000  0.4496660000000 1.0
C      1  0.4396290000000  0.5254760000000  0.5300600000000 1.0
C      1  0.5046240000000  0.5268380000000  0.5700190000000 1.0
C      1  0.5549230000000  0.5326990000000  0.5074100000000 1.0
C      1  0.5342280000000  0.5234590000000  0.4361970000000 1.0
C      1  0.4602430000000  0.4709560000000  0.5537910000000 1.0
C      1  0.4355430000000  0.4753790000000  0.4767550000000 1.0
C      1  0.5333050000000  0.4473650000000  0.4262830000000 1.0
C      1  0.5651680000000  0.4746370000000  0.4815900000000 1.0
C      1  0.5376720000000  0.4779660000000  0.5583410000000 1.0
END
