TITL C-1154808-8168-255 -0.00269884868016264 125000 -349.270537139456 0 0 60 (C1) n - 1
REM
REM in /home/nfs/bkarasulu/CARBON/AIRSS/Generating-Clusters/AIREBO/Higher-Symm/Only-C60
REM
REM
REM
REM
REM
REM ./C.cell (28575a23ae977d3b5fae324c64b13b57)
REM
REM compiler GCC version 9.2.1 20190827 (Red Hat 9.2.1-1)
REM options -cpp -mtune=generic -march=x86-64 -g -O0 -fpre-include=/usr/include/finclude/math-vector-fortran.h
REM seed 516859839 845924973 -1676883725 300702011 1949828854 1993743681 -832065054 -405521583 1988601346 -1526095539 1978229223 -102350480 -1310441541 -782937752 1570999869 -841272584 52563307 -601688331 281626115 1931352272 243891258 2054031127 -1617333207 73465801 141918651 1261482173 -86886029 621387670 1183347402 958825506 973269804 2033456932 -1738870460
REM
CELL 1.54180   50.00000   50.00000   50.00000   90.00000   90.00000   90.00000
LATT -1
SFAC C  
C      1  0.5371350000000  0.5517040000000  0.4671240000000 1.0
C      1  0.5456270000000  0.4855870000000  0.4611810000000 1.0
C      1  0.4952910000000  0.4351530000000  0.4641450000000 1.0
C      1  0.4364450000000  0.4779290000000  0.4695920000000 1.0
C      1  0.4662290000000  0.5527720000000  0.4644570000000 1.0
C      1  0.5363580000000  0.4434430000000  0.5310050000000 1.0
C      1  0.5635400000000  0.5207500000000  0.5366290000000 1.0
C      1  0.4991620000000  0.5680590000000  0.5368830000000 1.0
C      1  0.4380650000000  0.5202750000000  0.5362990000000 1.0
C      1  0.4659640000000  0.4490910000000  0.5310780000000 1.0
C      1  0.4799270000000  0.4911550000000  0.5092040000000 1.0
C      1  0.4832120000000  0.5226960000000  0.5151350000000 1.0
C      1  0.5082050000000  0.5268960000000  0.5321050000000 1.0
C      1  0.5295940000000  0.5085050000000  0.5196030000000 1.0
C      1  0.5066840000000  0.4758550000000  0.5220980000000 1.0
C      1  0.4823540000000  0.5224740000000  0.4845100000000 1.0
C      1  0.4802820000000  0.4834580000000  0.4764880000000 1.0
C      1  0.5104500000000  0.4766070000000  0.4882900000000 1.0
C      1  0.5257210000000  0.5037290000000  0.4906280000000 1.0
C      1  0.5102580000000  0.5222910000000  0.4699540000000 1.0
C      1  0.4922710000000  0.5198560000000  0.4344280000000 1.0
C      1  0.5223970000000  0.5106190000000  0.4404200000000 1.0
C      1  0.5243400000000  0.4791640000000  0.4354570000000 1.0
C      1  0.4950930000000  0.4704970000000  0.4321060000000 1.0
C      1  0.4784390000000  0.4936860000000  0.4446870000000 1.0
C      1  0.4919740000000  0.4751730000000  0.5641580000000 1.0
C      1  0.5190760000000  0.4856410000000  0.5522540000000 1.0
C      1  0.5243750000000  0.5138390000000  0.5660690000000 1.0
C      1  0.4929990000000  0.5219920000000  0.5621650000000 1.0
C      1  0.4750740000000  0.4977350000000  0.5656340000000 1.0
C      1  0.4782400000000  0.5644440000000  0.5144260000000 1.0
C      1  0.5529650000000  0.5433740000000  0.5178790000000 1.0
C      1  0.5529760000000  0.4627550000000  0.5129750000000 1.0
C      1  0.4780100000000  0.4317860000000  0.5094570000000 1.0
C      1  0.4332960000000  0.4987620000000  0.5150570000000 1.0
C      1  0.4732950000000  0.4365110000000  0.4823540000000 1.0
C      1  0.5484870000000  0.4624840000000  0.4856560000000 1.0
C      1  0.5501500000000  0.5410780000000  0.4914160000000 1.0
C      1  0.4808850000000  0.5667390000000  0.4874630000000 1.0
C      1  0.4319350000000  0.5028860000000  0.4878290000000 1.0
C      1  0.4521020000000  0.4965400000000  0.5500280000000 1.0
C      1  0.4798870000000  0.5482580000000  0.5505490000000 1.0
C      1  0.5419440000000  0.5325090000000  0.5544830000000 1.0
C      1  0.5445430000000  0.4664480000000  0.5511080000000 1.0
C      1  0.4852270000000  0.4504130000000  0.5537990000000 1.0
C      1  0.4485690000000  0.5003770000000  0.4521610000000 1.0
C      1  0.4897270000000  0.4442230000000  0.4376010000000 1.0
C      1  0.5426080000000  0.4539070000000  0.4492100000000 1.0
C      1  0.5447720000000  0.5342900000000  0.4433300000000 1.0
C      1  0.4865740000000  0.5457930000000  0.4431630000000 1.0
C      1  0.5057280000000  0.5557060000000  0.4692720000000 1.0
C      1  0.5509610000000  0.5143500000000  0.4704670000000 1.0
C      1  0.5197790000000  0.4494840000000  0.4741460000000 1.0
C      1  0.4583840000000  0.4601540000000  0.4773110000000 1.0
C      1  0.4523660000000  0.5253680000000  0.4735000000000 1.0
C      1  0.5050140000000  0.4425930000000  0.5262980000000 1.0
C      1  0.5539880000000  0.4913110000000  0.5299020000000 1.0
C      1  0.5266500000000  0.5542410000000  0.5341940000000 1.0
C      1  0.4584150000000  0.5398010000000  0.5269090000000 1.0
C      1  0.4559830000000  0.4767850000000  0.5242720000000 1.0
END
