TITL C-1154827-9204-81 -0.00113421093283395 125000 -328.20768680003 0 0 60 (C1) n - 1
REM
REM in /home/nfs/bkarasulu/CARBON/AIRSS/Generating-Clusters/AIREBO/Higher-Symm/Only-C60
REM
REM
REM
REM
REM
REM ./C.cell (28575a23ae977d3b5fae324c64b13b57)
REM
REM compiler GCC version 9.2.1 20190827 (Red Hat 9.2.1-1)
REM options -cpp -mtune=generic -march=x86-64 -g -O0 -fpre-include=/usr/include/finclude/math-vector-fortran.h
REM seed -1661370180 -1716419 -1823096988 -1147742644 -46962442 -1765262508 -1090712413 1655784086 128816680 2081420130 1046259587 -699643281 1942214768 -1193033349 832020014 785751855 1847637804 -1223684052 2105044588 336806730 1825013220 389126421 2002560917 663730305 1387694523 806499690 441372245 1835603219 1206873699 -476894797 -1494110466 1692832366 502983514
REM
CELL 1.54180   50.00000   50.00000   50.00000   90.00000   90.00000   90.00000
LATT -1
SFAC C  
C      1  0.4818590000000  0.4691560000000  0.4399680000000 1.0
C      1  0.4445720000000  0.4842330000000  0.4670510000000 1.0
C      1  0.4710960000000  0.4425990000000  0.4827000000000 1.0
C      1  0.5117490000000  0.4833270000000  0.5400850000000 1.0
C      1  0.4901760000000  0.5294480000000  0.5557120000000 1.0
C      1  0.5131860000000  0.5064450000000  0.4641120000000 1.0
C      1  0.5544860000000  0.4889070000000  0.5294410000000 1.0
C      1  0.4644200000000  0.5153570000000  0.5072670000000 1.0
C      1  0.5404390000000  0.5111400000000  0.4829270000000 1.0
C      1  0.5071360000000  0.4655970000000  0.5121230000000 1.0
C      1  0.4844890000000  0.5419440000000  0.5140830000000 1.0
C      1  0.5314720000000  0.5569760000000  0.4917050000000 1.0
C      1  0.4861230000000  0.5236400000000  0.4616780000000 1.0
C      1  0.4640640000000  0.5093260000000  0.4771510000000 1.0
C      1  0.4768020000000  0.5649940000000  0.4919520000000 1.0
C      1  0.5081790000000  0.5157190000000  0.5352470000000 1.0
C      1  0.4881800000000  0.4750450000000  0.5618390000000 1.0
C      1  0.5055930000000  0.4769980000000  0.4630390000000 1.0
C      1  0.5345540000000  0.5075740000000  0.5153900000000 1.0
C      1  0.4558150000000  0.4859740000000  0.5220610000000 1.0
C      1  0.5629740000000  0.4887830000000  0.4749170000000 1.0
C      1  0.5169810000000  0.5362520000000  0.5097000000000 1.0
C      1  0.4776690000000  0.4669780000000  0.5041080000000 1.0
C      1  0.5228930000000  0.4560500000000  0.4835390000000 1.0
C      1  0.5009790000000  0.4468040000000  0.5572870000000 1.0
C      1  0.5589330000000  0.5025100000000  0.4468850000000 1.0
C      1  0.4482260000000  0.5615920000000  0.5043760000000 1.0
C      1  0.5134070000000  0.4356950000000  0.4579990000000 1.0
C      1  0.4883490000000  0.5532440000000  0.4664200000000 1.0
C      1  0.4767380000000  0.5797280000000  0.5503780000000 1.0
C      1  0.4624070000000  0.4874450000000  0.5516700000000 1.0
C      1  0.5463800000000  0.4727410000000  0.5783500000000 1.0
C      1  0.4365290000000  0.4724700000000  0.4194230000000 1.0
C      1  0.5774010000000  0.5449620000000  0.4731470000000 1.0
C      1  0.4352570000000  0.4614960000000  0.5104570000000 1.0
C      1  0.5525440000000  0.4626790000000  0.4862190000000 1.0
C      1  0.4809920000000  0.5556410000000  0.5425450000000 1.0
C      1  0.5364880000000  0.5135550000000  0.4431970000000 1.0
C      1  0.4442350000000  0.4578260000000  0.4838890000000 1.0
C      1  0.5144890000000  0.5630020000000  0.4644760000000 1.0
C      1  0.4860240000000  0.4429110000000  0.4554060000000 1.0
C      1  0.5126850000000  0.4436440000000  0.5351450000000 1.0
C      1  0.4622460000000  0.5136160000000  0.5615410000000 1.0
C      1  0.5395830000000  0.4789710000000  0.5543550000000 1.0
C      1  0.4526220000000  0.4764480000000  0.4394740000000 1.0
C      1  0.5613400000000  0.4616820000000  0.5127550000000 1.0
C      1  0.4437590000000  0.5389590000000  0.5147520000000 1.0
C      1  0.5532280000000  0.5390150000000  0.4802570000000 1.0
C      1  0.4945380000000  0.5899420000000  0.4974890000000 1.0
C      1  0.4941410000000  0.4915630000000  0.5876820000000 1.0
C      1  0.5879070000000  0.4946400000000  0.4928320000000 1.0
C      1  0.5197250000000  0.5865960000000  0.4967170000000 1.0
C      1  0.4891320000000  0.4204890000000  0.4964600000000 1.0
C      1  0.5140880000000  0.4259790000000  0.4967720000000 1.0
C      1  0.4967100000000  0.4916830000000  0.4238100000000 1.0
C      1  0.4924960000000  0.5154080000000  0.4311160000000 1.0
C      1  0.4943400000000  0.5168770000000  0.5851860000000 1.0
C      1  0.4274010000000  0.5006720000000  0.5105060000000 1.0
C      1  0.5843700000000  0.4939490000000  0.5180220000000 1.0
C      1  0.4254050000000  0.5031030000000  0.4852100000000 1.0
END
