TITL C-1154810-7815-128 -0.00393695521947868 125000 -349.201575461496 0 0 60 (C3i) n - 1
REM
REM in /home/nfs/bkarasulu/CARBON/AIRSS/Generating-Clusters/AIREBO/Higher-Symm/Only-C60
REM
REM
REM
REM
REM
REM ./C.cell (28575a23ae977d3b5fae324c64b13b57)
REM
REM compiler GCC version 9.2.1 20190827 (Red Hat 9.2.1-1)
REM options -cpp -mtune=generic -march=x86-64 -g -O0 -fpre-include=/usr/include/finclude/math-vector-fortran.h
REM seed 1943094489 740767296 -725007207 -337695155 -1198810363 -178183238 -1784617502 -981852304 1919897155 1382411944 -689901858 -801057452 1262069805 -206251553 1483247043 -1728988908 -1412572878 -666856969 285040345 2128774893 -1493894449 -1727627669 -1362279360 -1599594027 -691057647 1560039022 -167535556 -1411536206 -1199626627 -1608123935 -1242282790 20102130 1480587275
REM
CELL 1.54180   50.00000   50.00000   50.00000   90.00000   90.00000   90.00000
LATT -1
SFAC C  
C      1  0.5229500000000  0.4391100000000  0.5494250000000 1.0
C      1  0.5229190000000  0.5732620000000  0.5280120000000 1.0
C      1  0.5228990000000  0.4876410000000  0.4225400000000 1.0
C      1  0.4743330000000  0.4392610000000  0.4503050000000 1.0
C      1  0.4743160000000  0.5734070000000  0.4722630000000 1.0
C      1  0.4743670000000  0.4873180000000  0.5774570000000 1.0
C      1  0.4770500000000  0.5608900000000  0.4505750000000 1.0
C      1  0.4770810000000  0.4267380000000  0.4719880000000 1.0
C      1  0.4771010000000  0.5123590000000  0.5774600000000 1.0
C      1  0.5256670000000  0.5607390000000  0.5496950000000 1.0
C      1  0.5256840000000  0.4265930000000  0.5277370000000 1.0
C      1  0.5256330000000  0.5126820000000  0.4225430000000 1.0
C      1  0.4323270000000  0.5304540000000  0.4965420000000 1.0
C      1  0.4323280000000  0.4817410000000  0.4753780000000 1.0
C      1  0.4323450000000  0.4877690000000  0.5281470000000 1.0
C      1  0.5650670000000  0.5311380000000  0.4983830000000 1.0
C      1  0.5650850000000  0.4858310000000  0.5277320000000 1.0
C      1  0.5650680000000  0.4830670000000  0.4738200000000 1.0
C      1  0.5676730000000  0.4695460000000  0.5034580000000 1.0
C      1  0.5676720000000  0.5182590000000  0.5246220000000 1.0
C      1  0.5676550000000  0.5122310000000  0.4718530000000 1.0
C      1  0.4349330000000  0.4688620000000  0.5016170000000 1.0
C      1  0.4349150000000  0.5141690000000  0.4722680000000 1.0
C      1  0.4349320000000  0.5169330000000  0.5261800000000 1.0
C      1  0.5487910000000  0.5376190000000  0.4625980000000 1.0
C      1  0.5488150000000  0.4488260000000  0.4861060000000 1.0
C      1  0.5488240000000  0.5135810000000  0.5512480000000 1.0
C      1  0.4543700000000  0.5390310000000  0.5421430000000 1.0
C      1  0.4543770000000  0.4439880000000  0.5127600000000 1.0
C      1  0.4543420000000  0.5169560000000  0.4451420000000 1.0
C      1  0.4512090000000  0.4623810000000  0.5374020000000 1.0
C      1  0.4511850000000  0.5511740000000  0.5138940000000 1.0
C      1  0.4511760000000  0.4864190000000  0.4487520000000 1.0
C      1  0.5456300000000  0.4609690000000  0.4578570000000 1.0
C      1  0.5456230000000  0.5560120000000  0.4872400000000 1.0
C      1  0.5456580000000  0.4830440000000  0.5548580000000 1.0
C      1  0.5210390000000  0.4730130000000  0.5004230000000 1.0
C      1  0.5210390000000  0.5138710000000  0.5231530000000 1.0
C      1  0.5210230000000  0.5131270000000  0.4764040000000 1.0
C      1  0.4786160000000  0.4727030000000  0.5002630000000 1.0
C      1  0.4786010000000  0.5134200000000  0.4762430000000 1.0
C      1  0.4786160000000  0.5138650000000  0.5235150000000 1.0
C      1  0.4789610000000  0.5269870000000  0.4995770000000 1.0
C      1  0.4789610000000  0.4861290000000  0.4768470000000 1.0
C      1  0.4789770000000  0.4868730000000  0.5235960000000 1.0
C      1  0.5213840000000  0.5272970000000  0.4997370000000 1.0
C      1  0.5213990000000  0.4865800000000  0.5237570000000 1.0
C      1  0.5213840000000  0.4861350000000  0.4764850000000 1.0
C      1  0.5192100000000  0.4407650000000  0.5008730000000 1.0
C      1  0.5192100000000  0.5303840000000  0.5508550000000 1.0
C      1  0.5191770000000  0.5288610000000  0.4482520000000 1.0
C      1  0.4852510000000  0.4413500000000  0.4986770000000 1.0
C      1  0.4852190000000  0.5304710000000  0.4498790000000 1.0
C      1  0.4852530000000  0.5281710000000  0.5514590000000 1.0
C      1  0.4807900000000  0.5592350000000  0.4991270000000 1.0
C      1  0.4807900000000  0.4696160000000  0.4491450000000 1.0
C      1  0.4808230000000  0.4711390000000  0.5517480000000 1.0
C      1  0.5147490000000  0.5586500000000  0.5013230000000 1.0
C      1  0.5147810000000  0.4695290000000  0.5501210000000 1.0
C      1  0.5147470000000  0.4718290000000  0.4485410000000 1.0
END
