TITL C-1154830-9999-628 -0.00412583752158722 125000 -305.544169439909 0 0 60 (C1) n - 1
REM
REM in /home/nfs/bkarasulu/CARBON/AIRSS/Generating-Clusters/AIREBO/Higher-Symm/Only-C60
REM
REM
REM
REM
REM
REM ./C.cell (28575a23ae977d3b5fae324c64b13b57)
REM
REM compiler GCC version 9.2.1 20190827 (Red Hat 9.2.1-1)
REM options -cpp -mtune=generic -march=x86-64 -g -O0 -fpre-include=/usr/include/finclude/math-vector-fortran.h
REM seed 2043665449 -1540151671 -191775714 1529772511 -4582219 302934150 -1563244330 1930959004 1819511368 -696741953 328869785 232874222 -1827339030 -448943865 -300724278 1353772667 -1831628167 -1442458657 -1141363761 1027146629 1780562378 281539470 396203661 400568481 -222983315 -1706700485 1665767143 169264275 1744651989 1007038695 214516874 1854138544 -1328463104
REM
CELL 1.54180   50.00000   50.00000   50.00000   90.00000   90.00000   90.00000
LATT -1
SFAC C  
C      1  0.5218580000000  0.5166220000000  0.5165630000000 1.0
C      1  0.5334540000000  0.5298030000000  0.4902370000000 1.0
C      1  0.5191070000000  0.5191500000000  0.4668640000000 1.0
C      1  0.4880720000000  0.5102960000000  0.4671420000000 1.0
C      1  0.4625510000000  0.5395720000000  0.4968790000000 1.0
C      1  0.4710800000000  0.5161990000000  0.5200610000000 1.0
C      1  0.4987870000000  0.5281450000000  0.5340460000000 1.0
C      1  0.5539830000000  0.5486750000000  0.4571670000000 1.0
C      1  0.4978280000000  0.5484480000000  0.4348440000000 1.0
C      1  0.4537350000000  0.5458720000000  0.4651120000000 1.0
C      1  0.4283770000000  0.5421280000000  0.5202810000000 1.0
C      1  0.4747820000000  0.5435210000000  0.5524410000000 1.0
C      1  0.5355740000000  0.5463690000000  0.5593200000000 1.0
C      1  0.5542770000000  0.5399820000000  0.5148340000000 1.0
C      1  0.5108110000000  0.4564370000000  0.4532590000000 1.0
C      1  0.4797490000000  0.4521660000000  0.4564330000000 1.0
C      1  0.4726420000000  0.4492410000000  0.4856250000000 1.0
C      1  0.4696420000000  0.4607840000000  0.5507730000000 1.0
C      1  0.4959440000000  0.4461520000000  0.5408450000000 1.0
C      1  0.5395120000000  0.4541290000000  0.5066030000000 1.0
C      1  0.5381710000000  0.4527590000000  0.4733620000000 1.0
C      1  0.4741380000000  0.5312410000000  0.4478190000000 1.0
C      1  0.4304630000000  0.5364150000000  0.4877610000000 1.0
C      1  0.4483710000000  0.5283110000000  0.5409100000000 1.0
C      1  0.5058540000000  0.5374480000000  0.5646840000000 1.0
C      1  0.5515220000000  0.5334000000000  0.5413530000000 1.0
C      1  0.5655830000000  0.5323910000000  0.4837530000000 1.0
C      1  0.5267770000000  0.5378450000000  0.4422510000000 1.0
C      1  0.5779730000000  0.5019660000000  0.4826910000000 1.0
C      1  0.5343620000000  0.5078710000000  0.4305990000000 1.0
C      1  0.4664750000000  0.5043400000000  0.4284830000000 1.0
C      1  0.4247000000000  0.5072750000000  0.4777050000000 1.0
C      1  0.4414990000000  0.5031610000000  0.5595370000000 1.0
C      1  0.5037380000000  0.5130420000000  0.5867030000000 1.0
C      1  0.5575260000000  0.5021260000000  0.5471180000000 1.0
C      1  0.5398980000000  0.4906110000000  0.4855550000000 1.0
C      1  0.5194030000000  0.4868960000000  0.4609390000000 1.0
C      1  0.4705840000000  0.4863220000000  0.4736760000000 1.0
C      1  0.4553600000000  0.4751520000000  0.4992770000000 1.0
C      1  0.4693830000000  0.4828530000000  0.5264990000000 1.0
C      1  0.5018470000000  0.4794250000000  0.5370540000000 1.0
C      1  0.5268120000000  0.4843920000000  0.5163140000000 1.0
C      1  0.4595730000000  0.4777850000000  0.5710990000000 1.0
C      1  0.5064500000000  0.4912750000000  0.5623270000000 1.0
C      1  0.5567310000000  0.4737140000000  0.5284510000000 1.0
C      1  0.5644910000000  0.4738630000000  0.4690960000000 1.0
C      1  0.5187440000000  0.4774490000000  0.4280590000000 1.0
C      1  0.4581130000000  0.4762210000000  0.4454970000000 1.0
C      1  0.4301350000000  0.4916680000000  0.5027110000000 1.0
C      1  0.4260750000000  0.4970270000000  0.5298230000000 1.0
C      1  0.4727390000000  0.5077420000000  0.5737170000000 1.0
C      1  0.5317300000000  0.5071840000000  0.5669400000000 1.0
C      1  0.5685290000000  0.5020380000000  0.5143180000000 1.0
C      1  0.5548970000000  0.5043100000000  0.4573860000000 1.0
C      1  0.5004300000000  0.5060780000000  0.4290830000000 1.0
C      1  0.4435200000000  0.5056750000000  0.4542340000000 1.0
C      1  0.4944990000000  0.4683570000000  0.4993360000000 1.0
C      1  0.4957340000000  0.5030890000000  0.4994950000000 1.0
C      1  0.4949440000000  0.5368820000000  0.4955840000000 1.0
C      1  0.5098240000000  0.4482710000000  0.5139730000000 1.0
END
