TITL C-1154828-9214-521 0.000298297437454902 125000 -322.588051699009 0 0 60 (C1) n - 1
REM
REM in /home/nfs/bkarasulu/CARBON/AIRSS/Generating-Clusters/AIREBO/Higher-Symm/Only-C60
REM
REM
REM
REM
REM
REM ./C.cell (28575a23ae977d3b5fae324c64b13b57)
REM
REM compiler GCC version 9.2.1 20190827 (Red Hat 9.2.1-1)
REM options -cpp -mtune=generic -march=x86-64 -g -O0 -fpre-include=/usr/include/finclude/math-vector-fortran.h
REM seed -2037105195 -333929090 -723036284 737383065 -151821321 -566643091 1870868892 -1370248752 -1708080283 1642828555 -538242662 -486709345 849552595 355412721 2010042726 237181017 507835181 -181134085 -291452913 2046801547 -1137307752 -766660990 -272185647 120928338 1074076827 -1725667061 1621737599 1472667088 964297141 -1411011322 -689743026 -364298489 1554499942
REM
CELL 1.54180   50.00000   50.00000   50.00000   90.00000   90.00000   90.00000
LATT -1
SFAC C  
C      1  0.4823010000000  0.5432740000000  0.5557670000000 1.0
C      1  0.4833820000000  0.5694080000000  0.4766090000000 1.0
C      1  0.4790140000000  0.4938120000000  0.4293490000000 1.0
C      1  0.4842520000000  0.4307620000000  0.4816030000000 1.0
C      1  0.4830140000000  0.4601250000000  0.5581540000000 1.0
C      1  0.5311520000000  0.5147410000000  0.4734250000000 1.0
C      1  0.5337340000000  0.4813400000000  0.4793590000000 1.0
C      1  0.5371930000000  0.4759160000000  0.5127850000000 1.0
C      1  0.5312050000000  0.5039320000000  0.5253590000000 1.0
C      1  0.5359960000000  0.5272020000000  0.5047650000000 1.0
C      1  0.5325080000000  0.4857760000000  0.5718370000000 1.0
C      1  0.5318380000000  0.5636050000000  0.5377700000000 1.0
C      1  0.5309110000000  0.5526940000000  0.4497670000000 1.0
C      1  0.5301510000000  0.4703540000000  0.4319480000000 1.0
C      1  0.5333160000000  0.4268870000000  0.5078660000000 1.0
C      1  0.4919450000000  0.4824050000000  0.4805200000000 1.0
C      1  0.4925260000000  0.4756520000000  0.5107820000000 1.0
C      1  0.4914000000000  0.5021430000000  0.5269030000000 1.0
C      1  0.4920990000000  0.5254950000000  0.5064650000000 1.0
C      1  0.4915200000000  0.5126560000000  0.4783680000000 1.0
C      1  0.4548420000000  0.4465400000000  0.4881200000000 1.0
C      1  0.4536600000000  0.4713950000000  0.5451840000000 1.0
C      1  0.4536100000000  0.5338600000000  0.5401140000000 1.0
C      1  0.4553230000000  0.5505780000000  0.4804570000000 1.0
C      1  0.4553150000000  0.5062690000000  0.4400470000000 1.0
C      1  0.4379100000000  0.5152160000000  0.5163790000000 1.0
C      1  0.4391700000000  0.5217490000000  0.4885330000000 1.0
C      1  0.4426040000000  0.4957580000000  0.4697930000000 1.0
C      1  0.4357940000000  0.4738180000000  0.4952990000000 1.0
C      1  0.4369700000000  0.4874850000000  0.5203020000000 1.0
C      1  0.4649880000000  0.4591500000000  0.5183100000000 1.0
C      1  0.4638460000000  0.5042620000000  0.5445810000000 1.0
C      1  0.4648290000000  0.5438450000000  0.5094300000000 1.0
C      1  0.4675060000000  0.5255990000000  0.4607710000000 1.0
C      1  0.4645450000000  0.4703430000000  0.4685640000000 1.0
C      1  0.5067680000000  0.5333580000000  0.5644890000000 1.0
C      1  0.5088610000000  0.5709810000000  0.4879960000000 1.0
C      1  0.5030220000000  0.5092450000000  0.4276350000000 1.0
C      1  0.5083190000000  0.4348550000000  0.4683660000000 1.0
C      1  0.5082760000000  0.4500590000000  0.5518910000000 1.0
C      1  0.5298940000000  0.5725080000000  0.4691330000000 1.0
C      1  0.5253650000000  0.4942810000000  0.4189080000000 1.0
C      1  0.5304230000000  0.4223680000000  0.4807060000000 1.0
C      1  0.5290940000000  0.4584320000000  0.5690860000000 1.0
C      1  0.5281750000000  0.5516320000000  0.5624380000000 1.0
C      1  0.4833740000000  0.5521090000000  0.4521300000000 1.0
C      1  0.4829570000000  0.4697000000000  0.4431590000000 1.0
C      1  0.4861860000000  0.4362490000000  0.5106090000000 1.0
C      1  0.4839310000000  0.4890590000000  0.5642360000000 1.0
C      1  0.4848970000000  0.5571020000000  0.5298730000000 1.0
C      1  0.5076900000000  0.5280290000000  0.4527040000000 1.0
C      1  0.5124000000000  0.4648890000000  0.4594720000000 1.0
C      1  0.5148560000000  0.4515110000000  0.5206790000000 1.0
C      1  0.5123930000000  0.5043740000000  0.5536780000000 1.0
C      1  0.5136110000000  0.5515670000000  0.5125180000000 1.0
C      1  0.5706450000000  0.4776410000000  0.5165540000000 1.0
C      1  0.5800130000000  0.5039920000000  0.5248920000000 1.0
C      1  0.5695940000000  0.5240310000000  0.5064950000000 1.0
C      1  0.5623370000000  0.5090140000000  0.4809930000000 1.0
C      1  0.5665520000000  0.4789670000000  0.4860760000000 1.0
END
