TITL C-1154810-7815-292 0.00128034742689501 125000 -328.702965223481 0 0 60 (C1) n - 1
REM
REM in /home/nfs/bkarasulu/CARBON/AIRSS/Generating-Clusters/AIREBO/Higher-Symm/Only-C60
REM
REM
REM
REM
REM
REM ./C.cell (28575a23ae977d3b5fae324c64b13b57)
REM
REM compiler GCC version 9.2.1 20190827 (Red Hat 9.2.1-1)
REM options -cpp -mtune=generic -march=x86-64 -g -O0 -fpre-include=/usr/include/finclude/math-vector-fortran.h
REM seed 1664063535 2106582053 276639220 1497104518 24590828 -2103838726 444541571 936385463 -415931231 -1745112165 1848145694 1285494993 -1794719975 85544255 -361934644 1611192715 317460704 -417348278 1520242857 1545419170 -1126972350 -1571361666 -1363191499 1011322175 -3197227 -1779412511 -26212839 -1710914332 2003535986 1163280177 165588495 1672446435 795684074
REM
CELL 1.54180   50.00000   50.00000   50.00000   90.00000   90.00000   90.00000
LATT -1
SFAC C  
C      1  0.5714580000000  0.4800760000000  0.4980420000000 1.0
C      1  0.4616510000000  0.4799060000000  0.4364560000000 1.0
C      1  0.4649780000000  0.4795750000000  0.5645220000000 1.0
C      1  0.5713000000000  0.5196380000000  0.5018380000000 1.0
C      1  0.4629020000000  0.5190680000000  0.5607820000000 1.0
C      1  0.4647780000000  0.5195510000000  0.4357490000000 1.0
C      1  0.4274680000000  0.5240540000000  0.5007240000000 1.0
C      1  0.5408330000000  0.5249710000000  0.5653730000000 1.0
C      1  0.5357860000000  0.5254890000000  0.4318640000000 1.0
C      1  0.4222160000000  0.4735020000000  0.4962240000000 1.0
C      1  0.5400910000000  0.4743990000000  0.4349080000000 1.0
C      1  0.5364190000000  0.4740290000000  0.5690860000000 1.0
C      1  0.4651060000000  0.4607970000000  0.5361760000000 1.0
C      1  0.5477100000000  0.4601640000000  0.5120910000000 1.0
C      1  0.4866630000000  0.4622280000000  0.4512190000000 1.0
C      1  0.4646220000000  0.5387800000000  0.4637900000000 1.0
C      1  0.5482560000000  0.5403950000000  0.4878980000000 1.0
C      1  0.4882350000000  0.5394640000000  0.5508620000000 1.0
C      1  0.5323410000000  0.5435410000000  0.4594570000000 1.0
C      1  0.4472000000000  0.5487870000000  0.4882760000000 1.0
C      1  0.5202080000000  0.5442310000000  0.5480430000000 1.0
C      1  0.5326910000000  0.4569120000000  0.5408110000000 1.0
C      1  0.4482070000000  0.4568630000000  0.5088200000000 1.0
C      1  0.5187270000000  0.4562360000000  0.4530230000000 1.0
C      1  0.4318640000000  0.5000840000000  0.4793300000000 1.0
C      1  0.5168470000000  0.5012110000000  0.5693910000000 1.0
C      1  0.5505560000000  0.5017760000000  0.4510150000000 1.0
C      1  0.4333040000000  0.4962380000000  0.5190180000000 1.0
C      1  0.5161390000000  0.4982490000000  0.4311520000000 1.0
C      1  0.5509920000000  0.4974180000000  0.5491100000000 1.0
C      1  0.5616520000000  0.4973620000000  0.5256460000000 1.0
C      1  0.4905130000000  0.4975230000000  0.4328040000000 1.0
C      1  0.4474310000000  0.4963880000000  0.5407240000000 1.0
C      1  0.5613840000000  0.5021980000000  0.4743500000000 1.0
C      1  0.4911550000000  0.5011850000000  0.5670440000000 1.0
C      1  0.4464260000000  0.5014060000000  0.4579490000000 1.0
C      1  0.4392570000000  0.5476840000000  0.5214560000000 1.0
C      1  0.5529700000000  0.5489960000000  0.5442280000000 1.0
C      1  0.5120200000000  0.5500410000000  0.4337220000000 1.0
C      1  0.4377580000000  0.4491980000000  0.4778090000000 1.0
C      1  0.5514010000000  0.4501070000000  0.4561170000000 1.0
C      1  0.5123830000000  0.4497300000000  0.5664320000000 1.0
C      1  0.5624730000000  0.4511860000000  0.4828050000000 1.0
C      1  0.4544040000000  0.4520470000000  0.4546680000000 1.0
C      1  0.4838940000000  0.4514190000000  0.5631530000000 1.0
C      1  0.5635440000000  0.5485190000000  0.5174060000000 1.0
C      1  0.4558270000000  0.5475100000000  0.5442890000000 1.0
C      1  0.4835980000000  0.5477700000000  0.4368310000000 1.0
C      1  0.5133710000000  0.4752770000000  0.5243580000000 1.0
C      1  0.5135290000000  0.4754270000000  0.4768740000000 1.0
C      1  0.4725970000000  0.4747460000000  0.5000870000000 1.0
C      1  0.5127320000000  0.5268520000000  0.4771240000000 1.0
C      1  0.5132950000000  0.5265630000000  0.5234210000000 1.0
C      1  0.4697240000000  0.5272290000000  0.5014040000000 1.0
C      1  0.4852930000000  0.5161070000000  0.4757600000000 1.0
C      1  0.4836160000000  0.5166090000000  0.5260560000000 1.0
C      1  0.5290970000000  0.5155460000000  0.5010140000000 1.0
C      1  0.4857000000000  0.4860000000000  0.5263140000000 1.0
C      1  0.4844110000000  0.4860320000000  0.4754410000000 1.0
C      1  0.5290010000000  0.4857060000000  0.4996650000000 1.0
END
