TITL C-1154801-8518-260 -0.00251452697121438 125000 -326.483711467501 0 0 60 (C1) n - 1
REM
REM in /home/nfs/bkarasulu/CARBON/AIRSS/Generating-Clusters/AIREBO/Higher-Symm/Only-C60
REM
REM
REM
REM
REM
REM ./C.cell (28575a23ae977d3b5fae324c64b13b57)
REM
REM compiler GCC version 9.2.1 20190827 (Red Hat 9.2.1-1)
REM options -cpp -mtune=generic -march=x86-64 -g -O0 -fpre-include=/usr/include/finclude/math-vector-fortran.h
REM seed 759914825 2061687198 -1382507755 -422841174 -926012052 -1235773165 -942148042 2019584635 1959047544 632339195 1670066501 -168420122 -1180281297 677842125 171363077 237678855 -1637857319 143219864 -622641427 -1198091124 -62162084 711755176 -739949347 -1228012867 -1205969440 432714730 -493800623 -319030093 -565911154 -116476980 -1210425667 1098898184 298054811
REM
CELL 1.54180   50.00000   50.00000   50.00000   90.00000   90.00000   90.00000
LATT -1
SFAC C  
C      1  0.4656960000000  0.5544200000000  0.4903390000000 1.0
C      1  0.4906540000000  0.4663880000000  0.5607720000000 1.0
C      1  0.5585180000000  0.4811820000000  0.4639870000000 1.0
C      1  0.4711240000000  0.4431930000000  0.5100210000000 1.0
C      1  0.5320220000000  0.4435900000000  0.4895930000000 1.0
C      1  0.5339010000000  0.5535480000000  0.5075800000000 1.0
C      1  0.4879280000000  0.5388010000000  0.4433870000000 1.0
C      1  0.5214550000000  0.5403310000000  0.5582560000000 1.0
C      1  0.5151730000000  0.4715230000000  0.4447320000000 1.0
C      1  0.5549250000000  0.5079250000000  0.5355740000000 1.0
C      1  0.4455830000000  0.5091010000000  0.4657740000000 1.0
C      1  0.4470690000000  0.4921810000000  0.5291440000000 1.0
C      1  0.4673510000000  0.4890390000000  0.5544010000000 1.0
C      1  0.4877010000000  0.5629810000000  0.4664210000000 1.0
C      1  0.5570820000000  0.4630180000000  0.4916700000000 1.0
C      1  0.4688180000000  0.5126530000000  0.4435780000000 1.0
C      1  0.5405010000000  0.4873600000000  0.4431660000000 1.0
C      1  0.5307880000000  0.5088250000000  0.5572720000000 1.0
C      1  0.4918420000000  0.4432050000000  0.5370010000000 1.0
C      1  0.5097850000000  0.5514220000000  0.5314610000000 1.0
C      1  0.5162560000000  0.4442780000000  0.4602380000000 1.0
C      1  0.5539260000000  0.5268490000000  0.5072900000000 1.0
C      1  0.4469240000000  0.4648270000000  0.5098550000000 1.0
C      1  0.4412310000000  0.5377980000000  0.4798530000000 1.0
C      1  0.4745650000000  0.4394030000000  0.4581840000000 1.0
C      1  0.4557350000000  0.4825740000000  0.4377910000000 1.0
C      1  0.4320410000000  0.4586370000000  0.4785270000000 1.0
C      1  0.4782980000000  0.5584240000000  0.5426140000000 1.0
C      1  0.5196190000000  0.5593960000000  0.4554880000000 1.0
C      1  0.5259840000000  0.4348550000000  0.5407270000000 1.0
C      1  0.4532110000000  0.5175110000000  0.5594010000000 1.0
C      1  0.5409380000000  0.5162770000000  0.4404070000000 1.0
C      1  0.5414230000000  0.4785980000000  0.5589980000000 1.0
C      1  0.4370860000000  0.5435000000000  0.5198280000000 1.0
C      1  0.5593030000000  0.5430110000000  0.4787050000000 1.0
C      1  0.5678060000000  0.4562370000000  0.5232330000000 1.0
C      1  0.4807600000000  0.4614810000000  0.4392470000000 1.0
C      1  0.4538810000000  0.4381740000000  0.4811480000000 1.0
C      1  0.4335060000000  0.4781090000000  0.4586290000000 1.0
C      1  0.4726040000000  0.5383830000000  0.5630690000000 1.0
C      1  0.5221430000000  0.4588090000000  0.5576090000000 1.0
C      1  0.5209420000000  0.5357040000000  0.4357890000000 1.0
C      1  0.4592220000000  0.5630630000000  0.5225180000000 1.0
C      1  0.5442520000000  0.4375270000000  0.5195080000000 1.0
C      1  0.5392430000000  0.5646520000000  0.4748370000000 1.0
C      1  0.4313040000000  0.5218680000000  0.5405650000000 1.0
C      1  0.5666300000000  0.4754190000000  0.5434250000000 1.0
C      1  0.5633700000000  0.5280570000000  0.4547250000000 1.0
C      1  0.5088590000000  0.4546910000000  0.5112500000000 1.0
C      1  0.5018650000000  0.5165990000000  0.4650990000000 1.0
C      1  0.4475630000000  0.5161000000000  0.5050480000000 1.0
C      1  0.5053870000000  0.5524370000000  0.4920450000000 1.0
C      1  0.4868170000000  0.5368400000000  0.5103710000000 1.0
C      1  0.4928730000000  0.4451790000000  0.4848180000000 1.0
C      1  0.4991110000000  0.4985580000000  0.5542900000000 1.0
C      1  0.4911860000000  0.4900100000000  0.4540350000000 1.0
C      1  0.4975100000000  0.5262320000000  0.5706510000000 1.0
C      1  0.4549460000000  0.4888650000000  0.4903470000000 1.0
C      1  0.5471290000000  0.4882090000000  0.5112630000000 1.0
C      1  0.5566330000000  0.5021710000000  0.4844460000000 1.0
END
