TITL C-1154823-9327-238 0.000155217028910239 125000 -344.226151106055 0 0 60 (C1) n - 1
REM
REM in /home/nfs/bkarasulu/CARBON/AIRSS/Generating-Clusters/AIREBO/Higher-Symm/Only-C60
REM
REM
REM
REM
REM
REM ./C.cell (28575a23ae977d3b5fae324c64b13b57)
REM
REM compiler GCC version 9.2.1 20190827 (Red Hat 9.2.1-1)
REM options -cpp -mtune=generic -march=x86-64 -g -O0 -fpre-include=/usr/include/finclude/math-vector-fortran.h
REM seed -1594591646 -952859826 -1603587997 1956632361 1728719055 -559223116 -260260054 -2033498218 1849226532 -1796117214 -682886702 461907648 -29481447 -1736007186 1982955858 -1934236242 1515372224 -424062568 -1212317387 442710060 -1993348040 2145348199 1161501966 -1172327562 205171154 1413159779 633484478 -1302055509 -690135326 -1642785425 -1621575363 -246934571 2004625216
REM
CELL 1.54180   50.00000   50.00000   50.00000   90.00000   90.00000   90.00000
LATT -1
SFAC C  
C      1  0.4871530000000  0.5562390000000  0.5561660000000 1.0
C      1  0.5054480000000  0.4274490000000  0.5189980000000 1.0
C      1  0.4973030000000  0.5169670000000  0.4297740000000 1.0
C      1  0.4603750000000  0.4248040000000  0.5361220000000 1.0
C      1  0.4497300000000  0.5152060000000  0.4318400000000 1.0
C      1  0.4441230000000  0.5571140000000  0.5344860000000 1.0
C      1  0.5571940000000  0.4450640000000  0.4988110000000 1.0
C      1  0.5568110000000  0.5253110000000  0.4375290000000 1.0
C      1  0.5442330000000  0.5324040000000  0.5474590000000 1.0
C      1  0.4735000000000  0.5315130000000  0.4285650000000 1.0
C      1  0.4600730000000  0.5491880000000  0.5578640000000 1.0
C      1  0.4794200000000  0.4176780000000  0.5152650000000 1.0
C      1  0.5038040000000  0.5197470000000  0.5152180000000 1.0
C      1  0.5142920000000  0.4873200000000  0.5139110000000 1.0
C      1  0.4985350000000  0.5014450000000  0.4872990000000 1.0
C      1  0.5830680000000  0.5222220000000  0.5118730000000 1.0
C      1  0.5919480000000  0.4928450000000  0.5021660000000 1.0
C      1  0.5883940000000  0.5170070000000  0.4804890000000 1.0
C      1  0.5029660000000  0.4994670000000  0.4578370000000 1.0
C      1  0.5002200000000  0.5471170000000  0.5279070000000 1.0
C      1  0.5076610000000  0.4597480000000  0.5242800000000 1.0
C      1  0.5418680000000  0.5023340000000  0.4780890000000 1.0
C      1  0.5349950000000  0.5132480000000  0.5057230000000 1.0
C      1  0.5480330000000  0.4739440000000  0.4832740000000 1.0
C      1  0.5556010000000  0.5328070000000  0.5179250000000 1.0
C      1  0.5763420000000  0.4708300000000  0.5005410000000 1.0
C      1  0.5660480000000  0.5167160000000  0.4638210000000 1.0
C      1  0.4211390000000  0.5392010000000  0.5356890000000 1.0
C      1  0.4345120000000  0.4177560000000  0.5247730000000 1.0
C      1  0.4285270000000  0.5345570000000  0.4365570000000 1.0
C      1  0.5172850000000  0.5306670000000  0.5511950000000 1.0
C      1  0.5243600000000  0.4533560000000  0.4953570000000 1.0
C      1  0.5276190000000  0.5226570000000  0.4547600000000 1.0
C      1  0.5046470000000  0.5700440000000  0.4849700000000 1.0
C      1  0.4973010000000  0.4815080000000  0.5722000000000 1.0
C      1  0.4905900000000  0.4508430000000  0.4465380000000 1.0
C      1  0.4526290000000  0.5223610000000  0.5663830000000 1.0
C      1  0.4657500000000  0.4167450000000  0.4897090000000 1.0
C      1  0.4692030000000  0.5579450000000  0.4396010000000 1.0
C      1  0.4899950000000  0.5679250000000  0.4545850000000 1.0
C      1  0.4731630000000  0.5054570000000  0.5732030000000 1.0
C      1  0.4771340000000  0.4317050000000  0.4704440000000 1.0
C      1  0.5096050000000  0.4715280000000  0.5979040000000 1.0
C      1  0.4982850000000  0.4378320000000  0.4204900000000 1.0
C      1  0.5334670000000  0.5759170000000  0.4960640000000 1.0
C      1  0.5512020000000  0.5611420000000  0.5052140000000 1.0
C      1  0.5222090000000  0.4630110000000  0.6183970000000 1.0
C      1  0.5068900000000  0.4282230000000  0.3984680000000 1.0
C      1  0.4598760000000  0.5694760000000  0.5142870000000 1.0
C      1  0.4708030000000  0.4445200000000  0.5532250000000 1.0
C      1  0.4572270000000  0.4889890000000  0.4390500000000 1.0
C      1  0.4260590000000  0.5186830000000  0.5549800000000 1.0
C      1  0.4378100000000  0.4123180000000  0.4968900000000 1.0
C      1  0.4401670000000  0.5603720000000  0.4407230000000 1.0
C      1  0.4816970000000  0.4792240000000  0.4456480000000 1.0
C      1  0.4858570000000  0.5647850000000  0.5079300000000 1.0
C      1  0.4923560000000  0.4611080000000  0.5511630000000 1.0
C      1  0.5065800000000  0.4429880000000  0.4745570000000 1.0
C      1  0.5142390000000  0.5483550000000  0.4610100000000 1.0
C      1  0.5026800000000  0.5130670000000  0.5648030000000 1.0
END
