TITL C-1154802-8274-147 0.000434101283186763 125000 -330.688174495276 0 0 60 (C1) n - 1
REM
REM in /home/nfs/bkarasulu/CARBON/AIRSS/Generating-Clusters/AIREBO/Higher-Symm/Only-C60
REM
REM
REM
REM
REM
REM ./C.cell (28575a23ae977d3b5fae324c64b13b57)
REM
REM compiler GCC version 9.2.1 20190827 (Red Hat 9.2.1-1)
REM options -cpp -mtune=generic -march=x86-64 -g -O0 -fpre-include=/usr/include/finclude/math-vector-fortran.h
REM seed -1725843186 -1014506933 -1885948999 -1409273490 -1680046784 -779306305 709803087 15029125 -47543226 -617056136 -2107417999 -818794827 801134576 1028189065 -43141708 881876418 859870658 1814049377 -1389155657 -1357568735 -1588288099 -1689812612 383212194 1513636902 1476030216 1346045501 132621769 238358651 1324105489 -229711626 -1231531815 -2011089223 54569575
REM
CELL 1.54180   50.00000   50.00000   50.00000   90.00000   90.00000   90.00000
LATT -1
SFAC C  
C      1  0.4652160000000  0.4883130000000  0.5286980000000 1.0
C      1  0.5418570000000  0.4465770000000  0.5279980000000 1.0
C      1  0.4687940000000  0.4599630000000  0.5476470000000 1.0
C      1  0.4725190000000  0.4345910000000  0.4970740000000 1.0
C      1  0.4582560000000  0.4531790000000  0.4813330000000 1.0
C      1  0.5154800000000  0.5472590000000  0.5550630000000 1.0
C      1  0.5494780000000  0.5064550000000  0.4827310000000 1.0
C      1  0.5227290000000  0.5619960000000  0.4944100000000 1.0
C      1  0.4595160000000  0.5432410000000  0.5414580000000 1.0
C      1  0.4743240000000  0.5045410000000  0.5673270000000 1.0
C      1  0.5499780000000  0.5491540000000  0.4786190000000 1.0
C      1  0.5347140000000  0.5330440000000  0.5328420000000 1.0
C      1  0.4342710000000  0.4827230000000  0.5157590000000 1.0
C      1  0.4948420000000  0.5619900000000  0.5059670000000 1.0
C      1  0.5672180000000  0.5213150000000  0.5015130000000 1.0
C      1  0.5299280000000  0.4524650000000  0.4765890000000 1.0
C      1  0.5536950000000  0.5355920000000  0.4557710000000 1.0
C      1  0.5032020000000  0.5451260000000  0.4636500000000 1.0
C      1  0.5030840000000  0.5075730000000  0.5774500000000 1.0
C      1  0.5107290000000  0.5279050000000  0.4399420000000 1.0
C      1  0.5741330000000  0.5007620000000  0.5203350000000 1.0
C      1  0.5353710000000  0.5163620000000  0.4454280000000 1.0
C      1  0.4749270000000  0.5637450000000  0.4604930000000 1.0
C      1  0.4895750000000  0.5184720000000  0.4243440000000 1.0
C      1  0.5013550000000  0.4406160000000  0.4370890000000 1.0
C      1  0.5010100000000  0.4273000000000  0.4923190000000 1.0
C      1  0.4827170000000  0.4760590000000  0.5028470000000 1.0
C      1  0.5051600000000  0.4584070000000  0.5530130000000 1.0
C      1  0.5221320000000  0.5733720000000  0.4634570000000 1.0
C      1  0.5509990000000  0.5467830000000  0.5114280000000 1.0
C      1  0.5524200000000  0.4746110000000  0.5192740000000 1.0
C      1  0.5316540000000  0.4993990000000  0.5298830000000 1.0
C      1  0.4433830000000  0.5126620000000  0.5057460000000 1.0
C      1  0.4555670000000  0.5164740000000  0.5457140000000 1.0
C      1  0.5038590000000  0.4707650000000  0.4526140000000 1.0
C      1  0.5003700000000  0.5250870000000  0.4910200000000 1.0
C      1  0.4891800000000  0.5542780000000  0.5358810000000 1.0
C      1  0.5145910000000  0.4872010000000  0.5548680000000 1.0
C      1  0.4663890000000  0.5035650000000  0.4623960000000 1.0
C      1  0.4464220000000  0.5367870000000  0.4331840000000 1.0
C      1  0.5320050000000  0.4885130000000  0.4597330000000 1.0
C      1  0.4547710000000  0.5618940000000  0.4414800000000 1.0
C      1  0.4905500000000  0.4501470000000  0.5234250000000 1.0
C      1  0.5104120000000  0.4280620000000  0.4645740000000 1.0
C      1  0.5133850000000  0.5337430000000  0.5785700000000 1.0
C      1  0.5115020000000  0.4747130000000  0.4915170000000 1.0
C      1  0.4347770000000  0.4630060000000  0.4913990000000 1.0
C      1  0.5201500000000  0.4375690000000  0.5123910000000 1.0
C      1  0.5318400000000  0.4527310000000  0.4425880000000 1.0
C      1  0.4930980000000  0.5048410000000  0.5389650000000 1.0
C      1  0.4408410000000  0.4550790000000  0.5554850000000 1.0
C      1  0.4234210000000  0.4684380000000  0.5420470000000 1.0
C      1  0.4784770000000  0.4766570000000  0.4691120000000 1.0
C      1  0.4645010000000  0.5153190000000  0.4371520000000 1.0
C      1  0.5036410000000  0.5270530000000  0.5230120000000 1.0
C      1  0.5221430000000  0.5016920000000  0.4982980000000 1.0
C      1  0.4667030000000  0.5219090000000  0.4873590000000 1.0
C      1  0.4733830000000  0.5542230000000  0.4884680000000 1.0
C      1  0.5323220000000  0.4445640000000  0.5544590000000 1.0
C      1  0.5510320000000  0.4741340000000  0.4867930000000 1.0
END
