TITL C-1154810-7815-358 0.00137489671309157 125000 -326.887938780791 0 0 60 (C1) n - 1
REM
REM in /home/nfs/bkarasulu/CARBON/AIRSS/Generating-Clusters/AIREBO/Higher-Symm/Only-C60
REM
REM
REM
REM
REM
REM ./C.cell (28575a23ae977d3b5fae324c64b13b57)
REM
REM compiler GCC version 9.2.1 20190827 (Red Hat 9.2.1-1)
REM options -cpp -mtune=generic -march=x86-64 -g -O0 -fpre-include=/usr/include/finclude/math-vector-fortran.h
REM seed -305307269 235432708 -1409711737 -1897370977 -1095007847 1560783271 -528847231 419759639 -1240130282 1719627248 2105174376 1108404290 -1800429856 832447012 2063753205 -1261868539 262529267 -379076953 -2027424930 328188769 1433598370 675229184 -766052256 -312869667 1039928602 2029443012 6595171 2100363654 -481146621 582723075 -1697603560 -2003811912 -1180403604
REM
CELL 1.54180   50.00000   50.00000   50.00000   90.00000   90.00000   90.00000
LATT -1
SFAC C  
C      1  0.4755770000000  0.4702370000000  0.5034450000000 1.0
C      1  0.5013470000000  0.5289970000000  0.5042960000000 1.0
C      1  0.4991780000000  0.4492840000000  0.5142600000000 1.0
C      1  0.5286640000000  0.5307160000000  0.4978900000000 1.0
C      1  0.5082590000000  0.4744320000000  0.4937750000000 1.0
C      1  0.4827130000000  0.5305190000000  0.4834150000000 1.0
C      1  0.4878390000000  0.5466330000000  0.4604850000000 1.0
C      1  0.4453130000000  0.4553560000000  0.4990270000000 1.0
C      1  0.4620580000000  0.5397040000000  0.5399380000000 1.0
C      1  0.5178920000000  0.4483180000000  0.5425240000000 1.0
C      1  0.5602420000000  0.5432670000000  0.5045200000000 1.0
C      1  0.5413760000000  0.4613120000000  0.4566980000000 1.0
C      1  0.5175070000000  0.5142950000000  0.4362560000000 1.0
C      1  0.4578140000000  0.4896000000000  0.4617680000000 1.0
C      1  0.4406780000000  0.5087460000000  0.5062900000000 1.0
C      1  0.4799300000000  0.4937030000000  0.5433580000000 1.0
C      1  0.5488240000000  0.5046640000000  0.5363770000000 1.0
C      1  0.5616390000000  0.4918510000000  0.4911480000000 1.0
C      1  0.4564910000000  0.5129690000000  0.4795790000000 1.0
C      1  0.4532780000000  0.4860620000000  0.5236660000000 1.0
C      1  0.4908660000000  0.5251640000000  0.5364920000000 1.0
C      1  0.5352030000000  0.4855680000000  0.5116810000000 1.0
C      1  0.5554690000000  0.5207920000000  0.4794510000000 1.0
C      1  0.5127020000000  0.4692720000000  0.4622400000000 1.0
C      1  0.4107730000000  0.5034860000000  0.5012430000000 1.0
C      1  0.4534630000000  0.4965590000000  0.5622270000000 1.0
C      1  0.5318730000000  0.5023810000000  0.5619840000000 1.0
C      1  0.5860360000000  0.4912720000000  0.5108440000000 1.0
C      1  0.5445650000000  0.5112600000000  0.4286820000000 1.0
C      1  0.4750750000000  0.4925260000000  0.4399280000000 1.0
C      1  0.4720930000000  0.5677130000000  0.4544330000000 1.0
C      1  0.4193110000000  0.4452020000000  0.4940430000000 1.0
C      1  0.4581440000000  0.5552200000000  0.5621980000000 1.0
C      1  0.5286290000000  0.4331750000000  0.5629730000000 1.0
C      1  0.5816190000000  0.5601930000000  0.5034310000000 1.0
C      1  0.5488190000000  0.4528510000000  0.4317910000000 1.0
C      1  0.5345040000000  0.5515860000000  0.5461960000000 1.0
C      1  0.5533630000000  0.4443580000000  0.4999520000000 1.0
C      1  0.5325630000000  0.5577040000000  0.4471980000000 1.0
C      1  0.4682790000000  0.4441470000000  0.4557380000000 1.0
C      1  0.4400200000000  0.5558650000000  0.4983780000000 1.0
C      1  0.4694140000000  0.4463260000000  0.5498790000000 1.0
C      1  0.5028710000000  0.4919140000000  0.4436850000000 1.0
C      1  0.3859990000000  0.4991190000000  0.4969700000000 1.0
C      1  0.4304670000000  0.4885260000000  0.5494580000000 1.0
C      1  0.5095610000000  0.5138350000000  0.5625450000000 1.0
C      1  0.5785390000000  0.4947380000000  0.5350720000000 1.0
C      1  0.5644680000000  0.5152720000000  0.4471310000000 1.0
C      1  0.5073610000000  0.5532200000000  0.5463380000000 1.0
C      1  0.5379070000000  0.4553800000000  0.5196490000000 1.0
C      1  0.5521880000000  0.5514260000000  0.4650410000000 1.0
C      1  0.4954870000000  0.4438170000000  0.4549760000000 1.0
C      1  0.4463250000000  0.5440550000000  0.4737940000000 1.0
C      1  0.4518730000000  0.4527460000000  0.5308120000000 1.0
C      1  0.4442570000000  0.5368800000000  0.5192400000000 1.0
C      1  0.4910840000000  0.4637860000000  0.5502870000000 1.0
C      1  0.5493560000000  0.5346550000000  0.5317420000000 1.0
C      1  0.5577020000000  0.4631120000000  0.4787990000000 1.0
C      1  0.5104640000000  0.5403390000000  0.4445860000000 1.0
C      1  0.4546900000000  0.4638930000000  0.4701800000000 1.0
END
