TITL C-1154827-9204-521 -0.000905000968402529 125000 -333.588051642528 0 0 60 (C1) n - 1
REM
REM in /home/nfs/bkarasulu/CARBON/AIRSS/Generating-Clusters/AIREBO/Higher-Symm/Only-C60
REM
REM
REM
REM
REM
REM ./C.cell (28575a23ae977d3b5fae324c64b13b57)
REM
REM compiler GCC version 9.2.1 20190827 (Red Hat 9.2.1-1)
REM options -cpp -mtune=generic -march=x86-64 -g -O0 -fpre-include=/usr/include/finclude/math-vector-fortran.h
REM seed 566141600 1162605861 1883151576 -1662331210 -2096272917 -2028063897 1134122587 2108387097 707202631 2023334738 -378677992 -1568075159 821100784 -828210008 512606085 -1287766689 331152429 -452221850 1878487040 109293317 1471213789 -163662717 -1318975229 374589231 1281058929 -784855146 -882317573 8183574 1079896484 -834510421 756102410 654148067 -345530575
REM
CELL 1.54180   50.00000   50.00000   50.00000   90.00000   90.00000   90.00000
LATT -1
SFAC C  
C      1  0.4748780000000  0.5109570000000  0.4378660000000 1.0
C      1  0.5008110000000  0.4693850000000  0.4342870000000 1.0
C      1  0.5208400000000  0.5127300000000  0.4395670000000 1.0
C      1  0.4747550000000  0.4823100000000  0.4345020000000 1.0
C      1  0.4979040000000  0.5290710000000  0.4358960000000 1.0
C      1  0.5252050000000  0.4851930000000  0.4341030000000 1.0
C      1  0.5747600000000  0.4882170000000  0.4671670000000 1.0
C      1  0.4794170000000  0.5615570000000  0.4852830000000 1.0
C      1  0.4545330000000  0.4398380000000  0.4732470000000 1.0
C      1  0.5712240000000  0.5091580000000  0.4841060000000 1.0
C      1  0.4678130000000  0.4364930000000  0.4945960000000 1.0
C      1  0.4527410000000  0.5569520000000  0.4826480000000 1.0
C      1  0.4574660000000  0.4486900000000  0.5461510000000 1.0
C      1  0.5534430000000  0.4791250000000  0.5547280000000 1.0
C      1  0.4809520000000  0.5577030000000  0.5412410000000 1.0
C      1  0.4584640000000  0.5459440000000  0.5422120000000 1.0
C      1  0.5599040000000  0.5058130000000  0.5578450000000 1.0
C      1  0.4806290000000  0.4382250000000  0.5429610000000 1.0
C      1  0.5059120000000  0.4591770000000  0.5394890000000 1.0
C      1  0.5417150000000  0.5290020000000  0.5413350000000 1.0
C      1  0.4587020000000  0.5135800000000  0.5416990000000 1.0
C      1  0.5106310000000  0.5415000000000  0.5386310000000 1.0
C      1  0.5346520000000  0.4723260000000  0.5363040000000 1.0
C      1  0.4575130000000  0.4796810000000  0.5441380000000 1.0
C      1  0.5000720000000  0.4720720000000  0.4801310000000 1.0
C      1  0.5256590000000  0.5147890000000  0.4693880000000 1.0
C      1  0.4716860000000  0.5152540000000  0.4683210000000 1.0
C      1  0.4991350000000  0.5280900000000  0.4768280000000 1.0
C      1  0.5269520000000  0.4860270000000  0.4804750000000 1.0
C      1  0.4718110000000  0.4867960000000  0.4782060000000 1.0
C      1  0.4965270000000  0.5425520000000  0.5077040000000 1.0
C      1  0.4673830000000  0.4830050000000  0.5117050000000 1.0
C      1  0.5405040000000  0.4870930000000  0.5086450000000 1.0
C      1  0.4906870000000  0.4570240000000  0.5091450000000 1.0
C      1  0.4791560000000  0.5145920000000  0.5161540000000 1.0
C      1  0.5540350000000  0.5166020000000  0.5124930000000 1.0
C      1  0.5023330000000  0.4516430000000  0.4564620000000 1.0
C      1  0.5515590000000  0.5282930000000  0.4743310000000 1.0
C      1  0.4464000000000  0.5307900000000  0.4751700000000 1.0
C      1  0.4977010000000  0.5558100000000  0.4571920000000 1.0
C      1  0.5480200000000  0.4739000000000  0.4566840000000 1.0
C      1  0.4543740000000  0.4676170000000  0.4574670000000 1.0
C      1  0.5227630000000  0.5617120000000  0.5010230000000 1.0
C      1  0.4347570000000  0.4841860000000  0.5022050000000 1.0
C      1  0.5443830000000  0.4543310000000  0.5027470000000 1.0
C      1  0.5176710000000  0.4384010000000  0.5001100000000 1.0
C      1  0.4125620000000  0.5064370000000  0.5064710000000 1.0
C      1  0.5494880000000  0.5493180000000  0.5080500000000 1.0
C      1  0.4981180000000  0.5348260000000  0.5691900000000 1.0
C      1  0.4780340000000  0.4892310000000  0.5663620000000 1.0
C      1  0.5232630000000  0.4936420000000  0.5765310000000 1.0
C      1  0.5031970000000  0.4785610000000  0.5640930000000 1.0
C      1  0.4757560000000  0.5186410000000  0.5704990000000 1.0
C      1  0.5248480000000  0.5209310000000  0.5695010000000 1.0
C      1  0.5194980000000  0.4321230000000  0.4687240000000 1.0
C      1  0.5517460000000  0.5577490000000  0.4742770000000 1.0
C      1  0.4245720000000  0.5138580000000  0.4777060000000 1.0
C      1  0.5227670000000  0.5699500000000  0.4714890000000 1.0
C      1  0.5457260000000  0.4473140000000  0.4733370000000 1.0
C      1  0.4319950000000  0.4842150000000  0.4711870000000 1.0
END
