TITL C-1154827-9204-79 0.00135425475762344 125000 -369.986982331876 0 0 60 (C1) n - 1
REM
REM in /home/nfs/bkarasulu/CARBON/AIRSS/Generating-Clusters/AIREBO/Higher-Symm/Only-C60
REM
REM
REM
REM
REM
REM ./C.cell (28575a23ae977d3b5fae324c64b13b57)
REM
REM compiler GCC version 9.2.1 20190827 (Red Hat 9.2.1-1)
REM options -cpp -mtune=generic -march=x86-64 -g -O0 -fpre-include=/usr/include/finclude/math-vector-fortran.h
REM seed 1279241714 -1966255231 -1931205180 246175252 497016284 -1043552520 1921134173 -1899710400 -1263220750 -1979011227 -364198712 1296266613 -716923734 883472773 -1358879942 -1221842122 -572402056 -941049814 1215811421 141104179 163821402 478980947 687412940 1159343584 -1659570060 959284065 -464444181 888875555 254867512 1503625750 87443848 1747582874 -2052207387
REM
CELL 1.54180   50.00000   50.00000   50.00000   90.00000   90.00000   90.00000
LATT -1
SFAC C  
C      1  0.5427080000000  0.4471000000000  0.5178900000000 1.0
C      1  0.5150850000000  0.5443260000000  0.4443540000000 1.0
C      1  0.4476210000000  0.5123750000000  0.5379820000000 1.0
C      1  0.4588460000000  0.5559350000000  0.5129140000000 1.0
C      1  0.4654330000000  0.4480640000000  0.4876280000000 1.0
C      1  0.5402400000000  0.5583020000000  0.4830310000000 1.0
C      1  0.4855640000000  0.4575480000000  0.4427960000000 1.0
C      1  0.4823050000000  0.5417300000000  0.5551900000000 1.0
C      1  0.5138260000000  0.4611560000000  0.5547030000000 1.0
C      1  0.5568560000000  0.4864330000000  0.5418850000000 1.0
C      1  0.5495160000000  0.5132810000000  0.4604030000000 1.0
C      1  0.4501060000000  0.4850880000000  0.4594390000000 1.0
C      1  0.5388180000000  0.4487200000000  0.4898410000000 1.0
C      1  0.5103180000000  0.5323540000000  0.5508790000000 1.0
C      1  0.4525720000000  0.5135510000000  0.4633550000000 1.0
C      1  0.4612900000000  0.5584260000000  0.4834860000000 1.0
C      1  0.4608960000000  0.4451830000000  0.5161410000000 1.0
C      1  0.5299280000000  0.5542400000000  0.5112010000000 1.0
C      1  0.4855230000000  0.4585910000000  0.5557280000000 1.0
C      1  0.4862490000000  0.5446900000000  0.4450270000000 1.0
C      1  0.5152550000000  0.4553230000000  0.4451390000000 1.0
C      1  0.5507780000000  0.4850130000000  0.4595490000000 1.0
C      1  0.5500770000000  0.5132390000000  0.5300800000000 1.0
C      1  0.4469510000000  0.4841900000000  0.5409250000000 1.0
C      1  0.4488160000000  0.5298000000000  0.4850980000000 1.0
C      1  0.4780670000000  0.4373170000000  0.5367960000000 1.0
C      1  0.5329200000000  0.4754360000000  0.4385790000000 1.0
C      1  0.5586490000000  0.4667890000000  0.4790790000000 1.0
C      1  0.5501570000000  0.5310850000000  0.5100220000000 1.0
C      1  0.4393990000000  0.4637030000000  0.5234770000000 1.0
C      1  0.5092090000000  0.5535690000000  0.5285850000000 1.0
C      1  0.5199590000000  0.4354450000000  0.4706210000000 1.0
C      1  0.4779660000000  0.5661150000000  0.4628620000000 1.0
C      1  0.4682840000000  0.5237940000000  0.4406250000000 1.0
C      1  0.4653750000000  0.4768180000000  0.5626000000000 1.0
C      1  0.5279540000000  0.5120180000000  0.5509370000000 1.0
C      1  0.4373150000000  0.5314900000000  0.5171950000000 1.0
C      1  0.4872920000000  0.4450260000000  0.4713120000000 1.0
C      1  0.5331060000000  0.4820360000000  0.5645840000000 1.0
C      1  0.5642390000000  0.4654010000000  0.5253090000000 1.0
C      1  0.5616090000000  0.5335700000000  0.4789870000000 1.0
C      1  0.4435250000000  0.4650710000000  0.4776530000000 1.0
C      1  0.5245350000000  0.5660640000000  0.4615610000000 1.0
C      1  0.5241740000000  0.4402650000000  0.5375840000000 1.0
C      1  0.4778940000000  0.5655270000000  0.5337590000000 1.0
C      1  0.4624240000000  0.5232660000000  0.5603500000000 1.0
C      1  0.4669150000000  0.4773100000000  0.4371040000000 1.0
C      1  0.5319020000000  0.5225150000000  0.4394600000000 1.0
C      1  0.5779590000000  0.4711520000000  0.5002600000000 1.0
C      1  0.4103020000000  0.5383140000000  0.5198370000000 1.0
C      1  0.5013060000000  0.5831290000000  0.4659720000000 1.0
C      1  0.5022780000000  0.4220210000000  0.5325260000000 1.0
C      1  0.4246750000000  0.4685300000000  0.4991680000000 1.0
C      1  0.5249100000000  0.4084630000000  0.4654180000000 1.0
C      1  0.4717330000000  0.5016470000000  0.4222950000000 1.0
C      1  0.5884670000000  0.5398320000000  0.4752260000000 1.0
C      1  0.5266000000000  0.4991920000000  0.4229600000000 1.0
C      1  0.4678170000000  0.5010650000000  0.5783180000000 1.0
C      1  0.4749210000000  0.5915910000000  0.5429550000000 1.0
C      1  0.5405870000000  0.4807760000000  0.5913640000000 1.0
END
