TITL C-1154825-9328-594 0.00191452010274211 125000 -349.572810848989 0 0 60 (C1) n - 1
REM
REM in /home/nfs/bkarasulu/CARBON/AIRSS/Generating-Clusters/AIREBO/Higher-Symm/Only-C60
REM
REM
REM
REM
REM
REM ./C.cell (28575a23ae977d3b5fae324c64b13b57)
REM
REM compiler GCC version 9.2.1 20190827 (Red Hat 9.2.1-1)
REM options -cpp -mtune=generic -march=x86-64 -g -O0 -fpre-include=/usr/include/finclude/math-vector-fortran.h
REM seed 1914451971 19422883 -1557326969 992754263 -669034202 1744645046 -1631241141 -1421389852 -1109532485 1028263880 -700015049 -2070280827 1151364576 -1892520319 -970316274 351761470 -1008518060 617545737 -634120977 -1932989888 246034074 -1714086204 2013408242 -1105797703 -1433232840 680508470 339325650 -1129287813 333645543 -1332517808 1305405755 845536089 78637897
REM
CELL 1.54180   50.00000   50.00000   50.00000   90.00000   90.00000   90.00000
LATT -1
SFAC C  
C      1  0.5134240000000  0.5239490000000  0.4690990000000 1.0
C      1  0.4644520000000  0.5257050000000  0.4841450000000 1.0
C      1  0.4858600000000  0.5463750000000  0.5330650000000 1.0
C      1  0.5353970000000  0.5498830000000  0.5178210000000 1.0
C      1  0.4869220000000  0.5394450000000  0.4670210000000 1.0
C      1  0.5323860000000  0.5489710000000  0.4883280000000 1.0
C      1  0.5115880000000  0.5318590000000  0.5319440000000 1.0
C      1  0.4652740000000  0.5307820000000  0.5143820000000 1.0
C      1  0.4316890000000  0.5095530000000  0.5184770000000 1.0
C      1  0.5069030000000  0.5106850000000  0.5699250000000 1.0
C      1  0.5664040000000  0.5128130000000  0.4856530000000 1.0
C      1  0.4838540000000  0.5099320000000  0.4285720000000 1.0
C      1  0.5661040000000  0.5100500000000  0.5155780000000 1.0
C      1  0.4785570000000  0.5116740000000  0.5669510000000 1.0
C      1  0.4289710000000  0.5080390000000  0.4895210000000 1.0
C      1  0.5142680000000  0.5104920000000  0.4314730000000 1.0
C      1  0.5124680000000  0.4925430000000  0.4671230000000 1.0
C      1  0.4646750000000  0.4923110000000  0.4813970000000 1.0
C      1  0.4866030000000  0.4825620000000  0.5337120000000 1.0
C      1  0.5329770000000  0.4880590000000  0.5127430000000 1.0
C      1  0.4838590000000  0.4786130000000  0.4643400000000 1.0
C      1  0.5327310000000  0.4788340000000  0.4843970000000 1.0
C      1  0.5142300000000  0.4994640000000  0.5322730000000 1.0
C      1  0.4694200000000  0.4981710000000  0.5123210000000 1.0
C      1  0.5171870000000  0.4517580000000  0.4358170000000 1.0
C      1  0.4369700000000  0.4536310000000  0.4912390000000 1.0
C      1  0.4822350000000  0.4568800000000  0.5640280000000 1.0
C      1  0.5613130000000  0.4537380000000  0.5101610000000 1.0
C      1  0.4925640000000  0.4606110000000  0.4203170000000 1.0
C      1  0.5663370000000  0.4577130000000  0.4808510000000 1.0
C      1  0.5124160000000  0.4575660000000  0.5606710000000 1.0
C      1  0.4395430000000  0.4550990000000  0.5225090000000 1.0
C      1  0.5520080000000  0.5332220000000  0.4717090000000 1.0
C      1  0.4675510000000  0.5270400000000  0.4446730000000 1.0
C      1  0.4390630000000  0.5316940000000  0.5382460000000 1.0
C      1  0.5351030000000  0.5215970000000  0.5581750000000 1.0
C      1  0.4388670000000  0.5255160000000  0.4629220000000 1.0
C      1  0.5362440000000  0.5289770000000  0.4447110000000 1.0
C      1  0.5509690000000  0.5267270000000  0.5325200000000 1.0
C      1  0.4660840000000  0.5328350000000  0.5540040000000 1.0
C      1  0.4788790000000  0.4817240000000  0.4339100000000 1.0
C      1  0.4466750000000  0.4829010000000  0.5321590000000 1.0
C      1  0.5207480000000  0.4842750000000  0.5602730000000 1.0
C      1  0.5624760000000  0.4869850000000  0.4740200000000 1.0
C      1  0.5221240000000  0.4813000000000  0.4375500000000 1.0
C      1  0.5610060000000  0.4804740000000  0.5232200000000 1.0
C      1  0.4653390000000  0.4842570000000  0.5601960000000 1.0
C      1  0.4359310000000  0.4793410000000  0.4799970000000 1.0
C      1  0.4860260000000  0.4484860000000  0.4706310000000 1.0
C      1  0.4644410000000  0.4390800000000  0.5160110000000 1.0
C      1  0.5189530000000  0.4396340000000  0.5357750000000 1.0
C      1  0.5325470000000  0.4466070000000  0.4833220000000 1.0
C      1  0.5119340000000  0.4402400000000  0.4620870000000 1.0
C      1  0.5365560000000  0.4370600000000  0.5153480000000 1.0
C      1  0.4877860000000  0.4495780000000  0.5305040000000 1.0
C      1  0.4650700000000  0.4379400000000  0.4855760000000 1.0
C      1  0.5178530000000  0.5730720000000  0.4769780000000 1.0
C      1  0.4941800000000  0.5689210000000  0.4683230000000 1.0
C      1  0.4870220000000  0.5741730000000  0.5331600000000 1.0
C      1  0.5409820000000  0.5753340000000  0.5281460000000 1.0
END
