TITL C-1154810-7815-424 0.0019850627712089 125000 -339.1971150289 0 0 60 (C1) n - 1
REM
REM in /home/nfs/bkarasulu/CARBON/AIRSS/Generating-Clusters/AIREBO/Higher-Symm/Only-C60
REM
REM
REM
REM
REM
REM ./C.cell (28575a23ae977d3b5fae324c64b13b57)
REM
REM compiler GCC version 9.2.1 20190827 (Red Hat 9.2.1-1)
REM options -cpp -mtune=generic -march=x86-64 -g -O0 -fpre-include=/usr/include/finclude/math-vector-fortran.h
REM seed 705756363 729523219 -1949443489 -1384128796 1237592008 46361703 889111094 -2022203244 -192539242 -1338729359 477741361 730403981 618416162 -388190928 1693296303 83028303 -941222502 34868476 -698615322 1144717563 -1121021580 -1457009956 2059600856 -39087850 -1974370273 1757849591 1902927960 2016783880 1615742893 1470863851 1537713721 -1203890571 2075631735
REM
CELL 1.54180   50.00000   50.00000   50.00000   90.00000   90.00000   90.00000
LATT -1
SFAC C  
C      1  0.5189680000000  0.5421070000000  0.5459200000000 1.0
C      1  0.5066220000000  0.4432470000000  0.4537720000000 1.0
C      1  0.5122570000000  0.4363150000000  0.5509700000000 1.0
C      1  0.4869030000000  0.5608370000000  0.4497820000000 1.0
C      1  0.5720400000000  0.5076930000000  0.4996870000000 1.0
C      1  0.4158180000000  0.5046430000000  0.5241030000000 1.0
C      1  0.4761000000000  0.4357760000000  0.4884800000000 1.0
C      1  0.5221220000000  0.5712520000000  0.5188300000000 1.0
C      1  0.5076540000000  0.4687670000000  0.5124160000000 1.0
C      1  0.5023370000000  0.5295230000000  0.4871840000000 1.0
C      1  0.5758710000000  0.5275020000000  0.4723200000000 1.0
C      1  0.4298290000000  0.4850450000000  0.5388100000000 1.0
C      1  0.4321960000000  0.5255290000000  0.5138300000000 1.0
C      1  0.5590660000000  0.4812130000000  0.5003530000000 1.0
C      1  0.5249690000000  0.5166540000000  0.4420660000000 1.0
C      1  0.4691930000000  0.4824080000000  0.5376440000000 1.0
C      1  0.4946060000000  0.4150940000000  0.4866400000000 1.0
C      1  0.4909650000000  0.5823920000000  0.5097660000000 1.0
C      1  0.4760370000000  0.5377370000000  0.4686240000000 1.0
C      1  0.5256100000000  0.4610120000000  0.5383520000000 1.0
C      1  0.5481460000000  0.4974610000000  0.4551900000000 1.0
C      1  0.4525450000000  0.4997820000000  0.5554010000000 1.0
C      1  0.4687740000000  0.5601760000000  0.5198780000000 1.0
C      1  0.5398090000000  0.4353650000000  0.4890880000000 1.0
C      1  0.4781980000000  0.4516050000000  0.5137770000000 1.0
C      1  0.5085810000000  0.5619770000000  0.4890540000000 1.0
C      1  0.4473150000000  0.5177510000000  0.4876010000000 1.0
C      1  0.5274190000000  0.4845380000000  0.4945150000000 1.0
C      1  0.4491370000000  0.4583420000000  0.5301340000000 1.0
C      1  0.5458210000000  0.5368470000000  0.4597940000000 1.0
C      1  0.5302460000000  0.5394050000000  0.5139520000000 1.0
C      1  0.4759670000000  0.4523350000000  0.4617430000000 1.0
C      1  0.5062840000000  0.4889720000000  0.4440250000000 1.0
C      1  0.5053140000000  0.5040380000000  0.5467950000000 1.0
C      1  0.5479560000000  0.4694330000000  0.4525080000000 1.0
C      1  0.4608090000000  0.5266890000000  0.5527430000000 1.0
C      1  0.4885940000000  0.5293260000000  0.5543850000000 1.0
C      1  0.5211110000000  0.4645560000000  0.4432460000000 1.0
C      1  0.4592320000000  0.4307410000000  0.5420090000000 1.0
C      1  0.5360380000000  0.5650870000000  0.4512110000000 1.0
C      1  0.4590740000000  0.5124750000000  0.4561310000000 1.0
C      1  0.5265530000000  0.4876070000000  0.5532030000000 1.0
C      1  0.5181020000000  0.4253420000000  0.4734900000000 1.0
C      1  0.4954040000000  0.5658660000000  0.5398930000000 1.0
C      1  0.5045600000000  0.5179550000000  0.5176260000000 1.0
C      1  0.4806940000000  0.4859790000000  0.4602880000000 1.0
C      1  0.5447500000000  0.4541170000000  0.5138400000000 1.0
C      1  0.4572280000000  0.5488760000000  0.4932370000000 1.0
C      1  0.4857140000000  0.4914350000000  0.5144070000000 1.0
C      1  0.5220470000000  0.5086850000000  0.4749910000000 1.0
C      1  0.5109750000000  0.5705250000000  0.4603720000000 1.0
C      1  0.4877850000000  0.4307710000000  0.5415280000000 1.0
C      1  0.4466160000000  0.4877220000000  0.4395540000000 1.0
C      1  0.5462460000000  0.5032100000000  0.5658590000000 1.0
C      1  0.5496690000000  0.5325220000000  0.4934140000000 1.0
C      1  0.4694770000000  0.4948720000000  0.4896950000000 1.0
C      1  0.5568810000000  0.4575020000000  0.4763900000000 1.0
C      1  0.4476250000000  0.5411170000000  0.5318250000000 1.0
C      1  0.5413920000000  0.5306970000000  0.5650610000000 1.0
C      1  0.4527500000000  0.4635520000000  0.4425980000000 1.0
END
