TITL C-1154826-9507-663 0.000728892302513862 125000 -354.45111922739 0 0 60 (C1) n - 1
REM
REM in /home/nfs/bkarasulu/CARBON/AIRSS/Generating-Clusters/AIREBO/Higher-Symm/Only-C60
REM
REM
REM
REM
REM
REM ./C.cell (28575a23ae977d3b5fae324c64b13b57)
REM
REM compiler GCC version 9.2.1 20190827 (Red Hat 9.2.1-1)
REM options -cpp -mtune=generic -march=x86-64 -g -O0 -fpre-include=/usr/include/finclude/math-vector-fortran.h
REM seed -1628392229 1171842416 1057817076 705388003 1633064466 1954485390 385356762 -915854602 -290006881 -432971639 -202471312 1860920211 -148630793 -156214391 997407522 -1428795011 -1890536638 1922687630 -985689354 257977954 -299898019 622778830 -1196740057 571694942 1132075817 -2123343526 -611127388 971540712 853170274 -577231762 1441719289 -421403425 989885926
REM
CELL 1.54180   50.00000   50.00000   50.00000   90.00000   90.00000   90.00000
LATT -1
SFAC C  
C      1  0.4691810000000  0.5239420000000  0.4988700000000 1.0
C      1  0.5191670000000  0.5245100000000  0.5232350000000 1.0
C      1  0.5107150000000  0.5208540000000  0.4729170000000 1.0
C      1  0.4691210000000  0.4776370000000  0.5075170000000 1.0
C      1  0.5127880000000  0.4747970000000  0.5302820000000 1.0
C      1  0.5119330000000  0.4701940000000  0.4748530000000 1.0
C      1  0.4659980000000  0.5119020000000  0.5703540000000 1.0
C      1  0.5592040000000  0.5181130000000  0.4953800000000 1.0
C      1  0.4652460000000  0.5150970000000  0.4478960000000 1.0
C      1  0.4715550000000  0.4873160000000  0.5580470000000 1.0
C      1  0.5765550000000  0.4965500000000  0.4915070000000 1.0
C      1  0.4586430000000  0.4931970000000  0.4321300000000 1.0
C      1  0.4827210000000  0.4777890000000  0.4788620000000 1.0
C      1  0.4851900000000  0.4888980000000  0.5307720000000 1.0
C      1  0.5252700000000  0.4806110000000  0.5025880000000 1.0
C      1  0.4812380000000  0.5092080000000  0.4736540000000 1.0
C      1  0.4874520000000  0.5182820000000  0.5224220000000 1.0
C      1  0.5293520000000  0.5114520000000  0.4977910000000 1.0
C      1  0.5078860000000  0.5524060000000  0.4671410000000 1.0
C      1  0.4665440000000  0.5556090000000  0.4941170000000 1.0
C      1  0.5171330000000  0.5574750000000  0.5296970000000 1.0
C      1  0.5270650000000  0.4396660000000  0.4742850000000 1.0
C      1  0.4578310000000  0.4360740000000  0.4805060000000 1.0
C      1  0.5085330000000  0.4431140000000  0.5391660000000 1.0
C      1  0.4692560000000  0.4612640000000  0.5676310000000 1.0
C      1  0.5720610000000  0.4693190000000  0.4924910000000 1.0
C      1  0.4569130000000  0.4666640000000  0.4388310000000 1.0
C      1  0.4748660000000  0.5376680000000  0.5653990000000 1.0
C      1  0.5633000000000  0.5458550000000  0.4951250000000 1.0
C      1  0.4612610000000  0.5415500000000  0.4436490000000 1.0
C      1  0.5345760000000  0.4369880000000  0.4438820000000 1.0
C      1  0.4322050000000  0.4392950000000  0.4923910000000 1.0
C      1  0.5378730000000  0.4406880000000  0.5524210000000 1.0
C      1  0.5370410000000  0.5555440000000  0.4553870000000 1.0
C      1  0.4356480000000  0.5592740000000  0.5005960000000 1.0
C      1  0.5402040000000  0.5602860000000  0.5511540000000 1.0
C      1  0.5478360000000  0.5352800000000  0.5607910000000 1.0
C      1  0.5420390000000  0.5320140000000  0.4395660000000 1.0
C      1  0.4228430000000  0.5349770000000  0.5053830000000 1.0
C      1  0.5473320000000  0.4652940000000  0.5614390000000 1.0
C      1  0.5327490000000  0.4615940000000  0.4311320000000 1.0
C      1  0.4242620000000  0.4631890000000  0.5041800000000 1.0
C      1  0.4873460000000  0.5734240000000  0.5118810000000 1.0
C      1  0.5194890000000  0.5717610000000  0.5002120000000 1.0
C      1  0.4940510000000  0.5809110000000  0.4798670000000 1.0
C      1  0.4790900000000  0.4228200000000  0.4929910000000 1.0
C      1  0.5004200000000  0.4262650000000  0.5168150000000 1.0
C      1  0.5109970000000  0.4193810000000  0.4881700000000 1.0
C      1  0.4902910000000  0.5420720000000  0.5437940000000 1.0
C      1  0.5429600000000  0.5616690000000  0.4839760000000 1.0
C      1  0.4754310000000  0.5594760000000  0.4629860000000 1.0
C      1  0.4881250000000  0.4421650000000  0.5629230000000 1.0
C      1  0.5469070000000  0.4601050000000  0.4904860000000 1.0
C      1  0.4651330000000  0.4578290000000  0.4638970000000 1.0
C      1  0.5249820000000  0.4824730000000  0.4484610000000 1.0
C      1  0.4416630000000  0.4852200000000  0.5069930000000 1.0
C      1  0.5328290000000  0.4869660000000  0.5504980000000 1.0
C      1  0.5265110000000  0.5095110000000  0.4487920000000 1.0
C      1  0.4402800000000  0.5127970000000  0.5040000000000 1.0
C      1  0.5349100000000  0.5137220000000  0.5478220000000 1.0
END
