TITL C-1154829-9094-557 -6.3378176291194e-05 125000 -368.542356069916 0 0 60 (C6) n - 1
REM
REM in /home/nfs/bkarasulu/CARBON/AIRSS/Generating-Clusters/AIREBO/Higher-Symm/Only-C60
REM
REM
REM
REM
REM
REM ./C.cell (28575a23ae977d3b5fae324c64b13b57)
REM
REM compiler GCC version 9.2.1 20190827 (Red Hat 9.2.1-1)
REM options -cpp -mtune=generic -march=x86-64 -g -O0 -fpre-include=/usr/include/finclude/math-vector-fortran.h
REM seed -1590966320 736421417 1458459981 -1548090682 -284312742 287197152 842065656 -1568283717 1146191058 176426970 -293228452 1486700026 659414908 -777235668 1477072492 -37947297 1090712866 -53068305 -297088220 1785423437 -614923129 1041476962 -766254548 123821647 -370691248 -1351495637 1219086884 -1811165540 -207433772 479521788 456389222 606418350 1321701574
REM
CELL 1.54180   50.00000   50.00000   50.00000   90.00000   90.00000   90.00000
LATT -1
SFAC C  
C      1  0.5260990000000  0.5692280000000  0.5106280000000 1.0
C      1  0.5037520000000  0.5692520000000  0.5278690000000 1.0
C      1  0.4776470000000  0.5692330000000  0.5171370000000 1.0
C      1  0.4738880000000  0.5691910000000  0.4891630000000 1.0
C      1  0.4962350000000  0.5691670000000  0.4719220000000 1.0
C      1  0.5223400000000  0.5691850000000  0.4826540000000 1.0
C      1  0.5262020000000  0.4593110000000  0.4564240000000 1.0
C      1  0.5508940000000  0.4593810000000  0.5009310000000 1.0
C      1  0.5246960000000  0.4594440000000  0.5445690000000 1.0
C      1  0.4738060000000  0.4594380000000  0.5436990000000 1.0
C      1  0.4491130000000  0.4593690000000  0.4991920000000 1.0
C      1  0.4753120000000  0.4593050000000  0.4555540000000 1.0
C      1  0.5137860000000  0.5054770000000  0.4717490000000 1.0
C      1  0.5313510000000  0.5055180000000  0.4978100000000 1.0
C      1  0.5175650000000  0.5055590000000  0.5260520000000 1.0
C      1  0.4862130000000  0.5055600000000  0.5282340000000 1.0
C      1  0.4686480000000  0.5055190000000  0.5021730000000 1.0
C      1  0.4824340000000  0.5054770000000  0.4739310000000 1.0
C      1  0.5064660000000  0.5482600000000  0.5514820000000 1.0
C      1  0.4585830000000  0.5482250000000  0.5313080000000 1.0
C      1  0.4521130000000  0.5481470000000  0.4797530000000 1.0
C      1  0.4935250000000  0.5481030000000  0.4483730000000 1.0
C      1  0.5414080000000  0.5481380000000  0.4685470000000 1.0
C      1  0.5478780000000  0.5482170000000  0.5201010000000 1.0
C      1  0.4248520000000  0.5293310000000  0.4878120000000 1.0
C      1  0.4729420000000  0.5292460000000  0.4288060000000 1.0
C      1  0.5480870000000  0.5292720000000  0.4409500000000 1.0
C      1  0.5751420000000  0.5293820000000  0.5121000000000 1.0
C      1  0.5270530000000  0.5294660000000  0.5711050000000 1.0
C      1  0.4519080000000  0.5294410000000  0.5589610000000 1.0
C      1  0.4597580000000  0.4458600000000  0.4759070000000 1.0
C      1  0.5008170000000  0.4458300000000  0.4531390000000 1.0
C      1  0.5410650000000  0.4458700000000  0.4773140000000 1.0
C      1  0.5402530000000  0.4459410000000  0.5242570000000 1.0
C      1  0.4991930000000  0.4459710000000  0.5470240000000 1.0
C      1  0.4589450000000  0.4459310000000  0.5228500000000 1.0
C      1  0.4505730000000  0.5319230000000  0.5075850000000 1.0
C      1  0.4686740000000  0.5318540000000  0.4609660000000 1.0
C      1  0.5180980000000  0.5318470000000  0.4533330000000 1.0
C      1  0.5494210000000  0.5319090000000  0.4923180000000 1.0
C      1  0.5313200000000  0.5319780000000  0.5389370000000 1.0
C      1  0.4818960000000  0.5319840000000  0.5465710000000 1.0
C      1  0.5248350000000  0.4222850000000  0.5150300000000 1.0
C      1  0.4995060000000  0.4223040000000  0.5290750000000 1.0
C      1  0.4746790000000  0.4222790000000  0.5141620000000 1.0
C      1  0.4751800000000  0.4222360000000  0.4852050000000 1.0
C      1  0.5005080000000  0.4222170000000  0.4711600000000 1.0
C      1  0.5253360000000  0.4222420000000  0.4860730000000 1.0
C      1  0.4728520000000  0.4865570000000  0.4499960000000 1.0
C      1  0.5297490000000  0.4865650000000  0.4514960000000 1.0
C      1  0.5568980000000  0.4866430000000  0.5015210000000 1.0
C      1  0.5271500000000  0.4867130000000  0.5500450000000 1.0
C      1  0.4702530000000  0.4867060000000  0.5485440000000 1.0
C      1  0.4431040000000  0.4866280000000  0.4985200000000 1.0
C      1  0.4498030000000  0.5017360000000  0.5620410000000 1.0
C      1  0.4211700000000  0.5016210000000  0.4875470000000 1.0
C      1  0.4713670000000  0.5015320000000  0.4255040000000 1.0
C      1  0.5501970000000  0.5015590000000  0.4379540000000 1.0
C      1  0.5788290000000  0.5016740000000  0.5124480000000 1.0
C      1  0.5286320000000  0.5017630000000  0.5744910000000 1.0
END
