TITL C-1154825-9328-656 0.000768797482894806 125000 -350.091506500089 0 0 60 (C1) n - 1
REM
REM in /home/nfs/bkarasulu/CARBON/AIRSS/Generating-Clusters/AIREBO/Higher-Symm/Only-C60
REM
REM
REM
REM
REM
REM ./C.cell (28575a23ae977d3b5fae324c64b13b57)
REM
REM compiler GCC version 9.2.1 20190827 (Red Hat 9.2.1-1)
REM options -cpp -mtune=generic -march=x86-64 -g -O0 -fpre-include=/usr/include/finclude/math-vector-fortran.h
REM seed -677718950 -1598232388 -343376387 -718724224 290095457 1247512298 640446589 -1621873290 -765805447 137754554 1002221760 490068972 -1533984824 1697040544 -1061002746 1829831345 -609258805 -1161613518 -1323900881 -1935188664 1187326288 33227707 -1813317623 739044781 1885249730 954445684 -516655066 -1200742596 -2055623868 308255803 19271373 664938214 -1537538338
REM
CELL 1.54180   50.00000   50.00000   50.00000   90.00000   90.00000   90.00000
LATT -1
SFAC C  
C      1  0.4555430000000  0.4900750000000  0.5628140000000 1.0
C      1  0.4710930000000  0.5186730000000  0.4289200000000 1.0
C      1  0.4856950000000  0.5371040000000  0.5675250000000 1.0
C      1  0.5217920000000  0.5413910000000  0.4238420000000 1.0
C      1  0.5401250000000  0.5281900000000  0.5821250000000 1.0
C      1  0.5393060000000  0.4947880000000  0.4394430000000 1.0
C      1  0.5431210000000  0.4792960000000  0.5643910000000 1.0
C      1  0.5029540000000  0.4542640000000  0.4432170000000 1.0
C      1  0.4947250000000  0.4542880000000  0.5565790000000 1.0
C      1  0.4578690000000  0.4688440000000  0.4419340000000 1.0
C      1  0.4512180000000  0.5103040000000  0.4717570000000 1.0
C      1  0.4893310000000  0.5203110000000  0.5231340000000 1.0
C      1  0.5101790000000  0.5340770000000  0.4684590000000 1.0
C      1  0.5156240000000  0.5147090000000  0.5130880000000 1.0
C      1  0.5173360000000  0.5066240000000  0.4828210000000 1.0
C      1  0.5397080000000  0.5116800000000  0.5280590000000 1.0
C      1  0.4993390000000  0.4787250000000  0.4870220000000 1.0
C      1  0.5104130000000  0.4626970000000  0.5125150000000 1.0
C      1  0.4695980000000  0.4883850000000  0.4901890000000 1.0
C      1  0.4680910000000  0.5017750000000  0.5180620000000 1.0
C      1  0.4824820000000  0.5043760000000  0.5720490000000 1.0
C      1  0.4936460000000  0.5288530000000  0.4161680000000 1.0
C      1  0.5092360000000  0.5177270000000  0.5797130000000 1.0
C      1  0.5210780000000  0.5095780000000  0.4154000000000 1.0
C      1  0.5326240000000  0.4971580000000  0.5909420000000 1.0
C      1  0.5109000000000  0.4824230000000  0.4303860000000 1.0
C      1  0.5118610000000  0.4773450000000  0.5721880000000 1.0
C      1  0.4833230000000  0.4673540000000  0.4197020000000 1.0
C      1  0.4789950000000  0.4721970000000  0.5798040000000 1.0
C      1  0.4620870000000  0.4931710000000  0.4220000000000 1.0
C      1  0.5383100000000  0.4642770000000  0.5185920000000 1.0
C      1  0.5060280000000  0.4264870000000  0.4808910000000 1.0
C      1  0.4771500000000  0.4279360000000  0.5207530000000 1.0
C      1  0.4262220000000  0.4911470000000  0.4726210000000 1.0
C      1  0.4207610000000  0.4944450000000  0.5309500000000 1.0
C      1  0.4839140000000  0.5442810000000  0.4681080000000 1.0
C      1  0.4798960000000  0.5684730000000  0.5301510000000 1.0
C      1  0.5483110000000  0.5635590000000  0.4587240000000 1.0
C      1  0.5556630000000  0.5340260000000  0.5362500000000 1.0
C      1  0.5684760000000  0.4993100000000  0.4774340000000 1.0
C      1  0.4935660000000  0.4481670000000  0.5301300000000 1.0
C      1  0.4501820000000  0.4710030000000  0.4679570000000 1.0
C      1  0.4478470000000  0.4945350000000  0.5367080000000 1.0
C      1  0.4650170000000  0.5274990000000  0.4552080000000 1.0
C      1  0.4850010000000  0.5433720000000  0.5403810000000 1.0
C      1  0.5280230000000  0.5468200000000  0.4504230000000 1.0
C      1  0.5558810000000  0.5389750000000  0.5639570000000 1.0
C      1  0.5433080000000  0.4998000000000  0.4664840000000 1.0
C      1  0.5457330000000  0.4850670000000  0.5370280000000 1.0
C      1  0.5035240000000  0.4517930000000  0.4703990000000 1.0
C      1  0.5687820000000  0.5493870000000  0.5184340000000 1.0
C      1  0.5926930000000  0.5013450000000  0.4872590000000 1.0
C      1  0.5563960000000  0.4468680000000  0.5087920000000 1.0
C      1  0.5109860000000  0.4026730000000  0.4907180000000 1.0
C      1  0.4597560000000  0.4105840000000  0.5116290000000 1.0
C      1  0.4000270000000  0.4916690000000  0.4750300000000 1.0
C      1  0.3953420000000  0.4918230000000  0.5250780000000 1.0
C      1  0.4772000000000  0.5681970000000  0.4784990000000 1.0
C      1  0.4776010000000  0.5927240000000  0.5204830000000 1.0
C      1  0.5691120000000  0.5773730000000  0.4666800000000 1.0
END
