TITL C-1154825-9328-525 0.000205894087836229 125000 -330.004921089457 0 0 60 (C1) n - 1
REM
REM in /home/nfs/bkarasulu/CARBON/AIRSS/Generating-Clusters/AIREBO/Higher-Symm/Only-C60
REM
REM
REM
REM
REM
REM ./C.cell (28575a23ae977d3b5fae324c64b13b57)
REM
REM compiler GCC version 9.2.1 20190827 (Red Hat 9.2.1-1)
REM options -cpp -mtune=generic -march=x86-64 -g -O0 -fpre-include=/usr/include/finclude/math-vector-fortran.h
REM seed 1473130665 -1577026917 922847316 834372797 1005848985 574664741 1386363092 -2077353016 -1212072277 -1430513879 -1513192952 -1498769587 792139580 265400082 557179476 -1095110917 -1504626475 1744703500 837134290 2006168532 1516227636 739930536 626519069 1574429712 -1372081036 995340699 65728456 1597964136 -985360273 1759493318 125368592 -1767799447 -1481394683
REM
CELL 1.54180   50.00000   50.00000   50.00000   90.00000   90.00000   90.00000
LATT -1
SFAC C  
C      1  0.5197440000000  0.5274830000000  0.5080140000000 1.0
C      1  0.4870800000000  0.5187880000000  0.5103260000000 1.0
C      1  0.4998300000000  0.5246890000000  0.4803340000000 1.0
C      1  0.4498580000000  0.4170410000000  0.5255310000000 1.0
C      1  0.5226810000000  0.4424250000000  0.4473050000000 1.0
C      1  0.5616940000000  0.4590810000000  0.5700210000000 1.0
C      1  0.4169030000000  0.4623830000000  0.4275430000000 1.0
C      1  0.5466790000000  0.4278530000000  0.4948220000000 1.0
C      1  0.5163920000000  0.4445840000000  0.5530780000000 1.0
C      1  0.5289260000000  0.5739680000000  0.4648890000000 1.0
C      1  0.5103900000000  0.5705350000000  0.5349370000000 1.0
C      1  0.4601030000000  0.5699220000000  0.4911830000000 1.0
C      1  0.4497790000000  0.4642980000000  0.4954410000000 1.0
C      1  0.5442700000000  0.4860020000000  0.4430000000000 1.0
C      1  0.5199550000000  0.5094270000000  0.5798790000000 1.0
C      1  0.5598090000000  0.4775590000000  0.4976670000000 1.0
C      1  0.4781350000000  0.4763100000000  0.5579730000000 1.0
C      1  0.4526240000000  0.4976230000000  0.4470140000000 1.0
C      1  0.5396690000000  0.5256500000000  0.4813540000000 1.0
C      1  0.4889040000000  0.5266620000000  0.5414870000000 1.0
C      1  0.4760190000000  0.5376030000000  0.4610850000000 1.0
C      1  0.5089480000000  0.4658640000000  0.4500570000000 1.0
C      1  0.5400400000000  0.4639000000000  0.5495320000000 1.0
C      1  0.4488770000000  0.4437090000000  0.5223270000000 1.0
C      1  0.4007750000000  0.4437650000000  0.4185880000000 1.0
C      1  0.5275760000000  0.4183450000000  0.5117200000000 1.0
C      1  0.5189590000000  0.4215980000000  0.5374250000000 1.0
C      1  0.5055150000000  0.4793300000000  0.4798850000000 1.0
C      1  0.5189060000000  0.4846520000000  0.5324570000000 1.0
C      1  0.4958340000000  0.4776890000000  0.5123960000000 1.0
C      1  0.4636680000000  0.5647020000000  0.5231150000000 1.0
C      1  0.4976220000000  0.5785310000000  0.4565930000000 1.0
C      1  0.5336320000000  0.5698380000000  0.5118660000000 1.0
C      1  0.4861690000000  0.5570010000000  0.5379380000000 1.0
C      1  0.4746340000000  0.5659260000000  0.4675190000000 1.0
C      1  0.5369310000000  0.5586720000000  0.4869290000000 1.0
C      1  0.5169600000000  0.5569160000000  0.4415540000000 1.0
C      1  0.5389070000000  0.5565150000000  0.5399900000000 1.0
C      1  0.4461860000000  0.5438270000000  0.5054260000000 1.0
C      1  0.5262700000000  0.5003300000000  0.4630140000000 1.0
C      1  0.5154080000000  0.5114900000000  0.5499040000000 1.0
C      1  0.4688950000000  0.4866700000000  0.4936280000000 1.0
C      1  0.4352590000000  0.4797140000000  0.4360310000000 1.0
C      1  0.5612260000000  0.4505910000000  0.4911770000000 1.0
C      1  0.4947040000000  0.4555860000000  0.5669730000000 1.0
C      1  0.4990330000000  0.4826120000000  0.4303660000000 1.0
C      1  0.5864300000000  0.5159500000000  0.5418270000000 1.0
C      1  0.4282980000000  0.4696380000000  0.5286430000000 1.0
C      1  0.4535130000000  0.5250110000000  0.4458850000000 1.0
C      1  0.5607750000000  0.5003320000000  0.4829840000000 1.0
C      1  0.4784900000000  0.5032090000000  0.5626610000000 1.0
C      1  0.5134490000000  0.5291490000000  0.4503140000000 1.0
C      1  0.5378270000000  0.5269430000000  0.5341610000000 1.0
C      1  0.4564210000000  0.5157680000000  0.5060720000000 1.0
C      1  0.4680850000000  0.4708600000000  0.5302390000000 1.0
C      1  0.4775050000000  0.4889170000000  0.4633850000000 1.0
C      1  0.5516510000000  0.4829580000000  0.5253450000000 1.0
C      1  0.4446490000000  0.4938190000000  0.5244590000000 1.0
C      1  0.4901120000000  0.5098410000000  0.4405080000000 1.0
C      1  0.5624180000000  0.5099430000000  0.5342240000000 1.0
END
