TITL C-1154804-8633-211 0.0024779515747304 125000 -332.63031810727 0 0 60 (C1) n - 1
REM
REM in /home/nfs/bkarasulu/CARBON/AIRSS/Generating-Clusters/AIREBO/Higher-Symm/Only-C60
REM
REM
REM
REM
REM
REM ./C.cell (28575a23ae977d3b5fae324c64b13b57)
REM
REM compiler GCC version 9.2.1 20190827 (Red Hat 9.2.1-1)
REM options -cpp -mtune=generic -march=x86-64 -g -O0 -fpre-include=/usr/include/finclude/math-vector-fortran.h
REM seed -1552203619 -822883319 -454280537 -1046588888 1691481028 -47657760 -866826381 173961066 -786205351 -937620948 1327796486 1073862996 110953116 -2083449101 -1842405658 -638655352 -156819561 81762985 824387983 -1558908547 -1784604064 1727738089 -136972936 1321813309 685451643 -452705869 1108899406 441499954 -2055607081 -665929815 -1152802707 741389420 919564984
REM
CELL 1.54180   50.00000   50.00000   50.00000   90.00000   90.00000   90.00000
LATT -1
SFAC C  
C      1  0.4574400000000  0.5454750000000  0.4716790000000 1.0
C      1  0.4812980000000  0.5371280000000  0.5404850000000 1.0
C      1  0.4429710000000  0.4897680000000  0.4685220000000 1.0
C      1  0.4822110000000  0.4639280000000  0.4500420000000 1.0
C      1  0.4717310000000  0.4981260000000  0.5099190000000 1.0
C      1  0.4828590000000  0.4551650000000  0.4800100000000 1.0
C      1  0.5140620000000  0.4828910000000  0.4117790000000 1.0
C      1  0.4846840000000  0.4871120000000  0.4854030000000 1.0
C      1  0.4426730000000  0.4602250000000  0.5091280000000 1.0
C      1  0.4560110000000  0.4422760000000  0.4916760000000 1.0
C      1  0.5101150000000  0.4610490000000  0.4367600000000 1.0
C      1  0.5365060000000  0.4985150000000  0.5761220000000 1.0
C      1  0.5095600000000  0.4509560000000  0.5610240000000 1.0
C      1  0.4790890000000  0.4849860000000  0.5356120000000 1.0
C      1  0.5123000000000  0.5119530000000  0.4389620000000 1.0
C      1  0.4982210000000  0.5487760000000  0.5743400000000 1.0
C      1  0.5234580000000  0.4327920000000  0.5452470000000 1.0
C      1  0.4608020000000  0.5493590000000  0.4988530000000 1.0
C      1  0.5336170000000  0.4854560000000  0.4395960000000 1.0
C      1  0.5242550000000  0.4430540000000  0.5150850000000 1.0
C      1  0.5547840000000  0.4860080000000  0.5211980000000 1.0
C      1  0.4642980000000  0.4851500000000  0.4438810000000 1.0
C      1  0.5214740000000  0.4596970000000  0.4674700000000 1.0
C      1  0.4423350000000  0.5124630000000  0.5131230000000 1.0
C      1  0.4802850000000  0.4543540000000  0.5493180000000 1.0
C      1  0.4774670000000  0.4329110000000  0.5249450000000 1.0
C      1  0.4572880000000  0.5156770000000  0.4681030000000 1.0
C      1  0.5286770000000  0.4738020000000  0.5674170000000 1.0
C      1  0.5452950000000  0.5539540000000  0.5120250000000 1.0
C      1  0.5537980000000  0.4838810000000  0.4607140000000 1.0
C      1  0.5489180000000  0.5273020000000  0.5081650000000 1.0
C      1  0.5065820000000  0.5510140000000  0.4688620000000 1.0
C      1  0.5169120000000  0.5657810000000  0.4982320000000 1.0
C      1  0.5261790000000  0.5384580000000  0.4473880000000 1.0
C      1  0.4817110000000  0.5396210000000  0.4485860000000 1.0
C      1  0.5090080000000  0.5328360000000  0.4959200000000 1.0
C      1  0.4124550000000  0.5103860000000  0.5141320000000 1.0
C      1  0.5604500000000  0.5132820000000  0.4730750000000 1.0
C      1  0.4525320000000  0.4817410000000  0.5568720000000 1.0
C      1  0.4367540000000  0.4844080000000  0.4962490000000 1.0
C      1  0.5401070000000  0.5253010000000  0.5554910000000 1.0
C      1  0.5616020000000  0.4858850000000  0.4937470000000 1.0
C      1  0.4828360000000  0.5281860000000  0.5101290000000 1.0
C      1  0.5293430000000  0.4396960000000  0.4838100000000 1.0
C      1  0.5303010000000  0.5100820000000  0.4884720000000 1.0
C      1  0.4942780000000  0.5654480000000  0.5482390000000 1.0
C      1  0.5073940000000  0.5216220000000  0.5558030000000 1.0
C      1  0.5160700000000  0.5709880000000  0.5322060000000 1.0
C      1  0.5161210000000  0.4847010000000  0.4805360000000 1.0
C      1  0.5419980000000  0.5567670000000  0.5426230000000 1.0
C      1  0.4953760000000  0.5065750000000  0.4099660000000 1.0
C      1  0.5306490000000  0.4709450000000  0.5335770000000 1.0
C      1  0.5549460000000  0.5124650000000  0.5307390000000 1.0
C      1  0.4947010000000  0.4382930000000  0.5037030000000 1.0
C      1  0.5533470000000  0.5361740000000  0.4531140000000 1.0
C      1  0.4909080000000  0.5113650000000  0.4653840000000 1.0
C      1  0.4733790000000  0.5118440000000  0.4300040000000 1.0
C      1  0.5067340000000  0.4938140000000  0.5414910000000 1.0
C      1  0.4491730000000  0.4586540000000  0.5362810000000 1.0
C      1  0.4496650000000  0.5394820000000  0.5287650000000 1.0
END
