TITL C-1154810-7815-526 -0.00256881839941231 125000 -333.034058778738 0 0 60 (C1) n - 1
REM
REM in /home/nfs/bkarasulu/CARBON/AIRSS/Generating-Clusters/AIREBO/Higher-Symm/Only-C60
REM
REM
REM
REM
REM
REM ./C.cell (28575a23ae977d3b5fae324c64b13b57)
REM
REM compiler GCC version 9.2.1 20190827 (Red Hat 9.2.1-1)
REM options -cpp -mtune=generic -march=x86-64 -g -O0 -fpre-include=/usr/include/finclude/math-vector-fortran.h
REM seed 812586784 466022959 846354821 -28451591 128155405 -437373272 -1154141841 -1175694716 544180991 626505409 1594569631 -1235253192 1569073371 -296412802 2129678608 -865765564 1127813173 845299985 -798003624 1382214345 1480410111 -103212784 1850613930 -657733414 1118945080 1382746675 -1045445479 1551333404 -1626431954 -1151181659 -834756937 1177644873 -168999003
REM
CELL 1.54180   50.00000   50.00000   50.00000   90.00000   90.00000   90.00000
LATT -1
SFAC C  
C      1  0.5423210000000  0.5518510000000  0.4651060000000 1.0
C      1  0.4604550000000  0.4579370000000  0.4697820000000 1.0
C      1  0.4534710000000  0.5564280000000  0.4675120000000 1.0
C      1  0.5449610000000  0.4546400000000  0.4686220000000 1.0
C      1  0.5676520000000  0.5386920000000  0.5042900000000 1.0
C      1  0.4353240000000  0.4614920000000  0.5109430000000 1.0
C      1  0.4315420000000  0.5424290000000  0.5077970000000 1.0
C      1  0.5667400000000  0.4606260000000  0.5116840000000 1.0
C      1  0.5215420000000  0.5254400000000  0.5522980000000 1.0
C      1  0.4704000000000  0.4779410000000  0.5559450000000 1.0
C      1  0.4771890000000  0.5276150000000  0.5532120000000 1.0
C      1  0.5267970000000  0.4775750000000  0.5553120000000 1.0
C      1  0.5528680000000  0.4847720000000  0.5286000000000 1.0
C      1  0.4457970000000  0.5129900000000  0.5146650000000 1.0
C      1  0.4446100000000  0.4865120000000  0.5292760000000 1.0
C      1  0.5516140000000  0.5107820000000  0.5130370000000 1.0
C      1  0.5122370000000  0.5633980000000  0.4478550000000 1.0
C      1  0.4872230000000  0.4595720000000  0.4484760000000 1.0
C      1  0.4825220000000  0.5471880000000  0.4511200000000 1.0
C      1  0.5173480000000  0.4443250000000  0.4525110000000 1.0
C      1  0.5473690000000  0.4328080000000  0.4425590000000 1.0
C      1  0.4577950000000  0.5597230000000  0.4339460000000 1.0
C      1  0.4620770000000  0.4403180000000  0.4407470000000 1.0
C      1  0.5408440000000  0.5749760000000  0.4404000000000 1.0
C      1  0.4509930000000  0.5253330000000  0.4622100000000 1.0
C      1  0.5486150000000  0.4836130000000  0.4650510000000 1.0
C      1  0.5458170000000  0.5228450000000  0.4601330000000 1.0
C      1  0.4506760000000  0.4860860000000  0.4668630000000 1.0
C      1  0.5195670000000  0.5202000000000  0.5760730000000 1.0
C      1  0.4788620000000  0.4812930000000  0.5789350000000 1.0
C      1  0.4796080000000  0.5211730000000  0.5766480000000 1.0
C      1  0.5188070000000  0.4803410000000  0.5786110000000 1.0
C      1  0.5486100000000  0.5571740000000  0.4947430000000 1.0
C      1  0.4549390000000  0.4478820000000  0.4976100000000 1.0
C      1  0.4503210000000  0.5599770000000  0.4968890000000 1.0
C      1  0.5486070000000  0.4455060000000  0.4973530000000 1.0
C      1  0.5221700000000  0.4707890000000  0.5242310000000 1.0
C      1  0.4736690000000  0.5282610000000  0.5226870000000 1.0
C      1  0.4740780000000  0.4701430000000  0.5247250000000 1.0
C      1  0.5243960000000  0.5264080000000  0.5215660000000 1.0
C      1  0.4763990000000  0.4390550000000  0.5165950000000 1.0
C      1  0.5267860000000  0.5559850000000  0.5133240000000 1.0
C      1  0.5250720000000  0.4423080000000  0.5135500000000 1.0
C      1  0.4740130000000  0.5577050000000  0.5122370000000 1.0
C      1  0.5008270000000  0.4309100000000  0.5048600000000 1.0
C      1  0.4997020000000  0.5666790000000  0.5056190000000 1.0
C      1  0.4969370000000  0.4716690000000  0.4787370000000 1.0
C      1  0.4937370000000  0.5250800000000  0.4747760000000 1.0
C      1  0.4379190000000  0.5081690000000  0.4843660000000 1.0
C      1  0.5594560000000  0.5061470000000  0.4825920000000 1.0
C      1  0.5654500000000  0.4876270000000  0.5554630000000 1.0
C      1  0.4315460000000  0.4873330000000  0.5559390000000 1.0
C      1  0.4982770000000  0.4376820000000  0.4777730000000 1.0
C      1  0.5069080000000  0.5561480000000  0.4789710000000 1.0
C      1  0.4977470000000  0.4839280000000  0.5082090000000 1.0
C      1  0.4981360000000  0.5152250000000  0.5070850000000 1.0
C      1  0.5280650000000  0.4997720000000  0.4489850000000 1.0
C      1  0.4700300000000  0.5040290000000  0.4505820000000 1.0
C      1  0.4994140000000  0.5019030000000  0.5951470000000 1.0
C      1  0.5000650000000  0.4977420000000  0.4590580000000 1.0
END
