TITL C-1154804-8633-152 -2.23055339043562e-07 125000 -372.695547453311 0 0 60 (C3i) n - 1
REM
REM in /home/nfs/bkarasulu/CARBON/AIRSS/Generating-Clusters/AIREBO/Higher-Symm/Only-C60
REM
REM
REM
REM
REM
REM ./C.cell (28575a23ae977d3b5fae324c64b13b57)
REM
REM compiler GCC version 9.2.1 20190827 (Red Hat 9.2.1-1)
REM options -cpp -mtune=generic -march=x86-64 -g -O0 -fpre-include=/usr/include/finclude/math-vector-fortran.h
REM seed -766601537 -1534789939 -1710393877 -1046022872 863833267 -461807300 -430505705 -120299734 324778214 -738231195 -518771517 -895023346 323443238 -176012884 -976134972 1133836475 389805250 1218771434 128225089 -1230715895 -620304174 -1669458262 -1691634615 1003842041 -760148236 -1217632869 -1428303387 -895413900 1199832430 367701895 -1411229031 1170425157 1545567745
REM
CELL 1.54180   50.00000   50.00000   50.00000   90.00000   90.00000   90.00000
LATT -1
SFAC C  
C      1  0.4575630000000  0.5136380000000  0.4613410000000 1.0
C      1  0.5424830000000  0.4734090000000  0.4688630000000 1.0
C      1  0.4575830000000  0.4596690000000  0.5074570000000 1.0
C      1  0.5424370000000  0.4863620000000  0.5386590000000 1.0
C      1  0.4575170000000  0.5265910000000  0.5311370000000 1.0
C      1  0.5424170000000  0.5403310000000  0.4925430000000 1.0
C      1  0.5235480000000  0.4558330000000  0.4569560000000 1.0
C      1  0.4765490000000  0.4406000000000  0.5167260000000 1.0
C      1  0.5234710000000  0.4848240000000  0.5598070000000 1.0
C      1  0.4764520000000  0.5441670000000  0.5430440000000 1.0
C      1  0.5234510000000  0.5594000000000  0.4832740000000 1.0
C      1  0.4765290000000  0.5151760000000  0.4401930000000 1.0
C      1  0.5175920000000  0.5583340000000  0.4564610000000 1.0
C      1  0.4824280000000  0.4914320000000  0.4277110000000 1.0
C      1  0.5176850000000  0.4331410000000  0.4712770000000 1.0
C      1  0.4824080000000  0.4416660000000  0.5435390000000 1.0
C      1  0.5175720000000  0.5085680000000  0.5722890000000 1.0
C      1  0.4823150000000  0.5668590000000  0.5287230000000 1.0
C      1  0.4464140000000  0.4874220000000  0.4658150000000 1.0
C      1  0.5536460000000  0.4641940000000  0.4938040000000 1.0
C      1  0.4463900000000  0.4766430000000  0.5279070000000 1.0
C      1  0.5535860000000  0.5125780000000  0.5341850000000 1.0
C      1  0.4463540000000  0.5358060000000  0.5061960000000 1.0
C      1  0.5536100000000  0.5233570000000  0.4720930000000 1.0
C      1  0.4932450000000  0.5292690000000  0.4944620000000 1.0
C      1  0.5067400000000  0.5098500000000  0.4718840000000 1.0
C      1  0.4932930000000  0.4805650000000  0.4774110000000 1.0
C      1  0.5067550000000  0.4707310000000  0.5055380000000 1.0
C      1  0.4932600000000  0.4901500000000  0.5281160000000 1.0
C      1  0.5067070000000  0.5194350000000  0.5225890000000 1.0
C      1  0.5366490000000  0.4722800000000  0.5148860000000 1.0
C      1  0.4633510000000  0.4989710000000  0.5314460000000 1.0
C      1  0.5366040000000  0.5267800000000  0.5166170000000 1.0
C      1  0.4633510000000  0.5277200000000  0.4851140000000 1.0
C      1  0.5366490000000  0.5010290000000  0.4685540000000 1.0
C      1  0.4633960000000  0.4732200000000  0.4833830000000 1.0
C      1  0.5543090000000  0.4169560000000  0.5025350000000 1.0
C      1  0.4457510000000  0.4605830000000  0.5731810000000 1.0
C      1  0.5541710000000  0.5437580000000  0.5707310000000 1.0
C      1  0.4456910000000  0.5830440000000  0.4974650000000 1.0
C      1  0.5542490000000  0.5394170000000  0.4268190000000 1.0
C      1  0.4458290000000  0.4562420000000  0.4292690000000 1.0
C      1  0.5271580000000  0.5380850000000  0.5735560000000 1.0
C      1  0.4727050000000  0.5826990000000  0.5037930000000 1.0
C      1  0.5272270000000  0.5446800000000  0.4302790000000 1.0
C      1  0.4728420000000  0.4619150000000  0.4264440000000 1.0
C      1  0.5272950000000  0.4173010000000  0.4962070000000 1.0
C      1  0.4727730000000  0.4553200000000  0.5697210000000 1.0
C      1  0.5013980000000  0.5306780000000  0.5529930000000 1.0
C      1  0.4985010000000  0.5612300000000  0.4999280000000 1.0
C      1  0.5014520000000  0.5305550000000  0.4469380000000 1.0
C      1  0.4986020000000  0.4693220000000  0.4470070000000 1.0
C      1  0.5014990000000  0.4387700000000  0.5000720000000 1.0
C      1  0.4985480000000  0.4694450000000  0.5530620000000 1.0
C      1  0.5683980000000  0.5317090000000  0.4494600000000 1.0
C      1  0.4316520000000  0.4719720000000  0.4472640000000 1.0
C      1  0.5684460000000  0.4404290000000  0.4979100000000 1.0
C      1  0.4316020000000  0.4682910000000  0.5505400000000 1.0
C      1  0.5683480000000  0.5280280000000  0.5527360000000 1.0
C      1  0.4315540000000  0.5595710000000  0.5020900000000 1.0
END
