TITL C-1154825-9328-386 0.00608376706802976 125000 -384.232216849056 0 0 60 (D5) n - 1
REM
REM in /home/nfs/bkarasulu/CARBON/AIRSS/Generating-Clusters/AIREBO/Higher-Symm/Only-C60
REM
REM
REM
REM
REM
REM ./C.cell (28575a23ae977d3b5fae324c64b13b57)
REM
REM compiler GCC version 9.2.1 20190827 (Red Hat 9.2.1-1)
REM options -cpp -mtune=generic -march=x86-64 -g -O0 -fpre-include=/usr/include/finclude/math-vector-fortran.h
REM seed 1358662296 193180291 472506388 973442658 -1827633851 1809333868 747215749 1944168890 -980676084 -395963226 613595321 -757030030 -1767499212 -1486582904 -1238546939 228866940 -42184097 -1489220598 -879583029 -738339338 -1271758692 435472820 -1357671221 1870706390 -339611582 1207626259 60056331 -649522973 544752947 -1819702850 1953622465 -1997792884 1210841310
REM
CELL 1.54180   50.00000   50.00000   50.00000   90.00000   90.00000   90.00000
LATT -1
SFAC C  
C      1  0.4934830000000  0.4638010000000  0.4291720000000 1.0
C      1  0.5653480000000  0.4638030000000  0.4719150000000 1.0
C      1  0.5469050000000  0.4638040000000  0.5534710000000 1.0
C      1  0.4636420000000  0.4638030000000  0.5611330000000 1.0
C      1  0.4306250000000  0.4638010000000  0.4843120000000 1.0
C      1  0.4940190000000  0.4632170000000  0.5668970000000 1.0
C      1  0.5617750000000  0.4632170000000  0.5263610000000 1.0
C      1  0.5441600000000  0.4632160000000  0.4493950000000 1.0
C      1  0.4655180000000  0.4632150000000  0.4423640000000 1.0
C      1  0.4345290000000  0.4632150000000  0.5149840000000 1.0
C      1  0.5476250000000  0.5118230000000  0.5524470000000 1.0
C      1  0.4648370000000  0.5118220000000  0.5615010000000 1.0
C      1  0.4306430000000  0.5118200000000  0.4855630000000 1.0
C      1  0.4922980000000  0.5118200000000  0.4295760000000 1.0
C      1  0.5645970000000  0.5118220000000  0.4709120000000 1.0
C      1  0.5463580000000  0.5119690000000  0.4492240000000 1.0
C      1  0.4660350000000  0.5119680000000  0.4402200000000 1.0
C      1  0.4326500000000  0.5119690000000  0.5138300000000 1.0
C      1  0.4923410000000  0.5119700000000  0.5683270000000 1.0
C      1  0.5626160000000  0.5119700000000  0.5283980000000 1.0
C      1  0.5351650000000  0.4881800000000  0.5615010000000 1.0
C      1  0.4523760000000  0.4881790000000  0.5524480000000 1.0
C      1  0.4354020000000  0.4881780000000  0.4709140000000 1.0
C      1  0.5077010000000  0.4881780000000  0.4295760000000 1.0
C      1  0.5693570000000  0.4881790000000  0.4855620000000 1.0
C      1  0.5339640000000  0.4880300000000  0.4402200000000 1.0
C      1  0.4536410000000  0.4880300000000  0.4492260000000 1.0
C      1  0.4373850000000  0.4880310000000  0.5284000000000 1.0
C      1  0.5076610000000  0.4880320000000  0.5683270000000 1.0
C      1  0.5673500000000  0.4880320000000  0.5138280000000 1.0
C      1  0.4530960000000  0.5361980000000  0.5534710000000 1.0
C      1  0.4346520000000  0.5361970000000  0.4719150000000 1.0
C      1  0.5065160000000  0.5361970000000  0.4291710000000 1.0
C      1  0.5693750000000  0.5361980000000  0.4843090000000 1.0
C      1  0.5363600000000  0.5361990000000  0.5611310000000 1.0
C      1  0.4558380000000  0.5367830000000  0.4493960000000 1.0
C      1  0.4382260000000  0.5367840000000  0.5263620000000 1.0
C      1  0.5059820000000  0.5367850000000  0.5668960000000 1.0
C      1  0.5654710000000  0.5367850000000  0.5149820000000 1.0
C      1  0.5344800000000  0.5367840000000  0.4423620000000 1.0
C      1  0.5435890000000  0.5595220000000  0.5177390000000 1.0
C      1  0.4965980000000  0.5595210000000  0.5469370000000 1.0
C      1  0.4543070000000  0.5595200000000  0.5112690000000 1.0
C      1  0.4751620000000  0.5595200000000  0.4600260000000 1.0
C      1  0.5303410000000  0.5595210000000  0.4640250000000 1.0
C      1  0.5459500000000  0.5567810000000  0.4867150000000 1.0
C      1  0.5015650000000  0.5567800000000  0.4521920000000 1.0
C      1  0.4550160000000  0.5567800000000  0.4837370000000 1.0
C      1  0.4706330000000  0.5567810000000  0.5377560000000 1.0
C      1  0.5268330000000  0.5567820000000  0.5395960000000 1.0
C      1  0.5449840000000  0.4432190000000  0.4837380000000 1.0
C      1  0.5293680000000  0.4432200000000  0.5377570000000 1.0
C      1  0.4731680000000  0.4432190000000  0.5395980000000 1.0
C      1  0.4540490000000  0.4432180000000  0.4867180000000 1.0
C      1  0.4984340000000  0.4432180000000  0.4521940000000 1.0
C      1  0.5456930000000  0.4404800000000  0.5112690000000 1.0
C      1  0.5248370000000  0.4404790000000  0.4600270000000 1.0
C      1  0.4696580000000  0.4404780000000  0.4640270000000 1.0
C      1  0.4564110000000  0.4404790000000  0.5177420000000 1.0
C      1  0.5034040000000  0.4404800000000  0.5469390000000 1.0
END
