TITL C-1154803-8277-326 0.000143447202222522 125000 -345.581185056547 0 0 60 (C1) n - 1
REM
REM in /home/nfs/bkarasulu/CARBON/AIRSS/Generating-Clusters/AIREBO/Higher-Symm/Only-C60
REM
REM
REM
REM
REM
REM ./C.cell (28575a23ae977d3b5fae324c64b13b57)
REM
REM compiler GCC version 9.2.1 20190827 (Red Hat 9.2.1-1)
REM options -cpp -mtune=generic -march=x86-64 -g -O0 -fpre-include=/usr/include/finclude/math-vector-fortran.h
REM seed 1001435148 -1234984476 -325882116 15157889 1816209745 -1896560620 -2056203632 -1844687260 1505411177 -1891661378 -1999657419 1639022590 1548727854 607723003 -879855290 1903102241 1931734866 1047033060 -221868645 -588729813 -1705692622 1834981845 -1366093226 -2068185227 -900237770 2124891532 1944942692 -784148200 1127772228 -1276739137 101636816 1191917008 -748860419
REM
CELL 1.54180   50.00000   50.00000   50.00000   90.00000   90.00000   90.00000
LATT -1
SFAC C  
C      1  0.5311500000000  0.4985110000000  0.4690550000000 1.0
C      1  0.4908960000000  0.4697510000000  0.4748710000000 1.0
C      1  0.4800360000000  0.5094760000000  0.4722910000000 1.0
C      1  0.5093980000000  0.5209100000000  0.4784350000000 1.0
C      1  0.5703530000000  0.5056780000000  0.4714150000000 1.0
C      1  0.5082100000000  0.4297880000000  0.4701100000000 1.0
C      1  0.4329820000000  0.4927760000000  0.4734730000000 1.0
C      1  0.4919110000000  0.5658890000000  0.4759480000000 1.0
C      1  0.5347810000000  0.5338500000000  0.4506900000000 1.0
C      1  0.5354890000000  0.4627780000000  0.4490620000000 1.0
C      1  0.4624550000000  0.4637520000000  0.4480460000000 1.0
C      1  0.4630170000000  0.5369400000000  0.4490100000000 1.0
C      1  0.4536410000000  0.4574590000000  0.4972140000000 1.0
C      1  0.4545890000000  0.5531210000000  0.4975930000000 1.0
C      1  0.5504150000000  0.5421120000000  0.4962840000000 1.0
C      1  0.5483940000000  0.4449340000000  0.4931890000000 1.0
C      1  0.4478950000000  0.5133840000000  0.4618640000000 1.0
C      1  0.5122460000000  0.5502720000000  0.4643010000000 1.0
C      1  0.5577680000000  0.4829320000000  0.4547420000000 1.0
C      1  0.4848290000000  0.4428010000000  0.4552400000000 1.0
C      1  0.4696430000000  0.5708210000000  0.5224290000000 1.0
C      1  0.5659920000000  0.5238710000000  0.5203830000000 1.0
C      1  0.5270580000000  0.4317120000000  0.5156990000000 1.0
C      1  0.4359530000000  0.4724450000000  0.5204820000000 1.0
C      1  0.4291620000000  0.4967740000000  0.5013030000000 1.0
C      1  0.4922760000000  0.5647930000000  0.5042140000000 1.0
C      1  0.5739150000000  0.5005970000000  0.4998850000000 1.0
C      1  0.5029590000000  0.4265730000000  0.4981470000000 1.0
C      1  0.4771320000000  0.4813640000000  0.5037100000000 1.0
C      1  0.4772140000000  0.5279190000000  0.5006020000000 1.0
C      1  0.5298210000000  0.5163860000000  0.5047010000000 1.0
C      1  0.5277770000000  0.4718550000000  0.4899360000000 1.0
C      1  0.5083750000000  0.4756610000000  0.4462330000000 1.0
C      1  0.4786610000000  0.4909430000000  0.4437550000000 1.0
C      1  0.4841650000000  0.5224010000000  0.4347120000000 1.0
C      1  0.5145690000000  0.5085420000000  0.4410830000000 1.0
C      1  0.4800370000000  0.5373970000000  0.5683950000000 1.0
C      1  0.5305710000000  0.5200060000000  0.5659450000000 1.0
C      1  0.5121780000000  0.4712780000000  0.5646050000000 1.0
C      1  0.4641400000000  0.4888740000000  0.5678050000000 1.0
C      1  0.4653250000000  0.5586400000000  0.4670740000000 1.0
C      1  0.5563690000000  0.5302880000000  0.4681230000000 1.0
C      1  0.5340930000000  0.4407710000000  0.4655820000000 1.0
C      1  0.4434990000000  0.4663350000000  0.4689110000000 1.0
C      1  0.5358130000000  0.5487260000000  0.5265040000000 1.0
C      1  0.5457610000000  0.4603210000000  0.5233950000000 1.0
C      1  0.4797710000000  0.4421620000000  0.5064250000000 1.0
C      1  0.4496990000000  0.5370580000000  0.5278360000000 1.0
C      1  0.4679300000000  0.5516790000000  0.5474700000000 1.0
C      1  0.5482270000000  0.5293390000000  0.5461430000000 1.0
C      1  0.5179170000000  0.4567680000000  0.5405880000000 1.0
C      1  0.4507170000000  0.4850180000000  0.5441200000000 1.0
C      1  0.5047770000000  0.4646110000000  0.5116240000000 1.0
C      1  0.4577360000000  0.5057000000000  0.5174300000000 1.0
C      1  0.5065050000000  0.5389740000000  0.5137950000000 1.0
C      1  0.5460170000000  0.4907070000000  0.5109260000000 1.0
C      1  0.5287770000000  0.4925690000000  0.5720530000000 1.0
C      1  0.4857880000000  0.4718720000000  0.5738640000000 1.0
C      1  0.4651920000000  0.5152090000000  0.5781530000000 1.0
C      1  0.5080350000000  0.5359310000000  0.5731260000000 1.0
END
