TITL C-1154829-9094-726 0.00219959877361148 125000 -355.089483631767 0 0 60 (C1) n - 1
REM
REM in /home/nfs/bkarasulu/CARBON/AIRSS/Generating-Clusters/AIREBO/Higher-Symm/Only-C60
REM
REM
REM
REM
REM
REM ./C.cell (28575a23ae977d3b5fae324c64b13b57)
REM
REM compiler GCC version 9.2.1 20190827 (Red Hat 9.2.1-1)
REM options -cpp -mtune=generic -march=x86-64 -g -O0 -fpre-include=/usr/include/finclude/math-vector-fortran.h
REM seed 334298199 -1431687443 -978553677 -717238924 -8119112 326587150 2099506001 -878613594 -1911579389 -1010737157 1493274366 -63593417 537252870 131886098 1295830411 1409590526 1074287552 -269534283 841021469 1807971986 -1787167553 -1176779704 760496352 1604953379 1502229401 729725049 -1447615005 -2097338293 -163301900 1716464488 -830450420 948769449 -1202909828
REM
CELL 1.54180   50.00000   50.00000   50.00000   90.00000   90.00000   90.00000
LATT -1
SFAC C  
C      1  0.5388390000000  0.5803220000000  0.5160650000000 1.0
C      1  0.5384470000000  0.5148560000000  0.5769170000000 1.0
C      1  0.5425600000000  0.4332700000000  0.5419580000000 1.0
C      1  0.5314570000000  0.4419670000000  0.4587470000000 1.0
C      1  0.5447500000000  0.5491360000000  0.4331050000000 1.0
C      1  0.4516150000000  0.4190760000000  0.5135390000000 1.0
C      1  0.4550620000000  0.4832950000000  0.5754220000000 1.0
C      1  0.4645300000000  0.5647890000000  0.5402790000000 1.0
C      1  0.4549070000000  0.5593680000000  0.4549710000000 1.0
C      1  0.4472280000000  0.4518940000000  0.4319210000000 1.0
C      1  0.5454560000000  0.4575050000000  0.5557620000000 1.0
C      1  0.5424740000000  0.4265550000000  0.4823250000000 1.0
C      1  0.5494310000000  0.5218940000000  0.4303530000000 1.0
C      1  0.5418010000000  0.5722060000000  0.4892620000000 1.0
C      1  0.5419250000000  0.5373690000000  0.5600810000000 1.0
C      1  0.4582810000000  0.5410520000000  0.5541120000000 1.0
C      1  0.4591170000000  0.5748770000000  0.4810560000000 1.0
C      1  0.4492690000000  0.4788990000000  0.4266790000000 1.0
C      1  0.4522050000000  0.4280660000000  0.4868120000000 1.0
C      1  0.4503340000000  0.4615340000000  0.5577930000000 1.0
C      1  0.4527400000000  0.4392390000000  0.4560590000000 1.0
C      1  0.4660620000000  0.5345700000000  0.4511110000000 1.0
C      1  0.4621530000000  0.5680260000000  0.5125370000000 1.0
C      1  0.4565820000000  0.5098870000000  0.5661820000000 1.0
C      1  0.4511460000000  0.4379740000000  0.5340850000000 1.0
C      1  0.5460730000000  0.5617430000000  0.4580110000000 1.0
C      1  0.5323660000000  0.4681460000000  0.4558720000000 1.0
C      1  0.5425230000000  0.4316040000000  0.5140680000000 1.0
C      1  0.5416580000000  0.4884420000000  0.5676950000000 1.0
C      1  0.5400980000000  0.5611380000000  0.5364950000000 1.0
C      1  0.5659010000000  0.5186520000000  0.5159480000000 1.0
C      1  0.5664750000000  0.4907510000000  0.5196600000000 1.0
C      1  0.5660350000000  0.4781160000000  0.4940470000000 1.0
C      1  0.5676200000000  0.4991350000000  0.4743970000000 1.0
C      1  0.5659540000000  0.5238850000000  0.4883150000000 1.0
C      1  0.4337280000000  0.4844820000000  0.5127010000000 1.0
C      1  0.4401930000000  0.5115170000000  0.5162710000000 1.0
C      1  0.4425990000000  0.5237780000000  0.4913940000000 1.0
C      1  0.4374090000000  0.5042290000000  0.4714490000000 1.0
C      1  0.4351300000000  0.4792770000000  0.4849670000000 1.0
C      1  0.4651180000000  0.5431160000000  0.4900650000000 1.0
C      1  0.4628060000000  0.5153950000000  0.5351120000000 1.0
C      1  0.4543140000000  0.4682990000000  0.5258960000000 1.0
C      1  0.4578700000000  0.4600820000000  0.4801080000000 1.0
C      1  0.4543710000000  0.5034780000000  0.4446000000000 1.0
C      1  0.5433660000000  0.4583570000000  0.4931830000000 1.0
C      1  0.5431880000000  0.4825710000000  0.5358870000000 1.0
C      1  0.5414270000000  0.5303470000000  0.5282570000000 1.0
C      1  0.5421640000000  0.5405230000000  0.4815570000000 1.0
C      1  0.5484630000000  0.4974380000000  0.4496320000000 1.0
C      1  0.5165410000000  0.5193040000000  0.5154870000000 1.0
C      1  0.5180580000000  0.4872950000000  0.5208830000000 1.0
C      1  0.5164650000000  0.4735000000000  0.4931840000000 1.0
C      1  0.5222380000000  0.4973690000000  0.4701940000000 1.0
C      1  0.5169320000000  0.5241910000000  0.4852960000000 1.0
C      1  0.4803430000000  0.4768420000000  0.5141980000000 1.0
C      1  0.4894850000000  0.5043540000000  0.5274760000000 1.0
C      1  0.4894250000000  0.5290710000000  0.4747160000000 1.0
C      1  0.4802360000000  0.5003800000000  0.4642230000000 1.0
C      1  0.4850560000000  0.4755650000000  0.4816210000000 1.0
END
