TITL C-1154816-9297-342 -44.7022564343311 125000 -326.347055035045 0 0 60 (C1) n - 1
REM
REM in /home/nfs/bkarasulu/CARBON/AIRSS/Generating-Clusters/AIREBO/Higher-Symm/Only-C60
REM
REM
REM
REM
REM
REM ./C.cell (28575a23ae977d3b5fae324c64b13b57)
REM
REM compiler GCC version 9.2.1 20190827 (Red Hat 9.2.1-1)
REM options -cpp -mtune=generic -march=x86-64 -g -O0 -fpre-include=/usr/include/finclude/math-vector-fortran.h
REM seed 334602267 -714343963 -2041678595 -2105156237 471497714 -81351384 1594053594 1677407974 -683378900 842888414 430590943 1520643845 -749194637 738892710 765246863 -1235927557 1074363363 639309100 -53108018 -563928329 699092290 -2084136351 -2102703018 -2050828667 -1352145976 339676166 151384935 -1048925548 986227001 1179721110 920143421 -228618968 472934151
REM
CELL 1.54180   50.00000   50.00000   50.00000   90.00000   90.00000   90.00000
LATT -1
SFAC C  
C      1  0.4747490000000  0.5715140000000  0.4876170000000 1.0
C      1  0.4677430000000  0.5310110000000  0.4398440000000 1.0
C      1  0.4708660000000  0.4859980000000  0.4175430000000 1.0
C      1  0.4612390000000  0.4511610000000  0.4877090000000 1.0
C      1  0.4690900000000  0.4545810000000  0.5370350000000 1.0
C      1  0.4708610000000  0.5005450000000  0.5700050000000 1.0
C      1  0.4754690000000  0.5510770000000  0.5407310000000 1.0
C      1  0.5770930000000  0.5331160000000  0.4706230000000 1.0
C      1  0.5629720000000  0.4909310000000  0.4361370000000 1.0
C      1  0.5706490000000  0.4434680000000  0.4689220000000 1.0
C      1  0.5763520000000  0.4442890000000  0.5274550000000 1.0
C      1  0.5736700000000  0.5022490000000  0.5518320000000 1.0
C      1  0.5741930000000  0.5277090000000  0.5498900000000 1.0
C      1  0.5676910000000  0.5616750000000  0.5131590000000 1.0
C      1  0.5195640000000  0.4520990000000  0.5319850000000 1.0
C      1  0.5236230000000  0.4969000000000  0.5512600000000 1.0
C      1  0.5250240000000  0.5453640000000  0.5379420000000 1.0
C      1  0.5243440000000  0.5410630000000  0.4840780000000 1.0
C      1  0.5192450000000  0.5382500000000  0.4343850000000 1.0
C      1  0.5140130000000  0.4921650000000  0.4511690000000 1.0
C      1  0.5135280000000  0.4485000000000  0.4763000000000 1.0
C      1  0.5076980000000  0.4705330000000  0.5577190000000 1.0
C      1  0.5131660000000  0.5250530000000  0.5617990000000 1.0
C      1  0.5166120000000  0.5614130000000  0.5104020000000 1.0
C      1  0.5118830000000  0.5513530000000  0.4572310000000 1.0
C      1  0.5083820000000  0.5124920000000  0.4295490000000 1.0
C      1  0.4995780000000  0.4640930000000  0.4503470000000 1.0
C      1  0.5050510000000  0.4352440000000  0.5066750000000 1.0
C      1  0.4833470000000  0.5268190000000  0.5634630000000 1.0
C      1  0.4872970000000  0.5675000000000  0.5133410000000 1.0
C      1  0.4811210000000  0.5534140000000  0.4622730000000 1.0
C      1  0.4806650000000  0.5123830000000  0.4227790000000 1.0
C      1  0.4799270000000  0.4636240000000  0.4317240000000 1.0
C      1  0.4754040000000  0.4368850000000  0.5109980000000 1.0
C      1  0.4794140000000  0.4747150000000  0.5579470000000 1.0
C      1  0.5597430000000  0.4524310000000  0.4993810000000 1.0
C      1  0.5482220000000  0.4612640000000  0.5282860000000 1.0
C      1  0.5500330000000  0.4906590000000  0.5358950000000 1.0
C      1  0.5541490000000  0.5386420000000  0.5281990000000 1.0
C      1  0.5505820000000  0.5203440000000  0.4776930000000 1.0
C      1  0.5440130000000  0.4915940000000  0.4606850000000 1.0
C      1  0.5427560000000  0.4605680000000  0.4729240000000 1.0
C      1  0.4240770000000  0.4972900000000  0.4809790000000 1.0
C      1  0.4385210000000  0.4686250000000  0.4925530000000 1.0
C      1  0.4212210000000  0.4833280000000  0.5180230000000 1.0
C      1  0.3970150000000  0.4878090000000  0.5270000000000 1.0
C      1  0.3757000000000  0.4999840000000  0.5144340000000 1.0
C      1  0.3776530000000  0.5096410000000  0.4885470000000 1.0
C      1  0.4010320000000  0.5076730000000  0.4740610000000 1.0
C      1  0.4736740000000  0.5220100000000  0.4700150000000 1.0
C      1  0.4952660000000  0.4968740000000  0.4776640000000 1.0
C      1  0.4893550000000  0.4670710000000  0.4888790000000 1.0
C      1  0.4937720000000  0.4709460000000  0.5203210000000 1.0
C      1  0.5003800000000  0.5000000000000  0.5292230000000 1.0
C      1  0.4965050000000  0.5310060000000  0.5262240000000 1.0
C      1  0.4940190000000  0.5325420000000  0.4951420000000 1.0
C      1  0.5458290000000  0.5111070000000  0.5100710000000 1.0
C      1  0.4765550000000  0.5036790000000  0.5052440000000 1.0
C      1  0.5205970000000  0.5019950000000  0.4951440000000 1.0
C      1  0.4484010000000  0.4988100000000  0.5046900000000 1.0
END
