TITL C-1154824-75-41 0.000520790106908866 125000 -287.325949466012 0 0 60 (C1) n - 1
REM
REM in /home/nfs/bkarasulu/CARBON/AIRSS/Generating-Clusters/AIREBO/Higher-Symm/Only-C60
REM
REM
REM
REM
REM
REM ./C.cell (28575a23ae977d3b5fae324c64b13b57)
REM
REM compiler GCC version 9.2.1 20190827 (Red Hat 9.2.1-1)
REM options -cpp -mtune=generic -march=x86-64 -g -O0 -fpre-include=/usr/include/finclude/math-vector-fortran.h
REM seed -613055685 -1561052891 -1692469852 -78717310 -719728936 -1825433011 -564589196 2122318994 -1581635896 -1079075847 -977619123 -1304450290 480329766 1303791611 -290103607 1644351277 548568325 -1579639854 1022991659 -1007849871 -801196446 -822693436 1261508440 723525032 -956081626 1043799173 38511562 2011183485 1405400335 2111007518 167756986 -451674398 1749150030
REM
CELL 1.54180   50.00000   50.00000   50.00000   90.00000   90.00000   90.00000
LATT -1
SFAC C  
C      1  0.4982280000000  0.4552870000000  0.5257430000000 1.0
C      1  0.5238850000000  0.4554650000000  0.5098260000000 1.0
C      1  0.5166560000000  0.4557220000000  0.4804970000000 1.0
C      1  0.4866160000000  0.4553550000000  0.4783970000000 1.0
C      1  0.4751800000000  0.4551970000000  0.5063270000000 1.0
C      1  0.4336050000000  0.4254040000000  0.5282250000000 1.0
C      1  0.5067080000000  0.4258380000000  0.5722240000000 1.0
C      1  0.5705550000000  0.4255830000000  0.5153250000000 1.0
C      1  0.5372150000000  0.4267130000000  0.4376350000000 1.0
C      1  0.4540110000000  0.4245650000000  0.4455510000000 1.0
C      1  0.5542740000000  0.4734260000000  0.4914530000000 1.0
C      1  0.5082930000000  0.4737750000000  0.4460360000000 1.0
C      1  0.4504860000000  0.4717170000000  0.4752540000000 1.0
C      1  0.4607110000000  0.4730230000000  0.5388370000000 1.0
C      1  0.5247190000000  0.4734160000000  0.5492460000000 1.0
C      1  0.4971260000000  0.4982710000000  0.4279760000000 1.0
C      1  0.4284740000000  0.4950310000000  0.4797220000000 1.0
C      1  0.4582630000000  0.4971590000000  0.5601570000000 1.0
C      1  0.5441330000000  0.4978050000000  0.5578740000000 1.0
C      1  0.5685020000000  0.4980720000000  0.4759080000000 1.0
C      1  0.4535200000000  0.4816830000000  0.5076870000000 1.0
C      1  0.4926400000000  0.4818160000000  0.5467930000000 1.0
C      1  0.5424270000000  0.4817470000000  0.5213720000000 1.0
C      1  0.5329040000000  0.4825600000000  0.4666340000000 1.0
C      1  0.4776020000000  0.4816630000000  0.4585440000000 1.0
C      1  0.4620040000000  0.4452750000000  0.4581120000000 1.0
C      1  0.4481310000000  0.4458890000000  0.5237750000000 1.0
C      1  0.5067370000000  0.4462180000000  0.5568940000000 1.0
C      1  0.5560870000000  0.4461110000000  0.5108870000000 1.0
C      1  0.5279670000000  0.4469080000000  0.4501670000000 1.0
C      1  0.5172300000000  0.5287840000000  0.4774380000000 1.0
C      1  0.4837680000000  0.5296490000000  0.4767760000000 1.0
C      1  0.4720580000000  0.5284040000000  0.5084080000000 1.0
C      1  0.4990440000000  0.5284050000000  0.5291430000000 1.0
C      1  0.5267700000000  0.5282470000000  0.5099210000000 1.0
C      1  0.5486680000000  0.5419400000000  0.5466390000000 1.0
C      1  0.5583110000000  0.5429960000000  0.4690980000000 1.0
C      1  0.4872860000000  0.5418100000000  0.4342340000000 1.0
C      1  0.4354070000000  0.5378730000000  0.4823240000000 1.0
C      1  0.4696000000000  0.5418360000000  0.5595970000000 1.0
C      1  0.5790380000000  0.5147210000000  0.5192100000000 1.0
C      1  0.5430240000000  0.5154810000000  0.4309920000000 1.0
C      1  0.4461300000000  0.5153110000000  0.4406200000000 1.0
C      1  0.4235880000000  0.5176040000000  0.5275740000000 1.0
C      1  0.5048460000000  0.5149420000000  0.5816380000000 1.0
C      1  0.4878860000000  0.5136720000000  0.5576940000000 1.0
C      1  0.5511750000000  0.5137810000000  0.5286930000000 1.0
C      1  0.5428970000000  0.5144460000000  0.4603410000000 1.0
C      1  0.4745560000000  0.5138700000000  0.4480670000000 1.0
C      1  0.4415990000000  0.5134280000000  0.5051360000000 1.0
C      1  0.4683990000000  0.5551870000000  0.5290330000000 1.0
C      1  0.5181240000000  0.5537620000000  0.5421240000000 1.0
C      1  0.5430230000000  0.5549010000000  0.4961600000000 1.0
C      1  0.5084530000000  0.5544130000000  0.4566320000000 1.0
C      1  0.4612760000000  0.5550550000000  0.4791660000000 1.0
C      1  0.4634170000000  0.5728200000000  0.5040320000000 1.0
C      1  0.4911950000000  0.5644940000000  0.5504540000000 1.0
C      1  0.5432740000000  0.5652600000000  0.5245300000000 1.0
C      1  0.5349080000000  0.5654770000000  0.4662520000000 1.0
C      1  0.4773910000000  0.5647350000000  0.4549930000000 1.0
END
