TITL C-1154829-9094-700 0.00227271433274697 125000 -328.976020051154 0 0 60 (C1) n - 1
REM
REM in /home/nfs/bkarasulu/CARBON/AIRSS/Generating-Clusters/AIREBO/Higher-Symm/Only-C60
REM
REM
REM
REM
REM
REM ./C.cell (28575a23ae977d3b5fae324c64b13b57)
REM
REM compiler GCC version 9.2.1 20190827 (Red Hat 9.2.1-1)
REM options -cpp -mtune=generic -march=x86-64 -g -O0 -fpre-include=/usr/include/finclude/math-vector-fortran.h
REM seed 123482252 1640663847 291287057 561974788 356442476 -1547778820 -1483565409 -1431163118 -163163208 1800282260 541611250 -1971242032 -1021000069 590798643 1179164018 472094906 -1616800850 -1741388423 1712904916 -1809254230 -1864490580 -380086972 2099977945 1807510330 1094455943 -1465697677 1882515228 -2003719271 -1238449637 -2124268414 800008610 -845326661 -504831472
REM
CELL 1.54180   50.00000   50.00000   50.00000   90.00000   90.00000   90.00000
LATT -1
SFAC C  
C      1  0.4770460000000  0.4626530000000  0.5441750000000 1.0
C      1  0.4799170000000  0.5404980000000  0.4510750000000 1.0
C      1  0.5476550000000  0.4587970000000  0.5041790000000 1.0
C      1  0.5382600000000  0.5471260000000  0.5017510000000 1.0
C      1  0.5497560000000  0.4789980000000  0.4166830000000 1.0
C      1  0.5458230000000  0.5123960000000  0.5809370000000 1.0
C      1  0.4772570000000  0.5187160000000  0.4754310000000 1.0
C      1  0.4878330000000  0.4754630000000  0.5221230000000 1.0
C      1  0.4766500000000  0.4717940000000  0.4970040000000 1.0
C      1  0.4786330000000  0.5260990000000  0.5062910000000 1.0
C      1  0.5078700000000  0.5362410000000  0.5025060000000 1.0
C      1  0.5132710000000  0.4952950000000  0.4986980000000 1.0
C      1  0.4377520000000  0.5176440000000  0.4811270000000 1.0
C      1  0.4388130000000  0.4851070000000  0.5229830000000 1.0
C      1  0.4510880000000  0.5375190000000  0.4634440000000 1.0
C      1  0.4495680000000  0.4643760000000  0.5440040000000 1.0
C      1  0.5928980000000  0.5069790000000  0.4956270000000 1.0
C      1  0.5673050000000  0.5060480000000  0.5008870000000 1.0
C      1  0.4618340000000  0.4875720000000  0.4493460000000 1.0
C      1  0.4710250000000  0.5122940000000  0.5557320000000 1.0
C      1  0.4360700000000  0.3659460000000  0.4694020000000 1.0
C      1  0.4441670000000  0.6236720000000  0.5041140000000 1.0
C      1  0.5263100000000  0.4673320000000  0.5531460000000 1.0
C      1  0.5253160000000  0.5241930000000  0.4420350000000 1.0
C      1  0.4469770000000  0.5114350000000  0.5411550000000 1.0
C      1  0.4424260000000  0.4908680000000  0.4713100000000 1.0
C      1  0.4907710000000  0.4907760000000  0.4764000000000 1.0
C      1  0.4967320000000  0.5059800000000  0.5258380000000 1.0
C      1  0.5173450000000  0.5413100000000  0.5585050000000 1.0
C      1  0.5123730000000  0.4617640000000  0.4500160000000 1.0
C      1  0.4979700000000  0.4446810000000  0.5875980000000 1.0
C      1  0.4994340000000  0.5421950000000  0.4044660000000 1.0
C      1  0.5382140000000  0.5461620000000  0.5415710000000 1.0
C      1  0.5408430000000  0.4618050000000  0.4649230000000 1.0
C      1  0.5651730000000  0.4387790000000  0.4973900000000 1.0
C      1  0.5459870000000  0.5735390000000  0.5061060000000 1.0
C      1  0.4489070000000  0.4758560000000  0.4952850000000 1.0
C      1  0.4475800000000  0.5185180000000  0.5098330000000 1.0
C      1  0.4830330000000  0.4638340000000  0.4571400000000 1.0
C      1  0.4917920000000  0.5337280000000  0.5448630000000 1.0
C      1  0.5421290000000  0.4874440000000  0.5618510000000 1.0
C      1  0.5487660000000  0.5041080000000  0.4289070000000 1.0
C      1  0.5391380000000  0.4584420000000  0.4328210000000 1.0
C      1  0.5251710000000  0.5315370000000  0.5836320000000 1.0
C      1  0.4693570000000  0.4368800000000  0.4583620000000 1.0
C      1  0.4773700000000  0.5591220000000  0.5356730000000 1.0
C      1  0.5587120000000  0.5131180000000  0.5508740000000 1.0
C      1  0.5427370000000  0.5013720000000  0.4600370000000 1.0
C      1  0.4817450000000  0.4922970000000  0.5704610000000 1.0
C      1  0.4742380000000  0.5057200000000  0.4328670000000 1.0
C      1  0.4985830000000  0.5292020000000  0.4291790000000 1.0
C      1  0.4987710000000  0.4633930000000  0.5670460000000 1.0
C      1  0.4543720000000  0.6024800000000  0.5156770000000 1.0
C      1  0.4465280000000  0.3894970000000  0.4646080000000 1.0
C      1  0.5541370000000  0.5241230000000  0.5211420000000 1.0
C      1  0.5484380000000  0.4861260000000  0.4869340000000 1.0
C      1  0.5317570000000  0.4580490000000  0.5272350000000 1.0
C      1  0.5342920000000  0.5389520000000  0.4702310000000 1.0
C      1  0.4669320000000  0.5814430000000  0.5261160000000 1.0
C      1  0.4591460000000  0.4127120000000  0.4612460000000 1.0
END
