TITL C-1154827-9204-415 0.00200424837097169 125000 -344.044895709214 0 0 60 (Ci) n - 1
REM
REM in /home/nfs/bkarasulu/CARBON/AIRSS/Generating-Clusters/AIREBO/Higher-Symm/Only-C60
REM
REM
REM
REM
REM
REM ./C.cell (28575a23ae977d3b5fae324c64b13b57)
REM
REM compiler GCC version 9.2.1 20190827 (Red Hat 9.2.1-1)
REM options -cpp -mtune=generic -march=x86-64 -g -O0 -fpre-include=/usr/include/finclude/math-vector-fortran.h
REM seed 2021976216 837134170 -860973389 -2065159451 972106563 853513976 420824787 565216779 -2052220366 -2086818801 2010212631 -635961196 -1809241899 -1177687849 -1075347130 -2102439155 -1539596997 -1672275345 1219222327 1983963982 579524761 1596569807 -1235981700 -1723458093 -1382091184 277012129 1704518278 1880367111 2016561902 1767675639 -858861704 -1919312009 212969724
REM
CELL 1.54180   50.00000   50.00000   50.00000   90.00000   90.00000   90.00000
LATT -1
SFAC C  
C      1  0.4261050000000  0.5217870000000  0.5040660000000 1.0
C      1  0.5741880000000  0.4786470000000  0.4957560000000 1.0
C      1  0.5099680000000  0.4893940000000  0.5357860000000 1.0
C      1  0.4900240000000  0.5104370000000  0.4641140000000 1.0
C      1  0.4633000000000  0.5059480000000  0.4465560000000 1.0
C      1  0.5367120000000  0.4938430000000  0.5533030000000 1.0
C      1  0.4571690000000  0.5368900000000  0.4446890000000 1.0
C      1  0.5427190000000  0.4628640000000  0.5553170000000 1.0
C      1  0.4605970000000  0.5093320000000  0.5729900000000 1.0
C      1  0.5394870000000  0.4906450000000  0.4269570000000 1.0
C      1  0.4644060000000  0.5648430000000  0.4879040000000 1.0
C      1  0.5351270000000  0.4361420000000  0.5117630000000 1.0
C      1  0.5416970000000  0.4536850000000  0.4633750000000 1.0
C      1  0.4587240000000  0.5461370000000  0.5366740000000 1.0
C      1  0.5046370000000  0.5694720000000  0.5230490000000 1.0
C      1  0.4950260000000  0.4306350000000  0.4770510000000 1.0
C      1  0.4911940000000  0.4731720000000  0.5498930000000 1.0
C      1  0.5088210000000  0.5267320000000  0.4501160000000 1.0
C      1  0.5138120000000  0.5667030000000  0.4767900000000 1.0
C      1  0.4859160000000  0.4333030000000  0.5233450000000 1.0
C      1  0.5381570000000  0.5149950000000  0.5061470000000 1.0
C      1  0.4618050000000  0.4849470000000  0.4937400000000 1.0
C      1  0.5290640000000  0.5830300000000  0.5274980000000 1.0
C      1  0.4706320000000  0.4170230000000  0.4726630000000 1.0
C      1  0.5212450000000  0.4743760000000  0.4809800000000 1.0
C      1  0.4789250000000  0.5253550000000  0.5188890000000 1.0
C      1  0.4369270000000  0.4938020000000  0.5136010000000 1.0
C      1  0.5630560000000  0.5064570000000  0.4862040000000 1.0
C      1  0.5048870000000  0.4284830000000  0.5028230000000 1.0
C      1  0.4948080000000  0.5718050000000  0.4972480000000 1.0
C      1  0.5319690000000  0.4650760000000  0.4363020000000 1.0
C      1  0.4682530000000  0.5348830000000  0.5637480000000 1.0
C      1  0.5137750000000  0.4940030000000  0.5045710000000 1.0
C      1  0.4862870000000  0.5058040000000  0.4952790000000 1.0
C      1  0.4990720000000  0.4460490000000  0.5449110000000 1.0
C      1  0.5007320000000  0.5537650000000  0.4553060000000 1.0
C      1  0.5003340000000  0.4567410000000  0.4646070000000 1.0
C      1  0.4996140000000  0.5432020000000  0.5353770000000 1.0
C      1  0.5457370000000  0.5191660000000  0.5346520000000 1.0
C      1  0.4542870000000  0.4806460000000  0.4652320000000 1.0
C      1  0.5198080000000  0.5236240000000  0.5539020000000 1.0
C      1  0.4802560000000  0.4762060000000  0.4459830000000 1.0
C      1  0.4518560000000  0.4187260000000  0.4931990000000 1.0
C      1  0.5478360000000  0.5813450000000  0.5069590000000 1.0
C      1  0.4454620000000  0.5426200000000  0.5055610000000 1.0
C      1  0.5549780000000  0.4577320000000  0.4944140000000 1.0
C      1  0.5451360000000  0.4249610000000  0.4812460000000 1.0
C      1  0.4557010000000  0.5751090000000  0.5191340000000 1.0
C      1  0.4486430000000  0.4619080000000  0.5138680000000 1.0
C      1  0.5511920000000  0.5382330000000  0.4861400000000 1.0
C      1  0.5410780000000  0.5636580000000  0.4855800000000 1.0
C      1  0.4586390000000  0.4364270000000  0.5145630000000 1.0
C      1  0.4739410000000  0.4857610000000  0.5680160000000 1.0
C      1  0.5260970000000  0.5141980000000  0.4319650000000 1.0
C      1  0.4719330000000  0.5550880000000  0.4589620000000 1.0
C      1  0.5279110000000  0.4445080000000  0.5412070000000 1.0
C      1  0.4593870000000  0.5063590000000  0.5331940000000 1.0
C      1  0.5407020000000  0.4934810000000  0.4667570000000 1.0
C      1  0.5034670000000  0.4583160000000  0.4310020000000 1.0
C      1  0.4967830000000  0.5415200000000  0.5690750000000 1.0
END
