TITL C-1154824-75-468 0.000249473746728536 125000 -327.995176067498 0 0 60 (C1) n - 1
REM
REM in /home/nfs/bkarasulu/CARBON/AIRSS/Generating-Clusters/AIREBO/Higher-Symm/Only-C60
REM
REM
REM
REM
REM
REM ./C.cell (28575a23ae977d3b5fae324c64b13b57)
REM
REM compiler GCC version 9.2.1 20190827 (Red Hat 9.2.1-1)
REM options -cpp -mtune=generic -march=x86-64 -g -O0 -fpre-include=/usr/include/finclude/math-vector-fortran.h
REM seed -956592165 -88825438 -1835437782 -866246421 1292087349 -1411746523 1517801858 -95251582 1231648931 -30115395 -805618962 324370508 -1373950965 2035420945 1169361140 989189766 50377513 2131703809 -535161694 -1236945525 -545116755 -1658180906 -1155369486 271489303 -2088407449 1751410816 1456569530 2058877088 1397353855 1237173477 2050957771 -1425195216 739995705
REM
CELL 1.54180   50.00000   50.00000   50.00000   90.00000   90.00000   90.00000
LATT -1
SFAC C  
C      1  0.5372750000000  0.4615000000000  0.5631230000000 1.0
C      1  0.4286850000000  0.4618430000000  0.5063830000000 1.0
C      1  0.5323110000000  0.4625310000000  0.4386500000000 1.0
C      1  0.4641300000000  0.5374790000000  0.5581070000000 1.0
C      1  0.5735990000000  0.5379870000000  0.5044930000000 1.0
C      1  0.4655420000000  0.5428030000000  0.4385060000000 1.0
C      1  0.5147190000000  0.4910190000000  0.4667130000000 1.0
C      1  0.5212150000000  0.4933040000000  0.5281670000000 1.0
C      1  0.4663750000000  0.4944350000000  0.5041510000000 1.0
C      1  0.4856250000000  0.5091700000000  0.4650420000000 1.0
C      1  0.4804590000000  0.5077170000000  0.5321480000000 1.0
C      1  0.5352590000000  0.5083470000000  0.5010690000000 1.0
C      1  0.5345440000000  0.4524280000000  0.5110040000000 1.0
C      1  0.4761860000000  0.4461600000000  0.5232290000000 1.0
C      1  0.4942490000000  0.4516890000000  0.4662170000000 1.0
C      1  0.4666330000000  0.5494580000000  0.5062040000000 1.0
C      1  0.5240860000000  0.5472510000000  0.5250360000000 1.0
C      1  0.5095860000000  0.5507520000000  0.4629130000000 1.0
C      1  0.5521840000000  0.4793380000000  0.5049710000000 1.0
C      1  0.4730210000000  0.4781530000000  0.5470100000000 1.0
C      1  0.4697660000000  0.4809830000000  0.4545340000000 1.0
C      1  0.4488380000000  0.5225680000000  0.4968810000000 1.0
C      1  0.5276100000000  0.5216230000000  0.5458680000000 1.0
C      1  0.5238700000000  0.5199850000000  0.4512530000000 1.0
C      1  0.4814710000000  0.4753850000000  0.4855340000000 1.0
C      1  0.5141230000000  0.4736100000000  0.4942340000000 1.0
C      1  0.4956470000000  0.4719770000000  0.5227440000000 1.0
C      1  0.5196060000000  0.5263660000000  0.4843860000000 1.0
C      1  0.4872520000000  0.5299890000000  0.4887440000000 1.0
C      1  0.4990700000000  0.5275390000000  0.5186440000000 1.0
C      1  0.5459350000000  0.4868270000000  0.4538840000000 1.0
C      1  0.5226110000000  0.4853620000000  0.5612720000000 1.0
C      1  0.4352100000000  0.4854680000000  0.4950690000000 1.0
C      1  0.4549490000000  0.5179180000000  0.4530450000000 1.0
C      1  0.4813700000000  0.5121370000000  0.5658960000000 1.0
C      1  0.5671720000000  0.5137380000000  0.4915680000000 1.0
C      1  0.4290440000000  0.5104500000000  0.4737610000000 1.0
C      1  0.5526970000000  0.5140940000000  0.4358040000000 1.0
C      1  0.5109040000000  0.5119890000000  0.5714280000000 1.0
C      1  0.5653320000000  0.4865690000000  0.4764920000000 1.0
C      1  0.4390260000000  0.4878420000000  0.4504170000000 1.0
C      1  0.4701980000000  0.4834310000000  0.5795280000000 1.0
C      1  0.5654630000000  0.4873510000000  0.5336460000000 1.0
C      1  0.4431110000000  0.4852630000000  0.5353070000000 1.0
C      1  0.4910880000000  0.4871790000000  0.4309940000000 1.0
C      1  0.4382830000000  0.5110620000000  0.5270900000000 1.0
C      1  0.5594340000000  0.5129620000000  0.5431790000000 1.0
C      1  0.5011080000000  0.5129960000000  0.4283880000000 1.0
C      1  0.4929780000000  0.5409700000000  0.4371570000000 1.0
C      1  0.5574050000000  0.5402160000000  0.5277820000000 1.0
C      1  0.4527040000000  0.5370830000000  0.5335980000000 1.0
C      1  0.5040900000000  0.4619120000000  0.4414840000000 1.0
C      1  0.4488900000000  0.4532850000000  0.5271870000000 1.0
C      1  0.5523950000000  0.4593960000000  0.5391400000000 1.0
C      1  0.4890630000000  0.4245270000000  0.5108620000000 1.0
C      1  0.4998800000000  0.4283740000000  0.4804360000000 1.0
C      1  0.5210010000000  0.4264230000000  0.5047460000000 1.0
C      1  0.5147930000000  0.5727670000000  0.5119220000000 1.0
C      1  0.5071030000000  0.5746320000000  0.4802820000000 1.0
C      1  0.4838230000000  0.5743870000000  0.5026770000000 1.0
END
