TITL C-1154824-75-259 -0.00123760813595977 125000 -347.529804601234 0 0 60 (C1) n - 1
REM
REM in /home/nfs/bkarasulu/CARBON/AIRSS/Generating-Clusters/AIREBO/Higher-Symm/Only-C60
REM
REM
REM
REM
REM
REM ./C.cell (28575a23ae977d3b5fae324c64b13b57)
REM
REM compiler GCC version 9.2.1 20190827 (Red Hat 9.2.1-1)
REM options -cpp -mtune=generic -march=x86-64 -g -O0 -fpre-include=/usr/include/finclude/math-vector-fortran.h
REM seed -1959702443 1868170793 1278795316 -655932758 -1806314887 -735724707 1546668893 1288574943 1048328016 814317661 297719199 -1686171586 2059971857 1093304157 976643383 -550119618 -1803914071 -1379232844 1019430486 3772061 1082128614 940259177 1317449775 1829831061 1383876019 -268266530 1020412953 -902145782 2015344613 1586988838 290225615 -1450383086 -307175775
REM
CELL 1.54180   50.00000   50.00000   50.00000   90.00000   90.00000   90.00000
LATT -1
SFAC C  
C      1  0.5365940000000  0.4574490000000  0.5390980000000 1.0
C      1  0.4724220000000  0.4469460000000  0.5683570000000 1.0
C      1  0.3847620000000  0.5484320000000  0.5442300000000 1.0
C      1  0.4681000000000  0.5521880000000  0.5401650000000 1.0
C      1  0.5187850000000  0.5513340000000  0.5613160000000 1.0
C      1  0.6175290000000  0.4576530000000  0.5416110000000 1.0
C      1  0.4942330000000  0.5590770000000  0.4093970000000 1.0
C      1  0.5304270000000  0.5013440000000  0.4437100000000 1.0
C      1  0.5514050000000  0.4827280000000  0.3974340000000 1.0
C      1  0.5074510000000  0.4447030000000  0.4021810000000 1.0
C      1  0.4705240000000  0.4976800000000  0.4429350000000 1.0
C      1  0.4504630000000  0.5219510000000  0.3989270000000 1.0
C      1  0.5047800000000  0.4708950000000  0.4096250000000 1.0
C      1  0.4818610000000  0.4828820000000  0.4176370000000 1.0
C      1  0.4721390000000  0.5147700000000  0.4144500000000 1.0
C      1  0.4968120000000  0.5321380000000  0.4134240000000 1.0
C      1  0.5196060000000  0.5192120000000  0.4202430000000 1.0
C      1  0.5294190000000  0.4879530000000  0.4132950000000 1.0
C      1  0.4844210000000  0.5648760000000  0.5264340000000 1.0
C      1  0.5399160000000  0.5533370000000  0.5442240000000 1.0
C      1  0.5977050000000  0.4668660000000  0.5284390000000 1.0
C      1  0.5188110000000  0.4392290000000  0.5299780000000 1.0
C      1  0.4538430000000  0.4401350000000  0.5494690000000 1.0
C      1  0.4047320000000  0.5373000000000  0.5328880000000 1.0
C      1  0.4705340000000  0.4928110000000  0.5592560000000 1.0
C      1  0.4763750000000  0.5219540000000  0.5648080000000 1.0
C      1  0.5038570000000  0.5278260000000  0.5658460000000 1.0
C      1  0.5193760000000  0.5046020000000  0.5601270000000 1.0
C      1  0.5121710000000  0.4804860000000  0.5739890000000 1.0
C      1  0.4851850000000  0.4718430000000  0.5713210000000 1.0
C      1  0.4989810000000  0.4454330000000  0.5056600000000 1.0
C      1  0.4488680000000  0.4487670000000  0.5197510000000 1.0
C      1  0.4284240000000  0.5221770000000  0.5216880000000 1.0
C      1  0.5037470000000  0.5521290000000  0.5046610000000 1.0
C      1  0.5526550000000  0.5487180000000  0.5148270000000 1.0
C      1  0.5740250000000  0.4800320000000  0.5146980000000 1.0
C      1  0.4559870000000  0.5227310000000  0.5375890000000 1.0
C      1  0.5263060000000  0.5283770000000  0.5147090000000 1.0
C      1  0.5315590000000  0.5043320000000  0.5349620000000 1.0
C      1  0.5471410000000  0.4819210000000  0.5309020000000 1.0
C      1  0.4739310000000  0.4677180000000  0.5118060000000 1.0
C      1  0.4685960000000  0.4919950000000  0.5294550000000 1.0
C      1  0.4555730000000  0.4256010000000  0.4995940000000 1.0
C      1  0.4228060000000  0.4933310000000  0.5124060000000 1.0
C      1  0.4735940000000  0.5421990000000  0.4953440000000 1.0
C      1  0.5458690000000  0.5715300000000  0.4950120000000 1.0
C      1  0.5804770000000  0.5075700000000  0.5030680000000 1.0
C      1  0.5286160000000  0.4546380000000  0.4944220000000 1.0
C      1  0.5542950000000  0.4587900000000  0.4991710000000 1.0
C      1  0.4801740000000  0.4236090000000  0.4933090000000 1.0
C      1  0.4255350000000  0.4689860000000  0.5150480000000 1.0
C      1  0.4482640000000  0.5399820000000  0.5024630000000 1.0
C      1  0.5211660000000  0.5722560000000  0.4887250000000 1.0
C      1  0.5770540000000  0.5314860000000  0.5083170000000 1.0
C      1  0.4751010000000  0.4984170000000  0.4696840000000 1.0
C      1  0.4875130000000  0.5218640000000  0.4808310000000 1.0
C      1  0.5152040000000  0.5189890000000  0.4855840000000 1.0
C      1  0.5257070000000  0.4975750000000  0.4701600000000 1.0
C      1  0.5132200000000  0.4729820000000  0.4785310000000 1.0
C      1  0.4853750000000  0.4752650000000  0.4828110000000 1.0
END
