TITL C-1154804-8633-17 0.004942895337567 125000 -352.418594593453 0 0 60 (C1) n - 1
REM
REM in /home/nfs/bkarasulu/CARBON/AIRSS/Generating-Clusters/AIREBO/Higher-Symm/Only-C60
REM
REM
REM
REM
REM
REM ./C.cell (28575a23ae977d3b5fae324c64b13b57)
REM
REM compiler GCC version 9.2.1 20190827 (Red Hat 9.2.1-1)
REM options -cpp -mtune=generic -march=x86-64 -g -O0 -fpre-include=/usr/include/finclude/math-vector-fortran.h
REM seed 226239230 -1045880117 1282724420 1482905263 1807453508 -967426627 980944913 -371535065 -162368339 2134975048 872103050 595825990 -1577702023 1283446641 -2035359306 1025715080 1987854821 654192906 -1266074686 1447762844 -2036224956 1087483319 -854592577 -217594874 -407265804 -1216162254 284609110 -1356620920 -1011132236 765256689 529154292 -1633607005 -1306339398
REM
CELL 1.54180   50.00000   50.00000   50.00000   90.00000   90.00000   90.00000
LATT -1
SFAC C  
C      1  0.5251810000000  0.4873600000000  0.4740440000000 1.0
C      1  0.4999610000000  0.5284290000000  0.4708900000000 1.0
C      1  0.4763820000000  0.4863970000000  0.4703170000000 1.0
C      1  0.5254100000000  0.5162000000000  0.4824280000000 1.0
C      1  0.5001300000000  0.4714530000000  0.4815670000000 1.0
C      1  0.4740060000000  0.5150200000000  0.4808750000000 1.0
C      1  0.4422420000000  0.5065860000000  0.5565330000000 1.0
C      1  0.5249660000000  0.4529340000000  0.5722720000000 1.0
C      1  0.5334830000000  0.5467850000000  0.5590790000000 1.0
C      1  0.4394900000000  0.4799920000000  0.5689630000000 1.0
C      1  0.5052600000000  0.5577320000000  0.5536400000000 1.0
C      1  0.5486570000000  0.4640180000000  0.5527180000000 1.0
C      1  0.4987630000000  0.5284620000000  0.5627770000000 1.0
C      1  0.4719970000000  0.4801280000000  0.5589680000000 1.0
C      1  0.5263860000000  0.4853530000000  0.5653140000000 1.0
C      1  0.4979970000000  0.4637290000000  0.5566350000000 1.0
C      1  0.4740510000000  0.5143530000000  0.5543820000000 1.0
C      1  0.5284340000000  0.5132360000000  0.5595750000000 1.0
C      1  0.5332600000000  0.5827800000000  0.4910900000000 1.0
C      1  0.4188560000000  0.4843650000000  0.4925280000000 1.0
C      1  0.5448430000000  0.4289700000000  0.4874920000000 1.0
C      1  0.5164080000000  0.4264990000000  0.4885530000000 1.0
C      1  0.4196070000000  0.5114090000000  0.4890480000000 1.0
C      1  0.5529780000000  0.5639700000000  0.4918180000000 1.0
C      1  0.4770370000000  0.5158640000000  0.5107050000000 1.0
C      1  0.5002170000000  0.4719480000000  0.5118950000000 1.0
C      1  0.5256040000000  0.5145560000000  0.5136490000000 1.0
C      1  0.4768790000000  0.4876320000000  0.5203580000000 1.0
C      1  0.5004600000000  0.5314330000000  0.5173380000000 1.0
C      1  0.5264180000000  0.4850800000000  0.5185990000000 1.0
C      1  0.5451380000000  0.5280240000000  0.5333900000000 1.0
C      1  0.4529480000000  0.5228560000000  0.5288180000000 1.0
C      1  0.4997620000000  0.4468000000000  0.5292560000000 1.0
C      1  0.5482000000000  0.4675650000000  0.5247070000000 1.0
C      1  0.4525580000000  0.4738450000000  0.5317780000000 1.0
C      1  0.5003210000000  0.5588650000000  0.5253030000000 1.0
C      1  0.4522430000000  0.4688820000000  0.4540970000000 1.0
C      1  0.5437490000000  0.4728790000000  0.4563540000000 1.0
C      1  0.5034020000000  0.5577020000000  0.4573870000000 1.0
C      1  0.4513350000000  0.5282840000000  0.4437360000000 1.0
C      1  0.5482360000000  0.5256700000000  0.4482480000000 1.0
C      1  0.5020330000000  0.4447780000000  0.4416060000000 1.0
C      1  0.5050290000000  0.5780910000000  0.5057990000000 1.0
C      1  0.4347400000000  0.4646800000000  0.5127700000000 1.0
C      1  0.5590820000000  0.4534290000000  0.5031950000000 1.0
C      1  0.5041340000000  0.4243810000000  0.5145630000000 1.0
C      1  0.4338420000000  0.5329990000000  0.5073550000000 1.0
C      1  0.5626070000000  0.5405160000000  0.5113530000000 1.0
C      1  0.4452910000000  0.5277340000000  0.4753530000000 1.0
C      1  0.5029820000000  0.4434040000000  0.4700650000000 1.0
C      1  0.5525450000000  0.5333370000000  0.4793960000000 1.0
C      1  0.4434860000000  0.4667470000000  0.4817060000000 1.0
C      1  0.5063340000000  0.5792220000000  0.4732420000000 1.0
C      1  0.5583720000000  0.4533100000000  0.4702260000000 1.0
C      1  0.5272650000000  0.5141360000000  0.4347330000000 1.0
C      1  0.4737860000000  0.5161370000000  0.4319600000000 1.0
C      1  0.5020060000000  0.4712360000000  0.4301700000000 1.0
C      1  0.5263960000000  0.4856820000000  0.4341830000000 1.0
C      1  0.4763610000000  0.4860990000000  0.4373800000000 1.0
C      1  0.5004560000000  0.5300370000000  0.4378220000000 1.0
END
