TITL C-1154821-8623-644 -0.000336723178179723 125000 -353.492718807586 0 0 60 (C1) n - 1
REM
REM in /home/nfs/bkarasulu/CARBON/AIRSS/Generating-Clusters/AIREBO/Higher-Symm/Only-C60
REM
REM
REM
REM
REM
REM ./C.cell (28575a23ae977d3b5fae324c64b13b57)
REM
REM compiler GCC version 9.2.1 20190827 (Red Hat 9.2.1-1)
REM options -cpp -mtune=generic -march=x86-64 -g -O0 -fpre-include=/usr/include/finclude/math-vector-fortran.h
REM seed 1374234865 -924856043 483402283 1120076836 1055468308 -1314511934 -1098403645 -344925805 219883611 1596469975 -1430105390 -2107953750 1632295948 -778661227 -1578807230 946290661 637888923 1350977253 -616158864 1994148796 1133055260 236063714 1462230026 671560396 212266287 -1535048582 -1030564702 -256470079 1178008078 -1720824950 1445224735 -2020566319 -367038167
REM
CELL 1.54180   50.00000   50.00000   50.00000   90.00000   90.00000   90.00000
LATT -1
SFAC C  
C      1  0.5000880000000  0.5185410000000  0.5838820000000 1.0
C      1  0.5018500000000  0.4282400000000  0.4807260000000 1.0
C      1  0.5080700000000  0.5358090000000  0.4597500000000 1.0
C      1  0.5042860000000  0.5260640000000  0.4278930000000 1.0
C      1  0.4982080000000  0.4348010000000  0.5131560000000 1.0
C      1  0.4963970000000  0.5625680000000  0.5520450000000 1.0
C      1  0.5189460000000  0.5687610000000  0.4840840000000 1.0
C      1  0.5259370000000  0.4791660000000  0.5664010000000 1.0
C      1  0.5105270000000  0.4547400000000  0.4432690000000 1.0
C      1  0.5209110000000  0.5714000000000  0.5121190000000 1.0
C      1  0.5165620000000  0.4804450000000  0.4359420000000 1.0
C      1  0.5213610000000  0.4550770000000  0.5530530000000 1.0
C      1  0.5225950000000  0.5492710000000  0.5523630000000 1.0
C      1  0.5294100000000  0.4310350000000  0.5140580000000 1.0
C      1  0.5362420000000  0.5231380000000  0.4274280000000 1.0
C      1  0.5484720000000  0.5451000000000  0.4389530000000 1.0
C      1  0.5407640000000  0.4283170000000  0.4892490000000 1.0
C      1  0.5258420000000  0.5264960000000  0.5680620000000 1.0
C      1  0.4782350000000  0.5204850000000  0.5152590000000 1.0
C      1  0.4874570000000  0.4667840000000  0.5174760000000 1.0
C      1  0.4852850000000  0.5016110000000  0.4713500000000 1.0
C      1  0.4881420000000  0.5296250000000  0.4866510000000 1.0
C      1  0.4983230000000  0.4807260000000  0.4899740000000 1.0
C      1  0.4836510000000  0.4963810000000  0.5339470000000 1.0
C      1  0.4490780000000  0.4723170000000  0.5591450000000 1.0
C      1  0.4583260000000  0.4551340000000  0.4532950000000 1.0
C      1  0.4611530000000  0.5587730000000  0.4823700000000 1.0
C      1  0.4464010000000  0.4798200000000  0.4462660000000 1.0
C      1  0.4625450000000  0.4517190000000  0.5446290000000 1.0
C      1  0.4655150000000  0.5659660000000  0.5127080000000 1.0
C      1  0.4592700000000  0.4488180000000  0.5112170000000 1.0
C      1  0.4581910000000  0.5075400000000  0.4525130000000 1.0
C      1  0.4640270000000  0.5411910000000  0.5282850000000 1.0
C      1  0.4537940000000  0.4434730000000  0.4780880000000 1.0
C      1  0.4617640000000  0.4976500000000  0.5585080000000 1.0
C      1  0.4533350000000  0.5401150000000  0.4603560000000 1.0
C      1  0.4936280000000  0.5762220000000  0.5250470000000 1.0
C      1  0.4933680000000  0.4533010000000  0.5482830000000 1.0
C      1  0.4953740000000  0.4988290000000  0.4410400000000 1.0
C      1  0.4916700000000  0.5633220000000  0.4829770000000 1.0
C      1  0.4830880000000  0.4477270000000  0.4407930000000 1.0
C      1  0.5011630000000  0.4954750000000  0.5632070000000 1.0
C      1  0.5395800000000  0.4976060000000  0.4422250000000 1.0
C      1  0.5348970000000  0.5503320000000  0.5262760000000 1.0
C      1  0.5380300000000  0.4523870000000  0.5301140000000 1.0
C      1  0.5395830000000  0.5037920000000  0.5562340000000 1.0
C      1  0.5370520000000  0.5488350000000  0.4682870000000 1.0
C      1  0.5246080000000  0.4477730000000  0.4689420000000 1.0
C      1  0.4725750000000  0.5454250000000  0.5554030000000 1.0
C      1  0.4695810000000  0.4165200000000  0.5168880000000 1.0
C      1  0.4702980000000  0.5263770000000  0.4269080000000 1.0
C      1  0.4801860000000  0.5506440000000  0.4469690000000 1.0
C      1  0.4728250000000  0.4214990000000  0.4855850000000 1.0
C      1  0.4725850000000  0.5221290000000  0.5715840000000 1.0
C      1  0.5452250000000  0.5021130000000  0.5281120000000 1.0
C      1  0.5294140000000  0.4764830000000  0.4865970000000 1.0
C      1  0.5450590000000  0.5237650000000  0.4849000000000 1.0
C      1  0.5427760000000  0.4994940000000  0.4708710000000 1.0
C      1  0.5422950000000  0.4765880000000  0.5153450000000 1.0
C      1  0.5441760000000  0.5262630000000  0.5129430000000 1.0
END
