TITL C-1154827-9204-120 -0.0181202338757937 125000 -328.722958581588 0 0 60 (S12) n - 1
REM
REM in /home/nfs/bkarasulu/CARBON/AIRSS/Generating-Clusters/AIREBO/Higher-Symm/Only-C60
REM
REM
REM
REM
REM
REM ./C.cell (28575a23ae977d3b5fae324c64b13b57)
REM
REM compiler GCC version 9.2.1 20190827 (Red Hat 9.2.1-1)
REM options -cpp -mtune=generic -march=x86-64 -g -O0 -fpre-include=/usr/include/finclude/math-vector-fortran.h
REM seed -1427075776 -278952807 986306122 -811765220 -837104597 285135166 859337444 -1113883017 2024112258 -851031302 -1771261977 -1312595214 -84941509 1464303043 131905362 -1946356283 1282368985 67257153 -2021650055 2146938207 455493094 -415148757 1838686266 1477637567 26847047 293819314 -266372858 -1945809460 -349089936 843414232 -2009907279 -984247344 920361024
REM
CELL 1.54180   50.00000   50.00000   50.00000   90.00000   90.00000   90.00000
LATT -1
SFAC C  
C      1  0.5416160000000  0.5080430000000  0.4665700000000 1.0
C      1  0.5193160000000  0.4920060000000  0.4502290000000 1.0
C      1  0.4918520000000  0.5080780000000  0.4472510000000 1.0
C      1  0.4665600000000  0.4920190000000  0.4583800000000 1.0
C      1  0.4502390000000  0.5080650000000  0.4806880000000 1.0
C      1  0.4472410000000  0.4919830000000  0.5081440000000 1.0
C      1  0.4583900000000  0.5080160000000  0.5334440000000 1.0
C      1  0.4806780000000  0.4919350000000  0.5497570000000 1.0
C      1  0.5081540000000  0.5079810000000  0.5527630000000 1.0
C      1  0.5334340000000  0.4919220000000  0.5416060000000 1.0
C      1  0.5497670000000  0.5079940000000  0.5193260000000 1.0
C      1  0.5527530000000  0.4919580000000  0.4918420000000 1.0
C      1  0.5292560000000  0.4642870000000  0.4422180000000 1.0
C      1  0.4964860000000  0.5358090000000  0.4353830000000 1.0
C      1  0.4646080000000  0.4643080000000  0.4457460000000 1.0
C      1  0.4422630000000  0.5357990000000  0.4707620000000 1.0
C      1  0.4353380000000  0.4642690000000  0.5034970000000 1.0
C      1  0.4457900000000  0.5357420000000  0.5354100000000 1.0
C      1  0.4707170000000  0.4642090000000  0.5577200000000 1.0
C      1  0.5035410000000  0.5356950000000  0.5646790000000 1.0
C      1  0.5353660000000  0.4641880000000  0.5541930000000 1.0
C      1  0.5577640000000  0.5357050000000  0.5293000000000 1.0
C      1  0.5646350000000  0.4642270000000  0.4964420000000 1.0
C      1  0.5542370000000  0.5357620000000  0.4646520000000 1.0
C      1  0.5069840000000  0.5557800000000  0.4547810000000 1.0
C      1  0.4833750000000  0.4442990000000  0.4572680000000 1.0
C      1  0.4643000000000  0.5557820000000  0.4713840000000 1.0
C      1  0.4547120000000  0.4442790000000  0.4929890000000 1.0
C      1  0.4573370000000  0.5557450000000  0.5166520000000 1.0
C      1  0.4713150000000  0.4442360000000  0.5356730000000 1.0
C      1  0.4930580000000  0.5557070000000  0.5453150000000 1.0
C      1  0.5165830000000  0.4442130000000  0.5426360000000 1.0
C      1  0.5357420000000  0.5557050000000  0.5287120000000 1.0
C      1  0.5452460000000  0.4442330000000  0.5069150000000 1.0
C      1  0.5427050000000  0.5557420000000  0.4834450000000 1.0
C      1  0.5286430000000  0.4442760000000  0.4642310000000 1.0
C      1  0.4792520000000  0.5797630000000  0.5257480000000 1.0
C      1  0.4948150000000  0.4201970000000  0.5325590000000 1.0
C      1  0.5118800000000  0.5797460000000  0.5309030000000 1.0
C      1  0.5256490000000  0.4201950000000  0.5207090000000 1.0
C      1  0.5326580000000  0.5797600000000  0.5052230000000 1.0
C      1  0.5308040000000  0.4202210000000  0.4880810000000 1.0
C      1  0.5208080000000  0.5797920000000  0.4743900000000 1.0
C      1  0.5051250000000  0.4202490000000  0.4673030000000 1.0
C      1  0.4881800000000  0.5798080000000  0.4692350000000 1.0
C      1  0.4742910000000  0.4202500000000  0.4791530000000 1.0
C      1  0.4674020000000  0.5797940000000  0.4949140000000 1.0
C      1  0.4691360000000  0.4202240000000  0.5117810000000 1.0
C      1  0.5322520000000  0.5288740000000  0.4993170000000 1.0
C      1  0.5275570000000  0.4711180000000  0.4832410000000 1.0
C      1  0.5155180000000  0.5289040000000  0.4717490000000 1.0
C      1  0.4992810000000  0.4711420000000  0.4677340000000 1.0
C      1  0.4832770000000  0.5289160000000  0.4724580000000 1.0
C      1  0.4717140000000  0.4711380000000  0.4844680000000 1.0
C      1  0.4677700000000  0.5288970000000  0.5007330000000 1.0
C      1  0.4724220000000  0.4711100000000  0.5167090000000 1.0
C      1  0.4845040000000  0.5288670000000  0.5283010000000 1.0
C      1  0.5006970000000  0.4710860000000  0.5322160000000 1.0
C      1  0.5167450000000  0.5288560000000  0.5275920000000 1.0
C      1  0.5282650000000  0.4710900000000  0.5154820000000 1.0
END
