TITL C-1154830-9999-592 -0.000332012161184714 125000 -305.682305074046 0 0 60 (C1) n - 1
REM
REM in /home/nfs/bkarasulu/CARBON/AIRSS/Generating-Clusters/AIREBO/Higher-Symm/Only-C60
REM
REM
REM
REM
REM
REM ./C.cell (28575a23ae977d3b5fae324c64b13b57)
REM
REM compiler GCC version 9.2.1 20190827 (Red Hat 9.2.1-1)
REM options -cpp -mtune=generic -march=x86-64 -g -O0 -fpre-include=/usr/include/finclude/math-vector-fortran.h
REM seed 83307178 947589381 1267620564 1744293515 -828968851 -503784982 -1651999650 1580197282 -1141838153 1910358302 -927408987 -350208231 1780443740 1376352262 641843236 1358576173 44155619 794134754 1204714068 -134044761 1897530233 1829826822 2104905075 -895444000 998121964 -25547871 -553529424 -1590092128 -1885877790 -47310441 -579989098 1224695992 -625270294
REM
CELL 1.54180   50.00000   50.00000   50.00000   90.00000   90.00000   90.00000
LATT -1
SFAC C  
C      1  0.4676680000000  0.4810690000000  0.5051970000000 1.0
C      1  0.4686130000000  0.5136120000000  0.5103660000000 1.0
C      1  0.4706190000000  0.5035450000000  0.4802390000000 1.0
C      1  0.4541010000000  0.5105110000000  0.4513440000000 1.0
C      1  0.4510700000000  0.4455280000000  0.5148580000000 1.0
C      1  0.4533070000000  0.5438250000000  0.5364870000000 1.0
C      1  0.4785160000000  0.4429430000000  0.4660570000000 1.0
C      1  0.4764000000000  0.5020570000000  0.5641890000000 1.0
C      1  0.4844110000000  0.5543880000000  0.4721290000000 1.0
C      1  0.4392760000000  0.4799830000000  0.4724940000000 1.0
C      1  0.4365630000000  0.4903160000000  0.5285360000000 1.0
C      1  0.4343090000000  0.5318480000000  0.4933080000000 1.0
C      1  0.4795960000000  0.5442490000000  0.5157520000000 1.0
C      1  0.4902930000000  0.4941240000000  0.4546750000000 1.0
C      1  0.4832710000000  0.4625710000000  0.5263910000000 1.0
C      1  0.5270300000000  0.4636620000000  0.5504990000000 1.0
C      1  0.5316050000000  0.5533640000000  0.5103270000000 1.0
C      1  0.5249050000000  0.4774090000000  0.4452350000000 1.0
C      1  0.5409650000000  0.5138320000000  0.4425650000000 1.0
C      1  0.5364030000000  0.4368530000000  0.5087950000000 1.0
C      1  0.5324440000000  0.5299220000000  0.5431100000000 1.0
C      1  0.5155410000000  0.5017970000000  0.4234660000000 1.0
C      1  0.5242600000000  0.4360270000000  0.5386340000000 1.0
C      1  0.5263600000000  0.5630060000000  0.5405350000000 1.0
C      1  0.4673500000000  0.4690990000000  0.4566750000000 1.0
C      1  0.4626690000000  0.4799350000000  0.5471540000000 1.0
C      1  0.4588510000000  0.5552630000000  0.4909630000000 1.0
C      1  0.5003580000000  0.5417540000000  0.5426080000000 1.0
C      1  0.4897600000000  0.5212230000000  0.4341450000000 1.0
C      1  0.5026790000000  0.4394110000000  0.5123400000000 1.0
C      1  0.5734790000000  0.5247790000000  0.4799390000000 1.0
C      1  0.5679490000000  0.4751740000000  0.4966480000000 1.0
C      1  0.5732540000000  0.5068570000000  0.5062640000000 1.0
C      1  0.4316620000000  0.5112360000000  0.4724460000000 1.0
C      1  0.4363640000000  0.4710590000000  0.5023740000000 1.0
C      1  0.4364490000000  0.5208100000000  0.5228890000000 1.0
C      1  0.5328840000000  0.4916700000000  0.5065190000000 1.0
C      1  0.5423080000000  0.4881480000000  0.5347280000000 1.0
C      1  0.5240050000000  0.5199600000000  0.4901630000000 1.0
C      1  0.4329430000000  0.4652430000000  0.4442480000000 1.0
C      1  0.4302090000000  0.4738600000000  0.5556680000000 1.0
C      1  0.4262620000000  0.5648520000000  0.4905840000000 1.0
C      1  0.5170840000000  0.4978310000000  0.3960900000000 1.0
C      1  0.5231260000000  0.4126630000000  0.5572960000000 1.0
C      1  0.5304360000000  0.5899200000000  0.5516750000000 1.0
C      1  0.5284400000000  0.4620150000000  0.4917350000000 1.0
C      1  0.5213120000000  0.5026200000000  0.5567520000000 1.0
C      1  0.5176430000000  0.5131640000000  0.4615340000000 1.0
C      1  0.5052650000000  0.5478990000000  0.4951060000000 1.0
C      1  0.5115930000000  0.4760250000000  0.4740380000000 1.0
C      1  0.5027920000000  0.4820580000000  0.5418000000000 1.0
C      1  0.5596600000000  0.5239660000000  0.5323150000000 1.0
C      1  0.5662910000000  0.5193810000000  0.4530970000000 1.0
C      1  0.5652540000000  0.4486380000000  0.4994330000000 1.0
C      1  0.5521850000000  0.5387660000000  0.4948110000000 1.0
C      1  0.5502630000000  0.4919860000000  0.4772930000000 1.0
C      1  0.5746920000000  0.4943550000000  0.5380720000000 1.0
C      1  0.4835450000000  0.5259970000000  0.5638870000000 1.0
C      1  0.4865520000000  0.5447990000000  0.4469630000000 1.0
C      1  0.4869070000000  0.4311390000000  0.4865560000000 1.0
END
