TITL C-1154823-9327-17 0.372261603729338 125000 -341.93373318412 0 0 60 (C5) n - 1
REM
REM in /home/nfs/bkarasulu/CARBON/AIRSS/Generating-Clusters/AIREBO/Higher-Symm/Only-C60
REM
REM
REM
REM
REM
REM ./C.cell (28575a23ae977d3b5fae324c64b13b57)
REM
REM compiler GCC version 9.2.1 20190827 (Red Hat 9.2.1-1)
REM options -cpp -mtune=generic -march=x86-64 -g -O0 -fpre-include=/usr/include/finclude/math-vector-fortran.h
REM seed 571498800 -1608319225 -1490488166 1776813130 1353946057 1657340788 1550168633 1092860885 -422166605 102635931 -1387209441 -1797238207 -1766410716 -424424892 -145051254 526760269 2109088808 -118412406 -1853079828 -1295798454 1149786202 -1848528347 -266778400 1001558197 874142845 1514042696 1876140096 1369993806 8568443 1692043212 -610484578 483837192 1519244051
REM
CELL 1.54180   50.00000   50.00000   50.00000   90.00000   90.00000   90.00000
LATT -1
SFAC C  
C      1  0.4980980000000  0.5147350000000  0.5517730000000 1.0
C      1  0.4980680000000  0.5537910000000  0.5019860000000 1.0
C      1  0.4980540000000  0.5185100000000  0.4494550000000 1.0
C      1  0.4980750000000  0.4576480000000  0.4667770000000 1.0
C      1  0.4981030000000  0.4553140000000  0.5300130000000 1.0
C      1  0.5055120000000  0.4817950000000  0.5481720000000 1.0
C      1  0.5054980000000  0.4485580000000  0.4975690000000 1.0
C      1  0.5054690000000  0.4864140000000  0.4503220000000 1.0
C      1  0.5054650000000  0.5430470000000  0.4717250000000 1.0
C      1  0.5054920000000  0.5401920000000  0.5322000000000 1.0
C      1  0.4543080000000  0.4543490000000  0.5029410000000 1.0
C      1  0.4543180000000  0.4886640000000  0.5443290000000 1.0
C      1  0.4542980000000  0.5386310000000  0.5244830000000 1.0
C      1  0.4542750000000  0.5351960000000  0.4708290000000 1.0
C      1  0.4542810000000  0.4831070000000  0.4575160000000 1.0
C      1  0.4496780000000  0.5444220000000  0.4960740000000 1.0
C      1  0.4497040000000  0.5174740000000  0.5410610000000 1.0
C      1  0.4497110000000  0.4663610000000  0.5293330000000 1.0
C      1  0.4496890000000  0.4617200000000  0.4770980000000 1.0
C      1  0.4496690000000  0.5099650000000  0.4565430000000 1.0
C      1  0.5719390000000  0.4874390000000  0.4544840000000 1.0
C      1  0.5719660000000  0.4528710000000  0.4978760000000 1.0
C      1  0.5719790000000  0.4834570000000  0.5441600000000 1.0
C      1  0.5719600000000  0.5369280000000  0.5293740000000 1.0
C      1  0.5719360000000  0.5393890000000  0.4739510000000 1.0
C      1  0.5632770000000  0.5156920000000  0.4582050000000 1.0
C      1  0.5632890000000  0.5445830000000  0.5019750000000 1.0
C      1  0.5633140000000  0.5118820000000  0.5429790000000 1.0
C      1  0.5633180000000  0.4627810000000  0.5245490000000 1.0
C      1  0.5632950000000  0.4651350000000  0.4721560000000 1.0
C      1  0.5386230000000  0.5416010000000  0.5331200000000 1.0
C      1  0.5385960000000  0.5443760000000  0.4706670000000 1.0
C      1  0.5386000000000  0.4858370000000  0.4487290000000 1.0
C      1  0.5386300000000  0.4468830000000  0.4976230000000 1.0
C      1  0.5386440000000  0.4813470000000  0.5497790000000 1.0
C      1  0.5301490000000  0.4575280000000  0.5281690000000 1.0
C      1  0.5301230000000  0.4600780000000  0.4682960000000 1.0
C      1  0.5301030000000  0.5178080000000  0.4522190000000 1.0
C      1  0.5301160000000  0.5509380000000  0.5021560000000 1.0
C      1  0.5301450000000  0.5136830000000  0.5490950000000 1.0
C      1  0.4686260000000  0.5906820000000  0.4823890000000 1.0
C      1  0.4686130000000  0.5112560000000  0.4083170000000 1.0
C      1  0.4686570000000  0.4162650000000  0.4609660000000 1.0
C      1  0.4686980000000  0.4369830000000  0.5675770000000 1.0
C      1  0.4686790000000  0.5447790000000  0.5808180000000 1.0
C      1  0.4721560000000  0.4091140000000  0.4851700000000 1.0
C      1  0.4721060000000  0.4860260000000  0.4089940000000 1.0
C      1  0.4721050000000  0.5822400000000  0.4586020000000 1.0
C      1  0.4721550000000  0.5647930000000  0.5654370000000 1.0
C      1  0.4721870000000  0.4577950000000  0.5818570000000 1.0
C      1  0.4699490000000  0.5255740000000  0.4354790000000 1.0
C      1  0.4699760000000  0.4465230000000  0.4557420000000 1.0
C      1  0.4700120000000  0.4413660000000  0.5371860000000 1.0
C      1  0.4700080000000  0.5172300000000  0.5672580000000 1.0
C      1  0.4699690000000  0.5692730000000  0.5044000000000 1.0
C      1  0.4776460000000  0.4737430000000  0.4367030000000 1.0
C      1  0.4776360000000  0.5520910000000  0.4554800000000 1.0
C      1  0.4776690000000  0.5584440000000  0.5357950000000 1.0
C      1  0.4777000000000  0.4840220000000  0.5666560000000 1.0
C      1  0.4776860000000  0.4316740000000  0.5054140000000 1.0
END
