TITL C-1154803-8277-363 0.0264525060716113 125000 -344.578552329929 0 0 60 (C1) n - 1
REM
REM in /home/nfs/bkarasulu/CARBON/AIRSS/Generating-Clusters/AIREBO/Higher-Symm/Only-C60
REM
REM
REM
REM
REM
REM ./C.cell (28575a23ae977d3b5fae324c64b13b57)
REM
REM compiler GCC version 9.2.1 20190827 (Red Hat 9.2.1-1)
REM options -cpp -mtune=generic -march=x86-64 -g -O0 -fpre-include=/usr/include/finclude/math-vector-fortran.h
REM seed 1734880908 28239699 795694775 -1039562289 1521887758 215604042 -545654198 -1457978438 -123542014 -2105474128 1979183327 611669472 -1021891255 -1313677410 1594722478 -1938286996 1975081086 -368470051 -937696502 596943739 81551945 -1300690836 1926183201 -2053781271 -1421669094 1842904248 -673399616 -752980600 1654468029 -1553637224 962340759 -525914391 1959537548
REM
CELL 1.54180   50.00000   50.00000   50.00000   90.00000   90.00000   90.00000
LATT -1
SFAC C  
C      1  0.4817880000000  0.4270560000000  0.5067530000000 1.0
C      1  0.5133560000000  0.5640060000000  0.5086500000000 1.0
C      1  0.5003170000000  0.4355910000000  0.4831080000000 1.0
C      1  0.4903890000000  0.5575070000000  0.4947820000000 1.0
C      1  0.5627420000000  0.5508510000000  0.5129970000000 1.0
C      1  0.5082820000000  0.4416210000000  0.4444760000000 1.0
C      1  0.4522300000000  0.5467610000000  0.4990070000000 1.0
C      1  0.5022970000000  0.4478570000000  0.5486940000000 1.0
C      1  0.4481980000000  0.5521140000000  0.4723380000000 1.0
C      1  0.4801510000000  0.4561030000000  0.5640530000000 1.0
C      1  0.5569920000000  0.5567530000000  0.5405310000000 1.0
C      1  0.5284300000000  0.4604700000000  0.4440570000000 1.0
C      1  0.4814320000000  0.4483910000000  0.4377020000000 1.0
C      1  0.4474840000000  0.5369660000000  0.5275950000000 1.0
C      1  0.5273020000000  0.4594110000000  0.5547970000000 1.0
C      1  0.5690090000000  0.5430570000000  0.4804960000000 1.0
C      1  0.5345440000000  0.5457700000000  0.4995950000000 1.0
C      1  0.4793700000000  0.4615030000000  0.4754150000000 1.0
C      1  0.4802250000000  0.5289060000000  0.5066550000000 1.0
C      1  0.4978610000000  0.4477550000000  0.5209460000000 1.0
C      1  0.4788650000000  0.4783230000000  0.4458680000000 1.0
C      1  0.4440660000000  0.5080490000000  0.5278580000000 1.0
C      1  0.5248510000000  0.4893970000000  0.5562590000000 1.0
C      1  0.5594690000000  0.5134550000000  0.4662000000000 1.0
C      1  0.4909840000000  0.5602760000000  0.4677240000000 1.0
C      1  0.4542230000000  0.4265410000000  0.5009030000000 1.0
C      1  0.5101720000000  0.5721240000000  0.5340840000000 1.0
C      1  0.5259730000000  0.4393160000000  0.4913960000000 1.0
C      1  0.5420800000000  0.5174170000000  0.5626180000000 1.0
C      1  0.5524360000000  0.4825710000000  0.4536290000000 1.0
C      1  0.4429230000000  0.5126400000000  0.4434670000000 1.0
C      1  0.4478910000000  0.4981840000000  0.5545910000000 1.0
C      1  0.4774770000000  0.5477900000000  0.5347970000000 1.0
C      1  0.5467170000000  0.4520620000000  0.5366170000000 1.0
C      1  0.5378650000000  0.5468740000000  0.4670800000000 1.0
C      1  0.4595810000000  0.4351340000000  0.4483530000000 1.0
C      1  0.5459990000000  0.5105800000000  0.4361540000000 1.0
C      1  0.4500890000000  0.4876060000000  0.4533020000000 1.0
C      1  0.4620850000000  0.5184780000000  0.5723540000000 1.0
C      1  0.5495740000000  0.5001410000000  0.5378330000000 1.0
C      1  0.5042130000000  0.5491180000000  0.5557890000000 1.0
C      1  0.5406030000000  0.4632650000000  0.5075780000000 1.0
C      1  0.5108440000000  0.5386400000000  0.4543630000000 1.0
C      1  0.4491240000000  0.4461470000000  0.4777940000000 1.0
C      1  0.5473200000000  0.4938680000000  0.5114270000000 1.0
C      1  0.5176280000000  0.5149850000000  0.4366880000000 1.0
C      1  0.4428160000000  0.4773030000000  0.4785150000000 1.0
C      1  0.4877700000000  0.5229120000000  0.5638220000000 1.0
C      1  0.5087580000000  0.4737910000000  0.5019580000000 1.0
C      1  0.4836540000000  0.5212100000000  0.4650420000000 1.0
C      1  0.4787700000000  0.4941280000000  0.4850310000000 1.0
C      1  0.4937500000000  0.5003820000000  0.5149120000000 1.0
C      1  0.5240960000000  0.4798360000000  0.4722180000000 1.0
C      1  0.4587960000000  0.5326170000000  0.4550550000000 1.0
C      1  0.4728310000000  0.4824570000000  0.5587820000000 1.0
C      1  0.5364380000000  0.5438700000000  0.5564660000000 1.0
C      1  0.5446180000000  0.5148110000000  0.4937480000000 1.0
C      1  0.5049670000000  0.4923050000000  0.4476490000000 1.0
C      1  0.4499280000000  0.4944020000000  0.5031940000000 1.0
C      1  0.4973550000000  0.4985460000000  0.5462350000000 1.0
END
