TITL C-1154825-9328-188 0.000440303935328665 125000 -312.434560800046 0 0 60 (C1) n - 1
REM
REM in /home/nfs/bkarasulu/CARBON/AIRSS/Generating-Clusters/AIREBO/Higher-Symm/Only-C60
REM
REM
REM
REM
REM
REM ./C.cell (28575a23ae977d3b5fae324c64b13b57)
REM
REM compiler GCC version 9.2.1 20190827 (Red Hat 9.2.1-1)
REM options -cpp -mtune=generic -march=x86-64 -g -O0 -fpre-include=/usr/include/finclude/math-vector-fortran.h
REM seed 780037316 -28578669 2130258722 -1395373346 672626409 1808986821 -466608776 -536372441 -1290476235 982690085 2017613951 -1201720094 -882973112 918950885 1980046632 -1322182158 -450174530 -2144266513 -1149048979 2027888709 378677411 -635259122 642880383 731637115 679237219 -26172777 -1548018588 -749048249 528073472 -1818864935 -1714413547 1414679844 1970122907
REM
CELL 1.54180   50.00000   50.00000   50.00000   90.00000   90.00000   90.00000
LATT -1
SFAC C  
C      1  0.5305940000000  0.4687950000000  0.4354510000000 1.0
C      1  0.5448710000000  0.4437920000000  0.5325950000000 1.0
C      1  0.5105730000000  0.5734630000000  0.5380400000000 1.0
C      1  0.5619780000000  0.4277460000000  0.5469930000000 1.0
C      1  0.4923760000000  0.5778180000000  0.5591160000000 1.0
C      1  0.5189000000000  0.4685450000000  0.4096750000000 1.0
C      1  0.4618940000000  0.4954210000000  0.5538850000000 1.0
C      1  0.4541390000000  0.5458200000000  0.4742520000000 1.0
C      1  0.4565450000000  0.4571990000000  0.4649230000000 1.0
C      1  0.4820270000000  0.5789580000000  0.4433070000000 1.0
C      1  0.4586540000000  0.4083550000000  0.4594170000000 1.0
C      1  0.4964760000000  0.5127190000000  0.5920680000000 1.0
C      1  0.5189700000000  0.5429220000000  0.5337840000000 1.0
C      1  0.5247130000000  0.4956290000000  0.4518940000000 1.0
C      1  0.5151970000000  0.4447000000000  0.5181240000000 1.0
C      1  0.5504400000000  0.4464720000000  0.4993770000000 1.0
C      1  0.5404440000000  0.5843640000000  0.5448460000000 1.0
C      1  0.5628070000000  0.4731730000000  0.4337240000000 1.0
C      1  0.5583410000000  0.5633220000000  0.5486300000000 1.0
C      1  0.5697490000000  0.4994500000000  0.4401520000000 1.0
C      1  0.5347010000000  0.4368940000000  0.4751760000000 1.0
C      1  0.4397670000000  0.4667540000000  0.5617140000000 1.0
C      1  0.4242080000000  0.5521280000000  0.4897560000000 1.0
C      1  0.4545450000000  0.4824750000000  0.4439230000000 1.0
C      1  0.5009810000000  0.4674780000000  0.5163360000000 1.0
C      1  0.5036040000000  0.5242560000000  0.5227450000000 1.0
C      1  0.5045110000000  0.4987720000000  0.4690620000000 1.0
C      1  0.5109810000000  0.4765100000000  0.5615350000000 1.0
C      1  0.4855490000000  0.5827830000000  0.4920980000000 1.0
C      1  0.4970490000000  0.4355620000000  0.4479670000000 1.0
C      1  0.4640610000000  0.5187340000000  0.4735740000000 1.0
C      1  0.4583330000000  0.4661190000000  0.4935770000000 1.0
C      1  0.4614470000000  0.5118810000000  0.5312380000000 1.0
C      1  0.5229040000000  0.4448920000000  0.4517280000000 1.0
C      1  0.5287670000000  0.4658700000000  0.5491310000000 1.0
C      1  0.5007360000000  0.5838860000000  0.5110060000000 1.0
C      1  0.4352290000000  0.5737920000000  0.4702320000000 1.0
C      1  0.4297280000000  0.4636770000000  0.4446500000000 1.0
C      1  0.4611910000000  0.4758510000000  0.5810720000000 1.0
C      1  0.4525600000000  0.4495900000000  0.5131550000000 1.0
C      1  0.4566250000000  0.5378430000000  0.5331380000000 1.0
C      1  0.4668760000000  0.5060700000000  0.4498710000000 1.0
C      1  0.5472140000000  0.5132140000000  0.4494520000000 1.0
C      1  0.5156030000000  0.4271910000000  0.4960280000000 1.0
C      1  0.5457180000000  0.5389800000000  0.5432270000000 1.0
C      1  0.4888480000000  0.4926910000000  0.5744260000000 1.0
C      1  0.4716890000000  0.5728580000000  0.4680640000000 1.0
C      1  0.4711800000000  0.4326300000000  0.4570110000000 1.0
C      1  0.6384850000000  0.4944480000000  0.5170790000000 1.0
C      1  0.5330400000000  0.4960270000000  0.5054310000000 1.0
C      1  0.6122600000000  0.4962460000000  0.5127680000000 1.0
C      1  0.3526380000000  0.5076790000000  0.4968270000000 1.0
C      1  0.5593890000000  0.4971110000000  0.5069560000000 1.0
C      1  0.4315420000000  0.5020910000000  0.4988120000000 1.0
C      1  0.4992950000000  0.4981810000000  0.5018180000000 1.0
C      1  0.4051690000000  0.5031570000000  0.4991880000000 1.0
C      1  0.4652990000000  0.4985790000000  0.5009330000000 1.0
C      1  0.5857130000000  0.4973640000000  0.5109810000000 1.0
C      1  0.3786720000000  0.5046580000000  0.4969700000000 1.0
C      1  0.6644750000000  0.4916380000000  0.5189920000000 1.0
END
