TITL C-1154829-9094-565 0.000147092344320954 125000 -333.409086773922 0 0 60 (C1) n - 1
REM
REM in /home/nfs/bkarasulu/CARBON/AIRSS/Generating-Clusters/AIREBO/Higher-Symm/Only-C60
REM
REM
REM
REM
REM
REM ./C.cell (28575a23ae977d3b5fae324c64b13b57)
REM
REM compiler GCC version 9.2.1 20190827 (Red Hat 9.2.1-1)
REM options -cpp -mtune=generic -march=x86-64 -g -O0 -fpre-include=/usr/include/finclude/math-vector-fortran.h
REM seed -1187673271 428606640 -1820761683 1838455251 -1932640967 -72276497 -293995413 -1747849386 -91764964 343059686 1714946304 804063024 2107184595 -2114165144 1565455824 -241762893 1855638704 -1879779138 82027031 -455666990 -1471278731 1273660259 941277536 -1586837790 1661240952 -1276488528 590153129 661929137 -1863942831 -1335883964 -579307024 -1942554622 713382541
REM
CELL 1.54180   50.00000   50.00000   50.00000   90.00000   90.00000   90.00000
LATT -1
SFAC C  
C      1  0.5131200000000  0.5783640000000  0.5515420000000 1.0
C      1  0.5411500000000  0.5408220000000  0.5720750000000 1.0
C      1  0.5358670000000  0.5032260000000  0.4504500000000 1.0
C      1  0.5259630000000  0.4586890000000  0.5151220000000 1.0
C      1  0.4762310000000  0.4869250000000  0.4751130000000 1.0
C      1  0.5607420000000  0.5153910000000  0.4857500000000 1.0
C      1  0.5378530000000  0.5127230000000  0.5672840000000 1.0
C      1  0.5074900000000  0.4749580000000  0.5578900000000 1.0
C      1  0.4935570000000  0.5040460000000  0.4040560000000 1.0
C      1  0.5153460000000  0.5111560000000  0.5419050000000 1.0
C      1  0.5201940000000  0.5563780000000  0.4685110000000 1.0
C      1  0.4291270000000  0.4559670000000  0.4697980000000 1.0
C      1  0.5809500000000  0.4809750000000  0.4557900000000 1.0
C      1  0.4153520000000  0.4467390000000  0.4494980000000 1.0
C      1  0.4557080000000  0.4225690000000  0.5080480000000 1.0
C      1  0.4764250000000  0.5680360000000  0.5167090000000 1.0
C      1  0.5125170000000  0.5037030000000  0.4724060000000 1.0
C      1  0.4062610000000  0.5576100000000  0.4754270000000 1.0
C      1  0.4258310000000  0.5457690000000  0.4867440000000 1.0
C      1  0.5520190000000  0.4764250000000  0.5396050000000 1.0
C      1  0.4427210000000  0.5117420000000  0.4435390000000 1.0
C      1  0.4593570000000  0.4492890000000  0.5075930000000 1.0
C      1  0.4501890000000  0.4975980000000  0.4914010000000 1.0
C      1  0.4457690000000  0.4655320000000  0.4894970000000 1.0
C      1  0.5810230000000  0.4533310000000  0.4619180000000 1.0
C      1  0.4813730000000  0.5685450000000  0.5486990000000 1.0
C      1  0.4608570000000  0.5213700000000  0.5545070000000 1.0
C      1  0.4764670000000  0.4619250000000  0.5253490000000 1.0
C      1  0.4922570000000  0.5475070000000  0.4726240000000 1.0
C      1  0.4215190000000  0.5057820000000  0.5077510000000 1.0
C      1  0.5190490000000  0.4514340000000  0.4859700000000 1.0
C      1  0.5024080000000  0.4577230000000  0.5359270000000 1.0
C      1  0.5515690000000  0.4927830000000  0.5094680000000 1.0
C      1  0.5615350000000  0.5005400000000  0.4597690000000 1.0
C      1  0.4503170000000  0.5312990000000  0.4974840000000 1.0
C      1  0.4476740000000  0.5146910000000  0.5270710000000 1.0
C      1  0.4762220000000  0.5494680000000  0.4964240000000 1.0
C      1  0.4741950000000  0.4624760000000  0.4187650000000 1.0
C      1  0.4800500000000  0.4890180000000  0.4226420000000 1.0
C      1  0.4703480000000  0.4926380000000  0.5287530000000 1.0
C      1  0.4961120000000  0.5495690000000  0.5727900000000 1.0
C      1  0.4690230000000  0.5027600000000  0.4467950000000 1.0
C      1  0.5302950000000  0.5568480000000  0.5503890000000 1.0
C      1  0.4830670000000  0.4961180000000  0.5599820000000 1.0
C      1  0.5463620000000  0.4248450000000  0.4485910000000 1.0
C      1  0.5395460000000  0.5303790000000  0.5042390000000 1.0
C      1  0.4911840000000  0.4942460000000  0.5047660000000 1.0
C      1  0.5051250000000  0.4723190000000  0.4745180000000 1.0
C      1  0.5397560000000  0.4363480000000  0.4743810000000 1.0
C      1  0.5436300000000  0.5442870000000  0.4767360000000 1.0
C      1  0.4580610000000  0.5480410000000  0.5615140000000 1.0
C      1  0.5353310000000  0.4827750000000  0.5613370000000 1.0
C      1  0.5192460000000  0.4904080000000  0.5201780000000 1.0
C      1  0.4896330000000  0.5217420000000  0.4612960000000 1.0
C      1  0.5652560000000  0.4461470000000  0.4853370000000 1.0
C      1  0.4986300000000  0.5233620000000  0.5673960000000 1.0
C      1  0.5075680000000  0.5229010000000  0.5001710000000 1.0
C      1  0.5596210000000  0.4597820000000  0.5109470000000 1.0
C      1  0.5722980000000  0.4343880000000  0.4411700000000 1.0
C      1  0.5236550000000  0.5375720000000  0.5285950000000 1.0
END
