TITL C-1154827-9204-61 0.00203429760298941 125000 -342.083648244736 0 0 60 (C1) n - 1
REM
REM in /home/nfs/bkarasulu/CARBON/AIRSS/Generating-Clusters/AIREBO/Higher-Symm/Only-C60
REM
REM
REM
REM
REM
REM ./C.cell (28575a23ae977d3b5fae324c64b13b57)
REM
REM compiler GCC version 9.2.1 20190827 (Red Hat 9.2.1-1)
REM options -cpp -mtune=generic -march=x86-64 -g -O0 -fpre-include=/usr/include/finclude/math-vector-fortran.h
REM seed 1811342535 -967437474 1587893238 1822526496 1054254429 767234268 -597769605 32337651 -661618691 1467878283 -234286369 -624335581 1446994422 177895918 400806299 596767740 769470339 -279668463 -301010262 -1485997101 365818377 1912671245 542360085 1458041862 -1192759840 -1496219481 -529666083 -941443173 -1435103085 -911592803 -419782452 428823134 109026797
REM
CELL 1.54180   50.00000   50.00000   50.00000   90.00000   90.00000   90.00000
LATT -1
SFAC C  
C      1  0.4723480000000  0.4965280000000  0.5207440000000 1.0
C      1  0.4760430000000  0.4852370000000  0.4732540000000 1.0
C      1  0.4872660000000  0.4753180000000  0.5223510000000 1.0
C      1  0.4999120000000  0.4706690000000  0.4802740000000 1.0
C      1  0.5163020000000  0.4753950000000  0.5157600000000 1.0
C      1  0.5264890000000  0.4855820000000  0.4849410000000 1.0
C      1  0.5288700000000  0.5024270000000  0.5210910000000 1.0
C      1  0.5296740000000  0.5127540000000  0.4733650000000 1.0
C      1  0.5136270000000  0.5233630000000  0.5206100000000 1.0
C      1  0.5037360000000  0.5285940000000  0.4775500000000 1.0
C      1  0.4851930000000  0.5226960000000  0.5123800000000 1.0
C      1  0.4773720000000  0.5136560000000  0.4818300000000 1.0
C      1  0.4702760000000  0.5494650000000  0.5168090000000 1.0
C      1  0.4475300000000  0.5220870000000  0.4724940000000 1.0
C      1  0.4410760000000  0.4994840000000  0.5229920000000 1.0
C      1  0.4459810000000  0.4707220000000  0.4796840000000 1.0
C      1  0.4756680000000  0.4468870000000  0.5271860000000 1.0
C      1  0.4961360000000  0.4393550000000  0.4783560000000 1.0
C      1  0.5292120000000  0.4476420000000  0.5205490000000 1.0
C      1  0.5511570000000  0.4689570000000  0.4758330000000 1.0
C      1  0.5600540000000  0.4980770000000  0.5237160000000 1.0
C      1  0.5580000000000  0.5286270000000  0.4808830000000 1.0
C      1  0.5257440000000  0.5516320000000  0.5243750000000 1.0
C      1  0.5025220000000  0.5601010000000  0.4759000000000 1.0
C      1  0.4655030000000  0.5241180000000  0.5609960000000 1.0
C      1  0.4668890000000  0.4742070000000  0.4433160000000 1.0
C      1  0.4593450000000  0.4761150000000  0.5645590000000 1.0
C      1  0.5176300000000  0.4586740000000  0.4378130000000 1.0
C      1  0.5056000000000  0.4595970000000  0.5654070000000 1.0
C      1  0.5428610000000  0.4999570000000  0.4378690000000 1.0
C      1  0.5348020000000  0.4755620000000  0.5629470000000 1.0
C      1  0.5251500000000  0.5287020000000  0.4436560000000 1.0
C      1  0.5404840000000  0.5237710000000  0.5636100000000 1.0
C      1  0.4794380000000  0.5394510000000  0.4340830000000 1.0
C      1  0.4944800000000  0.5406530000000  0.5622020000000 1.0
C      1  0.4626850000000  0.5102250000000  0.4374450000000 1.0
C      1  0.4755200000000  0.5669650000000  0.4884340000000 1.0
C      1  0.4470050000000  0.5496070000000  0.4924720000000 1.0
C      1  0.4318880000000  0.5212100000000  0.5034980000000 1.0
C      1  0.4314640000000  0.4739730000000  0.5096640000000 1.0
C      1  0.4483230000000  0.4471070000000  0.5027840000000 1.0
C      1  0.4747200000000  0.4305500000000  0.4982670000000 1.0
C      1  0.5228390000000  0.4305420000000  0.4918570000000 1.0
C      1  0.5532920000000  0.4443290000000  0.4976890000000 1.0
C      1  0.5677310000000  0.4741650000000  0.5052670000000 1.0
C      1  0.5701900000000  0.5239940000000  0.5112350000000 1.0
C      1  0.5523420000000  0.5516040000000  0.5042040000000 1.0
C      1  0.5251220000000  0.5687220000000  0.4949920000000 1.0
C      1  0.4409860000000  0.4924860000000  0.4559020000000 1.0
C      1  0.4511930000000  0.5012630000000  0.5542410000000 1.0
C      1  0.4919500000000  0.4514410000000  0.4466380000000 1.0
C      1  0.4789730000000  0.4571620000000  0.5569300000000 1.0
C      1  0.5403110000000  0.4740160000000  0.4462980000000 1.0
C      1  0.5306480000000  0.4465350000000  0.5500390000000 1.0
C      1  0.5585440000000  0.5256090000000  0.4492620000000 1.0
C      1  0.5491550000000  0.4980270000000  0.5551510000000 1.0
C      1  0.5032500000000  0.5490820000000  0.4436650000000 1.0
C      1  0.5212990000000  0.5427020000000  0.5546940000000 1.0
C      1  0.4491220000000  0.5404180000000  0.4439020000000 1.0
C      1  0.4690770000000  0.5522070000000  0.5460840000000 1.0
END
