TITL C-1154804-8633-37 -0.000931810276105397 125000 -316.126592881798 0 0 60 (C2) n - 1
REM
REM in /home/nfs/bkarasulu/CARBON/AIRSS/Generating-Clusters/AIREBO/Higher-Symm/Only-C60
REM
REM
REM
REM
REM
REM ./C.cell (28575a23ae977d3b5fae324c64b13b57)
REM
REM compiler GCC version 9.2.1 20190827 (Red Hat 9.2.1-1)
REM options -cpp -mtune=generic -march=x86-64 -g -O0 -fpre-include=/usr/include/finclude/math-vector-fortran.h
REM seed 1493808816 695112312 -1842311087 -1242386681 1187418263 1553224575 357505079 629136023 -739037959 -54819018 -676882303 328640547 -69954125 230042553 1534210872 -1112947424 -265627980 -340787722 1786363166 -2104871579 -1513008516 2071013472 -247712635 561537181 -1285187609 14827431 -1202247230 -1596375072 -1393856303 1587022327 529416454 696282930 1811952776
REM
CELL 1.54180   50.00000   50.00000   50.00000   90.00000   90.00000   90.00000
LATT -1
SFAC C  
C      1  0.5052790000000  0.4182380000000  0.5118380000000 1.0
C      1  0.4947150000000  0.5817960000000  0.5117630000000 1.0
C      1  0.5125710000000  0.4118140000000  0.4842400000000 1.0
C      1  0.4874780000000  0.5881680000000  0.4841350000000 1.0
C      1  0.5472230000000  0.4562390000000  0.5131800000000 1.0
C      1  0.4527760000000  0.5438220000000  0.5131700000000 1.0
C      1  0.5579670000000  0.4504630000000  0.4876060000000 1.0
C      1  0.4420470000000  0.5495620000000  0.4875830000000 1.0
C      1  0.5340050000000  0.4961530000000  0.4840510000000 1.0
C      1  0.4659750000000  0.5038290000000  0.4841020000000 1.0
C      1  0.5303730000000  0.5084570000000  0.5132110000000 1.0
C      1  0.4695570000000  0.4915990000000  0.5132980000000 1.0
C      1  0.4544820000000  0.4548360000000  0.4725150000000 1.0
C      1  0.5455800000000  0.5450990000000  0.4725470000000 1.0
C      1  0.4783790000000  0.4637410000000  0.5211390000000 1.0
C      1  0.5215850000000  0.5363150000000  0.5210490000000 1.0
C      1  0.4805160000000  0.5242220000000  0.5148900000000 1.0
C      1  0.5194680000000  0.4758180000000  0.5148760000000 1.0
C      1  0.4872970000000  0.5292380000000  0.4819440000000 1.0
C      1  0.5127060000000  0.4707240000000  0.4819380000000 1.0
C      1  0.4717930000000  0.4650100000000  0.4517440000000 1.0
C      1  0.5282630000000  0.5349420000000  0.4517530000000 1.0
C      1  0.4800220000000  0.4633180000000  0.5532900000000 1.0
C      1  0.5200120000000  0.5367510000000  0.5532120000000 1.0
C      1  0.5408570000000  0.4788800000000  0.4487120000000 1.0
C      1  0.4591450000000  0.5210740000000  0.4487440000000 1.0
C      1  0.5419970000000  0.4832030000000  0.5548690000000 1.0
C      1  0.4580200000000  0.5168290000000  0.5548150000000 1.0
C      1  0.5431220000000  0.4536810000000  0.4626290000000 1.0
C      1  0.4568960000000  0.5462910000000  0.4626200000000 1.0
C      1  0.5375110000000  0.4560590000000  0.5444610000000 1.0
C      1  0.4624920000000  0.5440120000000  0.5444650000000 1.0
C      1  0.5113730000000  0.5779840000000  0.5417910000000 1.0
C      1  0.4886200000000  0.4220910000000  0.5418580000000 1.0
C      1  0.5127610000000  0.5780440000000  0.4671720000000 1.0
C      1  0.4872960000000  0.4218860000000  0.4672420000000 1.0
C      1  0.4375480000000  0.4757820000000  0.4835260000000 1.0
C      1  0.5625230000000  0.5241060000000  0.4835910000000 1.0
C      1  0.4307430000000  0.4831820000000  0.5109860000000 1.0
C      1  0.5692930000000  0.5165050000000  0.5110340000000 1.0
C      1  0.4857540000000  0.5095770000000  0.4317240000000 1.0
C      1  0.5142500000000  0.4903940000000  0.4317200000000 1.0
C      1  0.4832660000000  0.5037450000000  0.5719000000000 1.0
C      1  0.5166680000000  0.4962840000000  0.5719500000000 1.0
C      1  0.4924740000000  0.5526760000000  0.5291760000000 1.0
C      1  0.5075130000000  0.4473850000000  0.5292070000000 1.0
C      1  0.4843100000000  0.5597770000000  0.4672820000000 1.0
C      1  0.5157270000000  0.4401690000000  0.4673170000000 1.0
C      1  0.4657130000000  0.4315190000000  0.4831460000000 1.0
C      1  0.5343410000000  0.5684550000000  0.4831200000000 1.0
C      1  0.4745970000000  0.4328890000000  0.5119870000000 1.0
C      1  0.5253960000000  0.5671430000000  0.5119400000000 1.0
C      1  0.4431520000000  0.4994880000000  0.4641010000000 1.0
C      1  0.5568380000000  0.5004770000000  0.4640610000000 1.0
C      1  0.4459270000000  0.5000920000000  0.5339740000000 1.0
C      1  0.5537620000000  0.5001130000000  0.5339900000000 1.0
C      1  0.4965780000000  0.4833250000000  0.4591400000000 1.0
C      1  0.5034400000000  0.5166510000000  0.4591390000000 1.0
C      1  0.5037330000000  0.4844060000000  0.5437710000000 1.0
C      1  0.4962970000000  0.5156680000000  0.5437700000000 1.0
END
