TITL C-1154824-75-54 -0.00104047752065731 125000 -319.868324000274 0 0 60 (C1) n - 1
REM
REM in /home/nfs/bkarasulu/CARBON/AIRSS/Generating-Clusters/AIREBO/Higher-Symm/Only-C60
REM
REM
REM
REM
REM
REM ./C.cell (28575a23ae977d3b5fae324c64b13b57)
REM
REM compiler GCC version 9.2.1 20190827 (Red Hat 9.2.1-1)
REM options -cpp -mtune=generic -march=x86-64 -g -O0 -fpre-include=/usr/include/finclude/math-vector-fortran.h
REM seed 247295139 -2038143572 -657596170 1555816832 -1942600667 -1431511213 -781097383 1266282687 -1701039724 -523600254 357003085 358509949 1270052252 -215307401 210477268 -850983710 1298048824 207318781 -1622778325 -649018076 -523596480 20612903 -779216798 1845618383 -1378644420 -635328891 -1071657967 -1051740400 335008941 907855571 -2144588809 1229274203 -1658301908
REM
CELL 1.54180   50.00000   50.00000   50.00000   90.00000   90.00000   90.00000
LATT -1
SFAC C  
C      1  0.4899550000000  0.5623660000000  0.4520920000000 1.0
C      1  0.4310580000000  0.4825140000000  0.4531640000000 1.0
C      1  0.5158950000000  0.4312790000000  0.4548020000000 1.0
C      1  0.5690540000000  0.5166320000000  0.4547710000000 1.0
C      1  0.4858480000000  0.4361730000000  0.4536400000000 1.0
C      1  0.4373820000000  0.5128200000000  0.4516080000000 1.0
C      1  0.5195640000000  0.5684040000000  0.4499310000000 1.0
C      1  0.5609930000000  0.4873500000000  0.4507760000000 1.0
C      1  0.4627950000000  0.4809710000000  0.5415360000000 1.0
C      1  0.5165950000000  0.4560530000000  0.5506700000000 1.0
C      1  0.5411590000000  0.5143040000000  0.5491860000000 1.0
C      1  0.4827410000000  0.5373280000000  0.5438660000000 1.0
C      1  0.4597140000000  0.5133770000000  0.5489990000000 1.0
C      1  0.5169640000000  0.5379280000000  0.5440340000000 1.0
C      1  0.5374620000000  0.4811690000000  0.5425210000000 1.0
C      1  0.4828680000000  0.4557590000000  0.5491120000000 1.0
C      1  0.5154050000000  0.5565120000000  0.4877850000000 1.0
C      1  0.4452750000000  0.5152330000000  0.4905360000000 1.0
C      1  0.4847260000000  0.4458280000000  0.4921580000000 1.0
C      1  0.5526870000000  0.4858320000000  0.4895740000000 1.0
C      1  0.5184820000000  0.4405460000000  0.4935020000000 1.0
C      1  0.4381520000000  0.4815980000000  0.4922970000000 1.0
C      1  0.4819260000000  0.5591250000000  0.4908780000000 1.0
C      1  0.5585920000000  0.5191270000000  0.4932430000000 1.0
C      1  0.5614360000000  0.4598450000000  0.4690570000000 1.0
C      1  0.5442480000000  0.5648930000000  0.4711040000000 1.0
C      1  0.4379700000000  0.5410580000000  0.4687310000000 1.0
C      1  0.4581930000000  0.4359310000000  0.4725280000000 1.0
C      1  0.5636060000000  0.5446160000000  0.4711340000000 1.0
C      1  0.5437030000000  0.4382070000000  0.4703350000000 1.0
C      1  0.4368690000000  0.4546330000000  0.4709700000000 1.0
C      1  0.4588800000000  0.5606710000000  0.4658490000000 1.0
C      1  0.5300050000000  0.4837210000000  0.4643250000000 1.0
C      1  0.5188730000000  0.5361570000000  0.4607490000000 1.0
C      1  0.4682870000000  0.5156910000000  0.4654970000000 1.0
C      1  0.4814190000000  0.4674800000000  0.4661440000000 1.0
C      1  0.5373770000000  0.5149010000000  0.4670070000000 1.0
C      1  0.5120780000000  0.4622920000000  0.4682800000000 1.0
C      1  0.4611690000000  0.4859990000000  0.4686160000000 1.0
C      1  0.4883120000000  0.5340310000000  0.4688420000000 1.0
C      1  0.5555910000000  0.4700990000000  0.5169720000000 1.0
C      1  0.5277740000000  0.5556540000000  0.5171010000000 1.0
C      1  0.4511200000000  0.5299410000000  0.5205510000000 1.0
C      1  0.4663010000000  0.4473150000000  0.5206290000000 1.0
C      1  0.5491440000000  0.5320440000000  0.5212980000000 1.0
C      1  0.5327370000000  0.4473480000000  0.5220390000000 1.0
C      1  0.4409550000000  0.4693400000000  0.5203310000000 1.0
C      1  0.4705860000000  0.5562230000000  0.5183460000000 1.0
C      1  0.5786310000000  0.4886750000000  0.5293170000000 1.0
C      1  0.5121830000000  0.5768040000000  0.5360730000000 1.0
C      1  0.4236710000000  0.5147110000000  0.5318810000000 1.0
C      1  0.4869250000000  0.4219470000000  0.5242920000000 1.0
C      1  0.5758500000000  0.5136900000000  0.5289000000000 1.0
C      1  0.5116780000000  0.4217730000000  0.5279890000000 1.0
C      1  0.4210890000000  0.4897980000000  0.5353490000000 1.0
C      1  0.4868360000000  0.5765540000000  0.5375150000000 1.0
C      1  0.4804270000000  0.5029360000000  0.5238610000000 1.0
C      1  0.5003320000000  0.4767350000000  0.5288090000000 1.0
C      1  0.5002630000000  0.5267340000000  0.5168830000000 1.0
C      1  0.5201930000000  0.5033260000000  0.5244700000000 1.0
END
