TITL C-1154801-8518-625 -9.26302287510556 125000 -315.758985710811 0 0 60 (C1) n - 1
REM
REM in /home/nfs/bkarasulu/CARBON/AIRSS/Generating-Clusters/AIREBO/Higher-Symm/Only-C60
REM
REM
REM
REM
REM
REM ./C.cell (28575a23ae977d3b5fae324c64b13b57)
REM
REM compiler GCC version 9.2.1 20190827 (Red Hat 9.2.1-1)
REM options -cpp -mtune=generic -march=x86-64 -g -O0 -fpre-include=/usr/include/finclude/math-vector-fortran.h
REM seed -1547652556 1040762759 -1622934492 -2129912908 -669372657 -1369445417 494272986 -1795604837 190288220 -16636237 2127014849 -610264334 -1785512426 1932087554 -1933110154 -1011817882 -1393466382 1838272183 -1170379201 -69023630 -1344986407 620743020 -1329612563 -912923482 140369950 1079110097 -1268207270 -977010335 1579768680 449861123 -1518985708 909555275 1650633579
REM
CELL 1.54180   50.00000   50.00000   50.00000   90.00000   90.00000   90.00000
LATT -1
SFAC C  
C      1  0.5520040000000  0.4546180000000  0.4764910000000 1.0
C      1  0.5536290000000  0.5038070000000  0.5550100000000 1.0
C      1  0.5521940000000  0.5473270000000  0.4654690000000 1.0
C      1  0.4447020000000  0.4540360000000  0.5169920000000 1.0
C      1  0.4489920000000  0.5041370000000  0.4437480000000 1.0
C      1  0.4472800000000  0.5482320000000  0.5345220000000 1.0
C      1  0.4572510000000  0.5743730000000  0.5236480000000 1.0
C      1  0.4544210000000  0.4781510000000  0.4291860000000 1.0
C      1  0.4463370000000  0.4492280000000  0.5467330000000 1.0
C      1  0.5487160000000  0.5727730000000  0.4803440000000 1.0
C      1  0.5499850000000  0.4763300000000  0.5654630000000 1.0
C      1  0.5510250000000  0.4505330000000  0.4470020000000 1.0
C      1  0.4744420000000  0.4400000000000  0.5083440000000 1.0
C      1  0.4792250000000  0.5373660000000  0.5498530000000 1.0
C      1  0.4792990000000  0.5194420000000  0.4413810000000 1.0
C      1  0.5221010000000  0.4428010000000  0.4876640000000 1.0
C      1  0.5232280000000  0.5446990000000  0.4506820000000 1.0
C      1  0.5248010000000  0.5199680000000  0.5630720000000 1.0
C      1  0.4345350000000  0.5290380000000  0.5188840000000 1.0
C      1  0.4327880000000  0.5091590000000  0.4647480000000 1.0
C      1  0.4306580000000  0.4739710000000  0.5060430000000 1.0
C      1  0.5635390000000  0.5266340000000  0.4795580000000 1.0
C      1  0.5689340000000  0.5073160000000  0.5312080000000 1.0
C      1  0.5693360000000  0.4716040000000  0.4882250000000 1.0
C      1  0.4990110000000  0.4413810000000  0.4322930000000 1.0
C      1  0.4986970000000  0.4715140000000  0.5800560000000 1.0
C      1  0.4977380000000  0.5841300000000  0.4849420000000 1.0
C      1  0.4823200000000  0.4551080000000  0.5697990000000 1.0
C      1  0.4802720000000  0.4600230000000  0.4266710000000 1.0
C      1  0.4820410000000  0.5818300000000  0.5063710000000 1.0
C      1  0.4690800000000  0.5075920000000  0.5438610000000 1.0
C      1  0.4693770000000  0.5236730000000  0.4718480000000 1.0
C      1  0.4683310000000  0.4661020000000  0.4874240000000 1.0
C      1  0.5161620000000  0.5139800000000  0.4558740000000 1.0
C      1  0.5226150000000  0.5149820000000  0.5327100000000 1.0
C      1  0.5311900000000  0.4682990000000  0.5073690000000 1.0
C      1  0.4847880000000  0.4868690000000  0.4450650000000 1.0
C      1  0.4788320000000  0.4557180000000  0.5374640000000 1.0
C      1  0.4849260000000  0.5526720000000  0.5225430000000 1.0
C      1  0.5179700000000  0.4865420000000  0.5602820000000 1.0
C      1  0.5186390000000  0.4503910000000  0.4551010000000 1.0
C      1  0.5171220000000  0.5596880000000  0.4801430000000 1.0
C      1  0.4991150000000  0.4828360000000  0.5343710000000 1.0
C      1  0.5000190000000  0.5367510000000  0.4969650000000 1.0
C      1  0.5025700000000  0.4749130000000  0.4690340000000 1.0
C      1  0.5012030000000  0.5378860000000  0.5701520000000 1.0
C      1  0.4982960000000  0.5397470000000  0.4314180000000 1.0
C      1  0.4995720000000  0.4258170000000  0.4986420000000 1.0
C      1  0.4960760000000  0.5522280000000  0.4085810000000 1.0
C      1  0.4994000000000  0.5506150000000  0.5931470000000 1.0
C      1  0.5017910000000  0.3997540000000  0.5002170000000 1.0
C      1  0.4930870000000  0.5135550000000  0.5210800000000 1.0
C      1  0.5032580000000  0.5057890000000  0.4832770000000 1.0
C      1  0.4982270000000  0.4711280000000  0.5025710000000 1.0
C      1  0.4545590000000  0.5043070000000  0.5163990000000 1.0
C      1  0.5505720000000  0.5178800000000  0.5068230000000 1.0
C      1  0.5766550000000  0.5005170000000  0.4978530000000 1.0
C      1  0.4287590000000  0.5048950000000  0.4952590000000 1.0
C      1  0.4711330000000  0.4980050000000  0.4912720000000 1.0
C      1  0.5264250000000  0.4991000000000  0.5044430000000 1.0
END
