TITL C-1154804-8633-674 -1.76810229815952e-06 125000 -315.407197918082 0 0 60 (C1) n - 1
REM
REM in /home/nfs/bkarasulu/CARBON/AIRSS/Generating-Clusters/AIREBO/Higher-Symm/Only-C60
REM
REM
REM
REM
REM
REM ./C.cell (28575a23ae977d3b5fae324c64b13b57)
REM
REM compiler GCC version 9.2.1 20190827 (Red Hat 9.2.1-1)
REM options -cpp -mtune=generic -march=x86-64 -g -O0 -fpre-include=/usr/include/finclude/math-vector-fortran.h
REM seed 1846213025 1941000993 881261083 579177306 138213536 -1025777625 33538120 -164154002 -247511684 -1606251252 415686620 -995772757 376700179 -915975368 -925845245 686903557 1284619531 2074722997 198214831 -1718874357 -75949067 -95226098 -171016066 768868571 272424877 -1351328817 1962601020 -1092117255 1081273997 -2084806771 1956149719 -1915917924 -1138884911
REM
CELL 1.54180   50.00000   50.00000   50.00000   90.00000   90.00000   90.00000
LATT -1
SFAC C  
C      1  0.5455440000000  0.5431350000000  0.5293600000000 1.0
C      1  0.4331890000000  0.4781210000000  0.5203100000000 1.0
C      1  0.5045470000000  0.4253930000000  0.4469880000000 1.0
C      1  0.4813280000000  0.4863460000000  0.4123070000000 1.0
C      1  0.5487400000000  0.4655420000000  0.4931950000000 1.0
C      1  0.4871660000000  0.4284380000000  0.4917810000000 1.0
C      1  0.5078370000000  0.5128140000000  0.5601830000000 1.0
C      1  0.5215060000000  0.5666130000000  0.5078250000000 1.0
C      1  0.4340570000000  0.4859980000000  0.4747500000000 1.0
C      1  0.4656260000000  0.4886360000000  0.4812340000000 1.0
C      1  0.5582520000000  0.4854020000000  0.4581040000000 1.0
C      1  0.4802520000000  0.5073570000000  0.4640330000000 1.0
C      1  0.5393470000000  0.5230110000000  0.4283670000000 1.0
C      1  0.4641820000000  0.5450380000000  0.5571190000000 1.0
C      1  0.4464780000000  0.5072330000000  0.5213510000000 1.0
C      1  0.4610410000000  0.5127440000000  0.5473720000000 1.0
C      1  0.4736280000000  0.5652790000000  0.5027600000000 1.0
C      1  0.4698780000000  0.4442480000000  0.5039740000000 1.0
C      1  0.4677860000000  0.4622810000000  0.5319860000000 1.0
C      1  0.5441810000000  0.4815890000000  0.5512600000000 1.0
C      1  0.5037310000000  0.4479790000000  0.4319040000000 1.0
C      1  0.5163050000000  0.5226020000000  0.4701870000000 1.0
C      1  0.5094970000000  0.4256300000000  0.4745470000000 1.0
C      1  0.4449790000000  0.4627260000000  0.4958560000000 1.0
C      1  0.5326210000000  0.4970050000000  0.5712490000000 1.0
C      1  0.4787970000000  0.5198960000000  0.5754710000000 1.0
C      1  0.4878570000000  0.5318450000000  0.4863630000000 1.0
C      1  0.4750650000000  0.5611620000000  0.5298580000000 1.0
C      1  0.4973910000000  0.5710880000000  0.4889130000000 1.0
C      1  0.4421870000000  0.5588310000000  0.4664390000000 1.0
C      1  0.4856670000000  0.4594340000000  0.5676380000000 1.0
C      1  0.5191530000000  0.4763660000000  0.4803910000000 1.0
C      1  0.5000300000000  0.5619760000000  0.4630710000000 1.0
C      1  0.4870600000000  0.5358690000000  0.4467850000000 1.0
C      1  0.5039670000000  0.5396470000000  0.5126610000000 1.0
C      1  0.5273100000000  0.5160210000000  0.5199500000000 1.0
C      1  0.4785060000000  0.4867140000000  0.5530630000000 1.0
C      1  0.5209740000000  0.4648250000000  0.5350840000000 1.0
C      1  0.5669050000000  0.4866730000000  0.5071590000000 1.0
C      1  0.4562400000000  0.5445070000000  0.4867450000000 1.0
C      1  0.5041030000000  0.4942060000000  0.5319490000000 1.0
C      1  0.5366890000000  0.4355680000000  0.4825700000000 1.0
C      1  0.4957480000000  0.5388030000000  0.5449690000000 1.0
C      1  0.5361910000000  0.5718170000000  0.5382310000000 1.0
C      1  0.4966290000000  0.4746820000000  0.4318380000000 1.0
C      1  0.5549150000000  0.5609820000000  0.5049670000000 1.0
C      1  0.4218180000000  0.5095890000000  0.4813770000000 1.0
C      1  0.5384530000000  0.5175110000000  0.4886570000000 1.0
C      1  0.5055630000000  0.4476200000000  0.5571340000000 1.0
C      1  0.4747730000000  0.4900250000000  0.5136030000000 1.0
C      1  0.5099440000000  0.4931370000000  0.4544420000000 1.0
C      1  0.4363750000000  0.4614200000000  0.5449840000000 1.0
C      1  0.5539720000000  0.4972410000000  0.5295700000000 1.0
C      1  0.5610490000000  0.5018800000000  0.4820930000000 1.0
C      1  0.5384690000000  0.4426360000000  0.5161340000000 1.0
C      1  0.5588100000000  0.4539390000000  0.4628590000000 1.0
C      1  0.5108780000000  0.4584450000000  0.5032300000000 1.0
C      1  0.4367810000000  0.5246520000000  0.4991550000000 1.0
C      1  0.5394570000000  0.4976640000000  0.4400560000000 1.0
C      1  0.5205810000000  0.5421730000000  0.4445890000000 1.0
END
