TITL C-1154816-9297-79 -0.00293827173969658 125000 -338.084275225573 0 0 60 (C1) n - 1
REM
REM in /home/nfs/bkarasulu/CARBON/AIRSS/Generating-Clusters/AIREBO/Higher-Symm/Only-C60
REM
REM
REM
REM
REM
REM ./C.cell (28575a23ae977d3b5fae324c64b13b57)
REM
REM compiler GCC version 9.2.1 20190827 (Red Hat 9.2.1-1)
REM options -cpp -mtune=generic -march=x86-64 -g -O0 -fpre-include=/usr/include/finclude/math-vector-fortran.h
REM seed 2013908606 -1450189804 -231327710 2122388570 -2120113943 1406294699 267657777 176307269 1537202715 2072694509 -1573344566 -364976054 -158133975 -776690946 1496004737 1755318 1942578163 1166049112 -1637729960 -1650678703 -988654592 -1909577527 532687054 -553889404 -947589386 -644409186 -1166823713 -568951215 2037654509 -1310448069 1476693731 -924506838 -1512929759
REM
CELL 1.54180   50.00000   50.00000   50.00000   90.00000   90.00000   90.00000
LATT -1
SFAC C  
C      1  0.4644060000000  0.4171210000000  0.5969800000000 1.0
C      1  0.4644930000000  0.4574920000000  0.3796560000000 1.0
C      1  0.4618810000000  0.6241390000000  0.5225580000000 1.0
C      1  0.4846860000000  0.5766770000000  0.5315400000000 1.0
C      1  0.4844660000000  0.4345660000000  0.5506460000000 1.0
C      1  0.4845250000000  0.4888720000000  0.4179640000000 1.0
C      1  0.4810020000000  0.4630690000000  0.5229170000000 1.0
C      1  0.4810170000000  0.4986470000000  0.4565050000000 1.0
C      1  0.4811650000000  0.5384460000000  0.5206030000000 1.0
C      1  0.5317160000000  0.4419540000000  0.5158920000000 1.0
C      1  0.5317670000000  0.5152070000000  0.4418520000000 1.0
C      1  0.5319380000000  0.5427090000000  0.5422420000000 1.0
C      1  0.5385200000000  0.5142110000000  0.5328740000000 1.0
C      1  0.5383790000000  0.4642750000000  0.4959060000000 1.0
C      1  0.5384090000000  0.5213910000000  0.4711780000000 1.0
C      1  0.5577430000000  0.4850980000000  0.5129160000000 1.0
C      1  0.5576560000000  0.4961590000000  0.4807620000000 1.0
C      1  0.5577530000000  0.5186690000000  0.5062480000000 1.0
C      1  0.4842980000000  0.4433160000000  0.4974130000000 1.0
C      1  0.4843200000000  0.5305980000000  0.4521610000000 1.0
C      1  0.4844780000000  0.5261410000000  0.5504380000000 1.0
C      1  0.4454860000000  0.4619980000000  0.4934580000000 1.0
C      1  0.4457360000000  0.5248370000000  0.4702650000000 1.0
C      1  0.4456070000000  0.5134640000000  0.5362780000000 1.0
C      1  0.4924880000000  0.4634530000000  0.4712710000000 1.0
C      1  0.4925080000000  0.5431320000000  0.4826870000000 1.0
C      1  0.4925740000000  0.4934160000000  0.5460140000000 1.0
C      1  0.5118020000000  0.4820390000000  0.4922450000000 1.0
C      1  0.5118060000000  0.5156740000000  0.4883420000000 1.0
C      1  0.5118680000000  0.5022450000000  0.5194030000000 1.0
C      1  0.5485100000000  0.5476020000000  0.4996450000000 1.0
C      1  0.5484500000000  0.4764000000000  0.5413100000000 1.0
C      1  0.5484110000000  0.4759270000000  0.4589880000000 1.0
C      1  0.4741390000000  0.6014880000000  0.5274060000000 1.0
C      1  0.4731220000000  0.4263350000000  0.5740450000000 1.0
C      1  0.4731940000000  0.4727380000000  0.3991170000000 1.0
C      1  0.5108790000000  0.5443390000000  0.5601500000000 1.0
C      1  0.5105990000000  0.4257010000000  0.5083620000000 1.0
C      1  0.5106870000000  0.5298790000000  0.4314980000000 1.0
C      1  0.5156520000000  0.5630100000000  0.4676630000000 1.0
C      1  0.5157550000000  0.4964780000000  0.5707080000000 1.0
C      1  0.5156240000000  0.4404890000000  0.4615820000000 1.0
C      1  0.5016440000000  0.4775620000000  0.4417110000000 1.0
C      1  0.5018160000000  0.5618350000000  0.5098510000000 1.0
C      1  0.5016510000000  0.4607400000000  0.5485710000000 1.0
C      1  0.5411320000000  0.5525940000000  0.4721350000000 1.0
C      1  0.5412230000000  0.4977570000000  0.5594110000000 1.0
C      1  0.5411060000000  0.4495690000000  0.4683800000000 1.0
C      1  0.4417400000000  0.4666510000000  0.5176990000000 1.0
C      1  0.4417680000000  0.5015290000000  0.4622340000000 1.0
C      1  0.4419000000000  0.5321460000000  0.5201380000000 1.0
C      1  0.4607870000000  0.4762270000000  0.4708280000000 1.0
C      1  0.4609720000000  0.5372550000000  0.4939840000000 1.0
C      1  0.4608370000000  0.4867140000000  0.5352400000000 1.0
C      1  0.5304370000000  0.4551840000000  0.5405460000000 1.0
C      1  0.5304510000000  0.4872460000000  0.4409680000000 1.0
C      1  0.5306190000000  0.5575460000000  0.5185250000000 1.0
C      1  0.4840080000000  0.4232950000000  0.5254560000000 1.0
C      1  0.4841030000000  0.5163270000000  0.4207930000000 1.0
C      1  0.4842930000000  0.5604220000000  0.5538440000000 1.0
END
