TITL C-1154802-8274-260 -0.00127063738228909 125000 -365.556809434402 0 0 60 (C1) n - 1
REM
REM in /home/nfs/bkarasulu/CARBON/AIRSS/Generating-Clusters/AIREBO/Higher-Symm/Only-C60
REM
REM
REM
REM
REM
REM ./C.cell (28575a23ae977d3b5fae324c64b13b57)
REM
REM compiler GCC version 9.2.1 20190827 (Red Hat 9.2.1-1)
REM options -cpp -mtune=generic -march=x86-64 -g -O0 -fpre-include=/usr/include/finclude/math-vector-fortran.h
REM seed -862995861 1652556128 -852137589 -1682251829 -712766590 744892990 1008077353 -1370074058 1253566102 1754292897 130302435 1248885905 1748257228 -2071528882 -65550511 -688567168 1366071108 372160675 -980573400 1917548862 -1052864995 519064808 -1357329967 801294567 -958622825 1551891223 -1989977163 1735007496 880235241 382629583 -1916556970 -1047342214 -964997237
REM
CELL 1.54180   50.00000   50.00000   50.00000   90.00000   90.00000   90.00000
LATT -1
SFAC C  
C      1  0.4956630000000  0.4728290000000  0.5824740000000 1.0
C      1  0.4966810000000  0.4182710000000  0.5144720000000 1.0
C      1  0.4963300000000  0.4473350000000  0.4362500000000 1.0
C      1  0.4981190000000  0.5297800000000  0.4205690000000 1.0
C      1  0.5020590000000  0.5782060000000  0.4866030000000 1.0
C      1  0.4914370000000  0.5586580000000  0.5756570000000 1.0
C      1  0.4927710000000  0.4715090000000  0.4186970000000 1.0
C      1  0.4962060000000  0.4120590000000  0.4850850000000 1.0
C      1  0.5000300000000  0.4490710000000  0.5646350000000 1.0
C      1  0.4975670000000  0.5311290000000  0.5783900000000 1.0
C      1  0.5000470000000  0.5767920000000  0.5148470000000 1.0
C      1  0.4939570000000  0.5577370000000  0.4324230000000 1.0
C      1  0.5176540000000  0.5131430000000  0.4432880000000 1.0
C      1  0.5184630000000  0.5575130000000  0.4764980000000 1.0
C      1  0.5011780000000  0.5364410000000  0.5384720000000 1.0
C      1  0.5034080000000  0.4866830000000  0.5524780000000 1.0
C      1  0.5040090000000  0.4502690000000  0.5126230000000 1.0
C      1  0.5191800000000  0.4559130000000  0.4577250000000 1.0
C      1  0.5161070000000  0.5148980000000  0.5561360000000 1.0
C      1  0.5161750000000  0.5561690000000  0.5257900000000 1.0
C      1  0.5033000000000  0.5390580000000  0.4586230000000 1.0
C      1  0.5034720000000  0.4846180000000  0.4481920000000 1.0
C      1  0.5174730000000  0.4371030000000  0.4860280000000 1.0
C      1  0.5178110000000  0.4602380000000  0.5382290000000 1.0
C      1  0.5507940000000  0.4628520000000  0.4603230000000 1.0
C      1  0.5468950000000  0.5114460000000  0.4518310000000 1.0
C      1  0.5417940000000  0.5472110000000  0.4876320000000 1.0
C      1  0.5567170000000  0.5343320000000  0.5347340000000 1.0
C      1  0.5564740000000  0.4871570000000  0.5480890000000 1.0
C      1  0.5577490000000  0.4524300000000  0.5113130000000 1.0
C      1  0.5469400000000  0.4652120000000  0.5337780000000 1.0
C      1  0.5457350000000  0.5129280000000  0.5492200000000 1.0
C      1  0.5415160000000  0.5482580000000  0.5156440000000 1.0
C      1  0.5561160000000  0.5313220000000  0.4694150000000 1.0
C      1  0.5592430000000  0.4865440000000  0.4490460000000 1.0
C      1  0.5466760000000  0.4492920000000  0.4858470000000 1.0
C      1  0.4738840000000  0.5147580000000  0.5820110000000 1.0
C      1  0.4760060000000  0.4379730000000  0.5530080000000 1.0
C      1  0.4719100000000  0.4194840000000  0.4729270000000 1.0
C      1  0.4762110000000  0.4897530000000  0.4051810000000 1.0
C      1  0.4801150000000  0.5801950000000  0.4430660000000 1.0
C      1  0.4735770000000  0.5733100000000  0.5255650000000 1.0
C      1  0.4734000000000  0.5149160000000  0.4187770000000 1.0
C      1  0.4723010000000  0.4391330000000  0.4488910000000 1.0
C      1  0.4810070000000  0.4139560000000  0.5377850000000 1.0
C      1  0.4787680000000  0.4904150000000  0.5964630000000 1.0
C      1  0.4740160000000  0.5640770000000  0.5542510000000 1.0
C      1  0.4767720000000  0.5789730000000  0.4719400000000 1.0
C      1  0.4619600000000  0.5110080000000  0.5554970000000 1.0
C      1  0.4641780000000  0.4599210000000  0.5368960000000 1.0
C      1  0.4605640000000  0.4460540000000  0.4862600000000 1.0
C      1  0.4724850000000  0.4874500000000  0.4560970000000 1.0
C      1  0.4718970000000  0.5338820000000  0.4637680000000 1.0
C      1  0.4584130000000  0.5524710000000  0.5088080000000 1.0
C      1  0.4635180000000  0.5125900000000  0.4466200000000 1.0
C      1  0.4588070000000  0.4641330000000  0.4615460000000 1.0
C      1  0.4725140000000  0.4548540000000  0.5099660000000 1.0
C      1  0.4717930000000  0.4860440000000  0.5459620000000 1.0
C      1  0.4683000000000  0.5354550000000  0.5368040000000 1.0
C      1  0.4618590000000  0.5547890000000  0.4808590000000 1.0
END
