TITL C-1154826-9507-337 9.94263381591321e-05 125000 -334.640944404189 0 0 60 (C1) n - 1
REM
REM in /home/nfs/bkarasulu/CARBON/AIRSS/Generating-Clusters/AIREBO/Higher-Symm/Only-C60
REM
REM
REM
REM
REM
REM ./C.cell (28575a23ae977d3b5fae324c64b13b57)
REM
REM compiler GCC version 9.2.1 20190827 (Red Hat 9.2.1-1)
REM options -cpp -mtune=generic -march=x86-64 -g -O0 -fpre-include=/usr/include/finclude/math-vector-fortran.h
REM seed -730122792 760146881 -1401259850 -265586458 -656521810 1852368093 1251702537 1585279475 -1226351931 -797468798 1424382677 -247783993 780626407 1526771074 -1818025759 -1515362679 124388591 281361148 112012652 1018392827 -1323916371 533691598 443994615 -823666234 1161424674 -876712966 430554018 -830423889 1943227064 -112152922 467082519 -815423558 34353749
REM
CELL 1.54180   50.00000   50.00000   50.00000   90.00000   90.00000   90.00000
LATT -1
SFAC C  
C      1  0.4453220000000  0.4477640000000  0.5193340000000 1.0
C      1  0.5417920000000  0.4407030000000  0.5073270000000 1.0
C      1  0.5604740000000  0.5506510000000  0.5041070000000 1.0
C      1  0.4481130000000  0.5507310000000  0.5215750000000 1.0
C      1  0.5127230000000  0.4298730000000  0.5026630000000 1.0
C      1  0.5547550000000  0.4984220000000  0.5007620000000 1.0
C      1  0.4804930000000  0.5585640000000  0.5147160000000 1.0
C      1  0.4351670000000  0.4774550000000  0.5100830000000 1.0
C      1  0.5453990000000  0.5017860000000  0.5479860000000 1.0
C      1  0.5009580000000  0.5541620000000  0.5639330000000 1.0
C      1  0.4526770000000  0.5127160000000  0.5708240000000 1.0
C      1  0.4986100000000  0.4601390000000  0.5725160000000 1.0
C      1  0.4874320000000  0.5348450000000  0.4935200000000 1.0
C      1  0.4589380000000  0.4838930000000  0.4893270000000 1.0
C      1  0.5145090000000  0.4759940000000  0.4873910000000 1.0
C      1  0.5304280000000  0.5220670000000  0.4984750000000 1.0
C      1  0.4943360000000  0.4450890000000  0.5161870000000 1.0
C      1  0.5559940000000  0.4845370000000  0.5260940000000 1.0
C      1  0.5043490000000  0.5627010000000  0.5311960000000 1.0
C      1  0.4276520000000  0.5029040000000  0.5244310000000 1.0
C      1  0.5083940000000  0.4565480000000  0.4419130000000 1.0
C      1  0.5557810000000  0.5091740000000  0.4398190000000 1.0
C      1  0.4983780000000  0.5446620000000  0.4451380000000 1.0
C      1  0.4538130000000  0.4960530000000  0.4421590000000 1.0
C      1  0.4668940000000  0.4585110000000  0.4695800000000 1.0
C      1  0.5440160000000  0.4727320000000  0.4720980000000 1.0
C      1  0.5394770000000  0.5405050000000  0.4717510000000 1.0
C      1  0.4611090000000  0.5335400000000  0.4726600000000 1.0
C      1  0.4632870000000  0.4697720000000  0.4408720000000 1.0
C      1  0.5332230000000  0.4679440000000  0.4416970000000 1.0
C      1  0.5434200000000  0.5338840000000  0.4418010000000 1.0
C      1  0.4713090000000  0.5392030000000  0.4435870000000 1.0
C      1  0.4735890000000  0.4850720000000  0.5189980000000 1.0
C      1  0.5065470000000  0.4767840000000  0.5178310000000 1.0
C      1  0.5207820000000  0.5067810000000  0.5256500000000 1.0
C      1  0.4901530000000  0.5132270000000  0.5169050000000 1.0
C      1  0.4750150000000  0.4710300000000  0.5503530000000 1.0
C      1  0.5195240000000  0.4640480000000  0.5465650000000 1.0
C      1  0.5310660000000  0.5509800000000  0.5496110000000 1.0
C      1  0.4710440000000  0.5173190000000  0.5423940000000 1.0
C      1  0.5687300000000  0.5266400000000  0.4887820000000 1.0
C      1  0.4550530000000  0.5579250000000  0.4917270000000 1.0
C      1  0.4415930000000  0.4484850000000  0.4886030000000 1.0
C      1  0.5298480000000  0.4417530000000  0.4755080000000 1.0
C      1  0.5631940000000  0.5001950000000  0.4679210000000 1.0
C      1  0.5081040000000  0.5415600000000  0.4717330000000 1.0
C      1  0.4514760000000  0.5049710000000  0.4692380000000 1.0
C      1  0.4975360000000  0.4519890000000  0.4727420000000 1.0
C      1  0.4596390000000  0.5193040000000  0.4264470000000 1.0
C      1  0.4853730000000  0.4603140000000  0.4255350000000 1.0
C      1  0.5466140000000  0.4867060000000  0.4250740000000 1.0
C      1  0.5208800000000  0.5441650000000  0.4275970000000 1.0
C      1  0.4784240000000  0.4939310000000  0.5738790000000 1.0
C      1  0.5113250000000  0.4909570000000  0.5658250000000 1.0
C      1  0.5243860000000  0.5219180000000  0.5624580000000 1.0
C      1  0.4904490000000  0.5248450000000  0.5672000000000 1.0
C      1  0.4703160000000  0.4470730000000  0.5308740000000 1.0
C      1  0.5439740000000  0.4595180000000  0.5274270000000 1.0
C      1  0.5329310000000  0.5505490000000  0.5169130000000 1.0
C      1  0.4432140000000  0.5244350000000  0.5306900000000 1.0
END
