TITL C-1154826-9507-499 -0.00145388129307755 125000 -323.160349333869 0 0 60 (C1) n - 1
REM
REM in /home/nfs/bkarasulu/CARBON/AIRSS/Generating-Clusters/AIREBO/Higher-Symm/Only-C60
REM
REM
REM
REM
REM
REM ./C.cell (28575a23ae977d3b5fae324c64b13b57)
REM
REM compiler GCC version 9.2.1 20190827 (Red Hat 9.2.1-1)
REM options -cpp -mtune=generic -march=x86-64 -g -O0 -fpre-include=/usr/include/finclude/math-vector-fortran.h
REM seed 1732939548 636791302 -1086058989 -1834195752 -79735369 2022017618 1052595068 -66132347 61793522 1077426473 1768990452 -1139648237 1155488041 2071236717 -1308664944 2069349179 1705106339 451262466 -152069432 1188371119 718068657 -1897441728 -1295626184 928401802 -921126423 1034581624 275077121 1314134095 -1221488228 -1061663115 -1188752171 -308594520 -1038071356
REM
CELL 1.54180   50.00000   50.00000   50.00000   90.00000   90.00000   90.00000
LATT -1
SFAC C  
C      1  0.5767330000000  0.4966120000000  0.5180680000000 1.0
C      1  0.5171230000000  0.5739990000000  0.5037110000000 1.0
C      1  0.4983980000000  0.5291360000000  0.5821680000000 1.0
C      1  0.4231270000000  0.4956490000000  0.4723000000000 1.0
C      1  0.5623960000000  0.5060750000000  0.4712070000000 1.0
C      1  0.4287620000000  0.4960300000000  0.5115050000000 1.0
C      1  0.4777060000000  0.5761320000000  0.5073770000000 1.0
C      1  0.5215930000000  0.4282700000000  0.5007880000000 1.0
C      1  0.4820810000000  0.4254270000000  0.5039690000000 1.0
C      1  0.4900230000000  0.5180640000000  0.4033300000000 1.0
C      1  0.4981920000000  0.4738680000000  0.4227240000000 1.0
C      1  0.4860460000000  0.4811860000000  0.5839430000000 1.0
C      1  0.5124060000000  0.4993020000000  0.5820110000000 1.0
C      1  0.4975610000000  0.5787480000000  0.5299690000000 1.0
C      1  0.5741040000000  0.5217770000000  0.4953100000000 1.0
C      1  0.4750510000000  0.4977490000000  0.4226460000000 1.0
C      1  0.4749540000000  0.5112160000000  0.5758480000000 1.0
C      1  0.5139700000000  0.5013440000000  0.4156770000000 1.0
C      1  0.4969820000000  0.5756680000000  0.4793650000000 1.0
C      1  0.5037940000000  0.4317990000000  0.5263930000000 1.0
C      1  0.5026670000000  0.4049500000000  0.4898960000000 1.0
C      1  0.4222290000000  0.5218840000000  0.4939290000000 1.0
C      1  0.4246940000000  0.4715680000000  0.4910040000000 1.0
C      1  0.5609530000000  0.4845050000000  0.4933820000000 1.0
C      1  0.4884220000000  0.4743210000000  0.4519990000000 1.0
C      1  0.4508560000000  0.5105890000000  0.4688240000000 1.0
C      1  0.4734280000000  0.4494720000000  0.4917750000000 1.0
C      1  0.4989460000000  0.4764830000000  0.5524890000000 1.0
C      1  0.5217910000000  0.5309420000000  0.5601860000000 1.0
C      1  0.5038160000000  0.5250760000000  0.4570610000000 1.0
C      1  0.5423660000000  0.4962650000000  0.5266300000000 1.0
C      1  0.4594500000000  0.4962250000000  0.5212390000000 1.0
C      1  0.5492130000000  0.4996730000000  0.4478310000000 1.0
C      1  0.5221060000000  0.4537090000000  0.4837030000000 1.0
C      1  0.4729810000000  0.5472370000000  0.4930910000000 1.0
C      1  0.5271540000000  0.5426890000000  0.5080270000000 1.0
C      1  0.4518760000000  0.4639550000000  0.5068890000000 1.0
C      1  0.4776550000000  0.5040750000000  0.4546320000000 1.0
C      1  0.4928550000000  0.4597870000000  0.4747110000000 1.0
C      1  0.5339300000000  0.4751720000000  0.5013310000000 1.0
C      1  0.5513740000000  0.5269360000000  0.5173350000000 1.0
C      1  0.4564140000000  0.5219770000000  0.4992460000000 1.0
C      1  0.5241230000000  0.4984920000000  0.5501000000000 1.0
C      1  0.5261700000000  0.5128650000000  0.4390550000000 1.0
C      1  0.4688000000000  0.4919800000000  0.5496810000000 1.0
C      1  0.4951340000000  0.4462000000000  0.5478750000000 1.0
C      1  0.5050730000000  0.5420490000000  0.4830870000000 1.0
C      1  0.5159890000000  0.5537980000000  0.5378070000000 1.0
C      1  0.5396280000000  0.4500470000000  0.4599230000000 1.0
C      1  0.4511120000000  0.4677860000000  0.5588560000000 1.0
C      1  0.5551600000000  0.4416860000000  0.4328750000000 1.0
C      1  0.4455600000000  0.4497360000000  0.5333310000000 1.0
C      1  0.4810850000000  0.5409760000000  0.4397720000000 1.0
C      1  0.5517180000000  0.4728360000000  0.4407980000000 1.0
C      1  0.4512410000000  0.5342560000000  0.4485600000000 1.0
C      1  0.5634840000000  0.5411920000000  0.5414720000000 1.0
C      1  0.4678610000000  0.4407520000000  0.5550340000000 1.0
C      1  0.5433430000000  0.5635390000000  0.5527700000000 1.0
C      1  0.4660440000000  0.5576700000000  0.4633270000000 1.0
C      1  0.5523000000000  0.5385970000000  0.5721560000000 1.0
END
