TITL C-1154810-7815-413 0.000468225656756944 125000 -329.352876929363 0 0 60 (C1) n - 1
REM
REM in /home/nfs/bkarasulu/CARBON/AIRSS/Generating-Clusters/AIREBO/Higher-Symm/Only-C60
REM
REM
REM
REM
REM
REM ./C.cell (28575a23ae977d3b5fae324c64b13b57)
REM
REM compiler GCC version 9.2.1 20190827 (Red Hat 9.2.1-1)
REM options -cpp -mtune=generic -march=x86-64 -g -O0 -fpre-include=/usr/include/finclude/math-vector-fortran.h
REM seed 1887820874 957370289 219715114 907124081 -1880696801 1825640918 -1060460168 -1797360363 -1146533140 637272175 632743881 -1561851990 -580936516 -2078076351 1437491576 2054989536 1485139798 -855633374 2124033868 965541462 -1466245692 -1683036264 1801098006 -1648068882 -1545037404 -1408883677 -1979202760 -1456160279 -919271525 -713893754 1930647185 -250188489 -1251480576
REM
CELL 1.54180   50.00000   50.00000   50.00000   90.00000   90.00000   90.00000
LATT -1
SFAC C  
C      1  0.5346850000000  0.4336330000000  0.5168770000000 1.0
C      1  0.4594300000000  0.4340200000000  0.5248470000000 1.0
C      1  0.4987830000000  0.4330190000000  0.4584650000000 1.0
C      1  0.5130360000000  0.5530950000000  0.4708530000000 1.0
C      1  0.5225490000000  0.5511330000000  0.5223860000000 1.0
C      1  0.4781770000000  0.5406840000000  0.5064970000000 1.0
C      1  0.4732830000000  0.4515600000000  0.5022880000000 1.0
C      1  0.5156940000000  0.4514340000000  0.4772920000000 1.0
C      1  0.5064110000000  0.4512350000000  0.5100210000000 1.0
C      1  0.5195940000000  0.4798280000000  0.5195040000000 1.0
C      1  0.4694060000000  0.4830840000000  0.5099950000000 1.0
C      1  0.5065980000000  0.4798200000000  0.4639580000000 1.0
C      1  0.4207960000000  0.4922240000000  0.5076190000000 1.0
C      1  0.5427340000000  0.4903500000000  0.4295200000000 1.0
C      1  0.5361370000000  0.4883810000000  0.5707480000000 1.0
C      1  0.5622220000000  0.4818190000000  0.5623060000000 1.0
C      1  0.4172780000000  0.4847640000000  0.5349560000000 1.0
C      1  0.5212900000000  0.4827810000000  0.4123950000000 1.0
C      1  0.4774650000000  0.4651400000000  0.4299790000000 1.0
C      1  0.5748340000000  0.4622650000000  0.5183540000000 1.0
C      1  0.4535820000000  0.4641580000000  0.5626500000000 1.0
C      1  0.5161470000000  0.5915540000000  0.4955840000000 1.0
C      1  0.4922470000000  0.5888150000000  0.5165820000000 1.0
C      1  0.4861920000000  0.5868990000000  0.4857410000000 1.0
C      1  0.5455610000000  0.5011120000000  0.5218420000000 1.0
C      1  0.4596750000000  0.5019880000000  0.5332520000000 1.0
C      1  0.4990470000000  0.5082850000000  0.4476840000000 1.0
C      1  0.4833550000000  0.5593200000000  0.5545620000000 1.0
C      1  0.4630530000000  0.5533100000000  0.4582580000000 1.0
C      1  0.5591280000000  0.5655540000000  0.4903050000000 1.0
C      1  0.5316350000000  0.5639820000000  0.4949590000000 1.0
C      1  0.4926330000000  0.5602630000000  0.5280870000000 1.0
C      1  0.4821550000000  0.5567470000000  0.4784920000000 1.0
C      1  0.5483790000000  0.4531070000000  0.4776810000000 1.0
C      1  0.4971310000000  0.4526380000000  0.5433380000000 1.0
C      1  0.4581700000000  0.4503010000000  0.4731970000000 1.0
C      1  0.4959000000000  0.4859780000000  0.4249200000000 1.0
C      1  0.5668790000000  0.4841070000000  0.5344200000000 1.0
C      1  0.4418000000000  0.4866630000000  0.5497990000000 1.0
C      1  0.4428640000000  0.4743420000000  0.4902040000000 1.0
C      1  0.5397860000000  0.4762690000000  0.4574700000000 1.0
C      1  0.5123360000000  0.4795430000000  0.5519810000000 1.0
C      1  0.4745040000000  0.4462290000000  0.4511330000000 1.0
C      1  0.5571770000000  0.4459430000000  0.5032810000000 1.0
C      1  0.4705010000000  0.4458910000000  0.5487940000000 1.0
C      1  0.5604980000000  0.5270200000000  0.4601760000000 1.0
C      1  0.4953970000000  0.5185120000000  0.5713750000000 1.0
C      1  0.4366770000000  0.5202400000000  0.4745120000000 1.0
C      1  0.5253390000000  0.5157520000000  0.5673100000000 1.0
C      1  0.4296580000000  0.5205130000000  0.5025790000000 1.0
C      1  0.5459250000000  0.5179800000000  0.4343050000000 1.0
C      1  0.5234840000000  0.5039560000000  0.4971700000000 1.0
C      1  0.4909740000000  0.5090310000000  0.5057500000000 1.0
C      1  0.4821880000000  0.5004380000000  0.4740490000000 1.0
C      1  0.5212010000000  0.5303110000000  0.4535480000000 1.0
C      1  0.5279830000000  0.5250630000000  0.5357390000000 1.0
C      1  0.4524980000000  0.5261720000000  0.5194030000000 1.0
C      1  0.4529360000000  0.4981850000000  0.4711180000000 1.0
C      1  0.5361800000000  0.5057230000000  0.4710750000000 1.0
C      1  0.4988270000000  0.5078370000000  0.5388130000000 1.0
END
