TITL C-1154826-9507-606 0.00151181487895338 125000 -333.165873802881 0 0 60 (C1) n - 1
REM
REM in /home/nfs/bkarasulu/CARBON/AIRSS/Generating-Clusters/AIREBO/Higher-Symm/Only-C60
REM
REM
REM
REM
REM
REM ./C.cell (28575a23ae977d3b5fae324c64b13b57)
REM
REM compiler GCC version 9.2.1 20190827 (Red Hat 9.2.1-1)
REM options -cpp -mtune=generic -march=x86-64 -g -O0 -fpre-include=/usr/include/finclude/math-vector-fortran.h
REM seed 1596135660 -1675663565 -1084234193 -1624025055 -1986723081 1783093372 -2064351821 -2072656406 -129480991 -1228673438 -331613897 -1514916861 -192609902 -423392459 -1911511631 -405152699 162939741 -348424181 1928039487 1939617485 -1413907187 -1749811410 -2135755819 -1357288167 -1488996109 -1840046884 1066267551 -1554713637 -1423266748 -1185210363 -1226184471 -92671878 -1729119111
REM
CELL 1.54180   50.00000   50.00000   50.00000   90.00000   90.00000   90.00000
LATT -1
SFAC C  
C      1  0.5094110000000  0.4466400000000  0.5406470000000 1.0
C      1  0.4923440000000  0.4485620000000  0.4593230000000 1.0
C      1  0.5389800000000  0.5009090000000  0.4269220000000 1.0
C      1  0.4734200000000  0.4948850000000  0.5683470000000 1.0
C      1  0.5255540000000  0.5071390000000  0.4875360000000 1.0
C      1  0.4635840000000  0.4994790000000  0.5152900000000 1.0
C      1  0.5254790000000  0.4792120000000  0.5027200000000 1.0
C      1  0.4735400000000  0.4742910000000  0.4987380000000 1.0
C      1  0.4723350000000  0.4896630000000  0.4416250000000 1.0
C      1  0.5315670000000  0.4857390000000  0.5654520000000 1.0
C      1  0.5276810000000  0.5560610000000  0.5006900000000 1.0
C      1  0.4751640000000  0.5545830000000  0.4974380000000 1.0
C      1  0.4678800000000  0.4408640000000  0.4693120000000 1.0
C      1  0.5330190000000  0.4405890000000  0.5283960000000 1.0
C      1  0.5498020000000  0.4659800000000  0.5201840000000 1.0
C      1  0.4481780000000  0.4638220000000  0.4817530000000 1.0
C      1  0.4324080000000  0.4993900000000  0.5190460000000 1.0
C      1  0.5751410000000  0.4929340000000  0.4823960000000 1.0
C      1  0.5020530000000  0.5169150000000  0.5100870000000 1.0
C      1  0.4780300000000  0.5120500000000  0.4871940000000 1.0
C      1  0.5515120000000  0.5410300000000  0.4816000000000 1.0
C      1  0.4463700000000  0.5501360000000  0.5110880000000 1.0
C      1  0.5024450000000  0.4852350000000  0.5238730000000 1.0
C      1  0.4946420000000  0.4838170000000  0.4778910000000 1.0
C      1  0.4856230000000  0.4648710000000  0.5765010000000 1.0
C      1  0.5185090000000  0.4748340000000  0.4279450000000 1.0
C      1  0.4334560000000  0.5282030000000  0.4675290000000 1.0
C      1  0.5631550000000  0.5237660000000  0.5268980000000 1.0
C      1  0.5105620000000  0.4600700000000  0.5651360000000 1.0
C      1  0.4932580000000  0.4667950000000  0.4376990000000 1.0
C      1  0.4764760000000  0.5401630000000  0.4454050000000 1.0
C      1  0.5319830000000  0.5395670000000  0.5514150000000 1.0
C      1  0.5720260000000  0.5031150000000  0.5423370000000 1.0
C      1  0.4275010000000  0.5034670000000  0.4570350000000 1.0
C      1  0.4983790000000  0.5589970000000  0.4479980000000 1.0
C      1  0.5311780000000  0.5658340000000  0.5333320000000 1.0
C      1  0.4280870000000  0.5266890000000  0.5250560000000 1.0
C      1  0.5622820000000  0.5151530000000  0.4714110000000 1.0
C      1  0.5143550000000  0.4562310000000  0.4804370000000 1.0
C      1  0.4854050000000  0.4558410000000  0.5225060000000 1.0
C      1  0.5436550000000  0.4613410000000  0.4709180000000 1.0
C      1  0.4555640000000  0.4590830000000  0.5333220000000 1.0
C      1  0.5620380000000  0.4689690000000  0.4905190000000 1.0
C      1  0.4369750000000  0.4697280000000  0.5135740000000 1.0
C      1  0.5330130000000  0.5194880000000  0.5695210000000 1.0
C      1  0.4738770000000  0.5191560000000  0.4285360000000 1.0
C      1  0.5004830000000  0.5533680000000  0.4807390000000 1.0
C      1  0.4817310000000  0.5390880000000  0.5259890000000 1.0
C      1  0.4455940000000  0.4831780000000  0.4564930000000 1.0
C      1  0.5559030000000  0.4815900000000  0.5455850000000 1.0
C      1  0.4518330000000  0.5420170000000  0.5419980000000 1.0
C      1  0.5279590000000  0.5510280000000  0.4611320000000 1.0
C      1  0.4573640000000  0.4661230000000  0.5605640000000 1.0
C      1  0.5416880000000  0.4790890000000  0.4502990000000 1.0
C      1  0.5013290000000  0.5033670000000  0.4529590000000 1.0
C      1  0.5040290000000  0.4975930000000  0.5532010000000 1.0
C      1  0.4633570000000  0.5350280000000  0.4722390000000 1.0
C      1  0.5322050000000  0.5289520000000  0.5201980000000 1.0
C      1  0.4764870000000  0.5108130000000  0.5402010000000 1.0
C      1  0.5321420000000  0.5174800000000  0.4558240000000 1.0
END
