TITL C-1154804-8633-391 -0.000312019456071217 125000 -321.333739648405 0 0 60 (C1) n - 1
REM
REM in /home/nfs/bkarasulu/CARBON/AIRSS/Generating-Clusters/AIREBO/Higher-Symm/Only-C60
REM
REM
REM
REM
REM
REM ./C.cell (28575a23ae977d3b5fae324c64b13b57)
REM
REM compiler GCC version 9.2.1 20190827 (Red Hat 9.2.1-1)
REM options -cpp -mtune=generic -march=x86-64 -g -O0 -fpre-include=/usr/include/finclude/math-vector-fortran.h
REM seed -478564593 -619855509 549657381 -1014338370 241121342 222044594 27307214 -1370772624 -738543049 1964511683 765504635 -535224146 -1153308028 770349798 -150487471 -1595083033 1262500478 -1730761398 1240434164 -971966510 -1075874902 1930279133 974877394 245573400 -413359511 643302426 761537733 1608044236 160765519 -1431739683 1186707363 -349521134 1524735321
REM
CELL 1.54180   50.00000   50.00000   50.00000   90.00000   90.00000   90.00000
LATT -1
SFAC C  
C      1  0.4952490000000  0.4805660000000  0.4399470000000 1.0
C      1  0.4859410000000  0.5134930000000  0.4395590000000 1.0
C      1  0.5188690000000  0.5050190000000  0.4394040000000 1.0
C      1  0.5428230000000  0.4528180000000  0.4679800000000 1.0
C      1  0.4376070000000  0.4865620000000  0.4674390000000 1.0
C      1  0.5193790000000  0.5606060000000  0.4676780000000 1.0
C      1  0.4852520000000  0.5176400000000  0.5121670000000 1.0
C      1  0.5227450000000  0.5042100000000  0.5120890000000 1.0
C      1  0.4923490000000  0.4784790000000  0.5126240000000 1.0
C      1  0.5146240000000  0.4343150000000  0.4646700000000 1.0
C      1  0.4357600000000  0.5202250000000  0.4650060000000 1.0
C      1  0.5497300000000  0.5456100000000  0.4651110000000 1.0
C      1  0.5407980000000  0.4396320000000  0.5245790000000 1.0
C      1  0.4272610000000  0.4946260000000  0.5245910000000 1.0
C      1  0.5318500000000  0.5658100000000  0.5245680000000 1.0
C      1  0.4764170000000  0.5531940000000  0.5285340000000 1.0
C      1  0.5578120000000  0.4937720000000  0.5284050000000 1.0
C      1  0.4657350000000  0.4528780000000  0.5289430000000 1.0
C      1  0.5555200000000  0.4792500000000  0.5521680000000 1.0
C      1  0.4543340000000  0.4623240000000  0.5525970000000 1.0
C      1  0.4901810000000  0.5584780000000  0.5522620000000 1.0
C      1  0.5245500000000  0.5078510000000  0.5455400000000 1.0
C      1  0.4944880000000  0.4749010000000  0.5458620000000 1.0
C      1  0.4810940000000  0.5173450000000  0.5456000000000 1.0
C      1  0.4868100000000  0.5578010000000  0.4615390000000 1.0
C      1  0.5569110000000  0.4822480000000  0.4616940000000 1.0
C      1  0.4558730000000  0.4598040000000  0.4607070000000 1.0
C      1  0.4542650000000  0.5330500000000  0.5318230000000 1.0
C      1  0.5516940000000  0.5230710000000  0.5318360000000 1.0
C      1  0.4942880000000  0.4438230000000  0.5320620000000 1.0
C      1  0.5411810000000  0.4775610000000  0.5041120000000 1.0
C      1  0.4602070000000  0.4749210000000  0.5046210000000 1.0
C      1  0.4986310000000  0.5471060000000  0.5042440000000 1.0
C      1  0.5427550000000  0.4509020000000  0.5498790000000 1.0
C      1  0.4359610000000  0.4874200000000  0.5500320000000 1.0
C      1  0.5211110000000  0.5618750000000  0.5499170000000 1.0
C      1  0.5160920000000  0.4548840000000  0.5079550000000 1.0
C      1  0.4530850000000  0.5079910000000  0.5084050000000 1.0
C      1  0.5308050000000  0.5367740000000  0.5083190000000 1.0
C      1  0.4720400000000  0.4608300000000  0.4382610000000 1.0
C      1  0.4791490000000  0.5433680000000  0.4391750000000 1.0
C      1  0.5481710000000  0.4958840000000  0.4392240000000 1.0
C      1  0.4691860000000  0.4915370000000  0.5591160000000 1.0
C      1  0.5080630000000  0.5310380000000  0.5589410000000 1.0
C      1  0.5228290000000  0.4777570000000  0.5590250000000 1.0
C      1  0.5179320000000  0.4740450000000  0.4644280000000 1.0
C      1  0.4685470000000  0.4975390000000  0.4640620000000 1.0
C      1  0.5137770000000  0.5284170000000  0.4637200000000 1.0
C      1  0.4959490000000  0.4408310000000  0.4844330000000 1.0
C      1  0.4506230000000  0.5325780000000  0.4850450000000 1.0
C      1  0.5533930000000  0.5264510000000  0.4850930000000 1.0
C      1  0.5269520000000  0.5748120000000  0.4966670000000 1.0
C      1  0.5512690000000  0.4394750000000  0.4968560000000 1.0
C      1  0.4219220000000  0.4858780000000  0.4966760000000 1.0
C      1  0.4904610000000  0.4800780000000  0.4796400000000 1.0
C      1  0.4875440000000  0.5185580000000  0.4791560000000 1.0
C      1  0.5225260000000  0.5018750000000  0.4790860000000 1.0
C      1  0.5612230000000  0.4983500000000  0.4861010000000 1.0
C      1  0.4676920000000  0.4482170000000  0.4849090000000 1.0
C      1  0.4707150000000  0.5536460000000  0.4859150000000 1.0
END
