TITL C-1154804-8633-631 0.000503940200624461 125000 -351.076945619391 0 0 60 (C1) n - 1
REM
REM in /home/nfs/bkarasulu/CARBON/AIRSS/Generating-Clusters/AIREBO/Higher-Symm/Only-C60
REM
REM
REM
REM
REM
REM ./C.cell (28575a23ae977d3b5fae324c64b13b57)
REM
REM compiler GCC version 9.2.1 20190827 (Red Hat 9.2.1-1)
REM options -cpp -mtune=generic -march=x86-64 -g -O0 -fpre-include=/usr/include/finclude/math-vector-fortran.h
REM seed -505574217 -554418765 2028058665 -1047607529 -1391552888 -2146056639 -335800762 -2069433237 -190000435 -1616513250 -1964345749 914010472 -388388964 -1827368117 1068388204 673379177 185190195 -1621971926 1105076033 -1193375677 913704288 -1621598080 -1142883950 2042127158 -399104495 -2107722157 1030674010 -328777662 -1939725386 2077050960 2134161764 -1618710162 -1577167668
REM
CELL 1.54180   50.00000   50.00000   50.00000   90.00000   90.00000   90.00000
LATT -1
SFAC C  
C      1  0.4924640000000  0.4356330000000  0.5499760000000 1.0
C      1  0.5489740000000  0.4328460000000  0.4845490000000 1.0
C      1  0.4619750000000  0.4344730000000  0.4670090000000 1.0
C      1  0.5439710000000  0.5660710000000  0.4928630000000 1.0
C      1  0.4724460000000  0.5657850000000  0.4656370000000 1.0
C      1  0.4843910000000  0.5654020000000  0.5423140000000 1.0
C      1  0.4706000000000  0.5016880000000  0.4305460000000 1.0
C      1  0.4539140000000  0.5033360000000  0.5646250000000 1.0
C      1  0.5753570000000  0.5033630000000  0.5121330000000 1.0
C      1  0.5221270000000  0.5108040000000  0.4814050000000 1.0
C      1  0.4663920000000  0.5132500000000  0.4949640000000 1.0
C      1  0.5028420000000  0.5096890000000  0.5289950000000 1.0
C      1  0.5234920000000  0.5651840000000  0.5134380000000 1.0
C      1  0.5017970000000  0.5663530000000  0.4700780000000 1.0
C      1  0.4737020000000  0.5665720000000  0.5149960000000 1.0
C      1  0.5704750000000  0.5203420000000  0.4912990000000 1.0
C      1  0.4568380000000  0.5196570000000  0.4453850000000 1.0
C      1  0.4762050000000  0.5186350000000  0.5678470000000 1.0
C      1  0.5022740000000  0.5050900000000  0.5600380000000 1.0
C      1  0.5538450000000  0.5078100000000  0.4691590000000 1.0
C      1  0.4449750000000  0.5088470000000  0.4702330000000 1.0
C      1  0.5257410000000  0.5266800000000  0.5589000000000 1.0
C      1  0.5573840000000  0.5252270000000  0.4426910000000 1.0
C      1  0.4197740000000  0.5256240000000  0.4804300000000 1.0
C      1  0.4444180000000  0.4563960000000  0.4661210000000 1.0
C      1  0.4992750000000  0.4540680000000  0.5699490000000 1.0
C      1  0.5605510000000  0.4550290000000  0.4713530000000 1.0
C      1  0.5307950000000  0.5090740000000  0.5127000000000 1.0
C      1  0.5146060000000  0.5119500000000  0.4507100000000 1.0
C      1  0.4464120000000  0.5152070000000  0.5166860000000 1.0
C      1  0.5297030000000  0.5723690000000  0.4681270000000 1.0
C      1  0.4589730000000  0.5732670000000  0.4903080000000 1.0
C      1  0.5130750000000  0.5713520000000  0.5397740000000 1.0
C      1  0.4406800000000  0.4796460000000  0.4807400000000 1.0
C      1  0.5140740000000  0.4774250000000  0.5648440000000 1.0
C      1  0.5486820000000  0.4779930000000  0.4609930000000 1.0
C      1  0.5357100000000  0.5313100000000  0.5361140000000 1.0
C      1  0.5305630000000  0.5272100000000  0.4348610000000 1.0
C      1  0.4227350000000  0.5283160000000  0.5081150000000 1.0
C      1  0.5544170000000  0.4073820000000  0.4777350000000 1.0
C      1  0.4538450000000  0.4089890000000  0.4640290000000 1.0
C      1  0.5064760000000  0.4179720000000  0.5279380000000 1.0
C      1  0.4614640000000  0.5474060000000  0.4471300000000 1.0
C      1  0.4763180000000  0.5464840000000  0.5619980000000 1.0
C      1  0.5662780000000  0.5484200000000  0.4931520000000 1.0
C      1  0.4590690000000  0.4633300000000  0.5258810000000 1.0
C      1  0.5384300000000  0.4576460000000  0.5227770000000 1.0
C      1  0.4997170000000  0.4598130000000  0.4564420000000 1.0
C      1  0.5259210000000  0.4738960000000  0.4464670000000 1.0
C      1  0.4376240000000  0.4772790000000  0.5078850000000 1.0
C      1  0.5372400000000  0.4729990000000  0.5502940000000 1.0
C      1  0.5304580000000  0.4398090000000  0.5045750000000 1.0
C      1  0.4887960000000  0.4414040000000  0.4724810000000 1.0
C      1  0.4789390000000  0.4461570000000  0.5246280000000 1.0
C      1  0.5507710000000  0.4877870000000  0.5232910000000 1.0
C      1  0.4960970000000  0.4893540000000  0.4408970000000 1.0
C      1  0.4473310000000  0.4921290000000  0.5372880000000 1.0
C      1  0.4975960000000  0.5527330000000  0.4989380000000 1.0
C      1  0.4956030000000  0.5223470000000  0.4994370000000 1.0
C      1  0.4989440000000  0.4358460000000  0.4999530000000 1.0
END
