TITL C-1154804-8633-329 599.340853235816 125000 -318.996147143705 0 0 60 (C1) n - 1
REM
REM in /home/nfs/bkarasulu/CARBON/AIRSS/Generating-Clusters/AIREBO/Higher-Symm/Only-C60
REM
REM
REM
REM
REM
REM ./C.cell (28575a23ae977d3b5fae324c64b13b57)
REM
REM compiler GCC version 9.2.1 20190827 (Red Hat 9.2.1-1)
REM options -cpp -mtune=generic -march=x86-64 -g -O0 -fpre-include=/usr/include/finclude/math-vector-fortran.h
REM seed -1547799448 1593238048 1696263315 -382148163 1040468977 575942997 151567860 -522578086 -903882899 1843660911 465177014 314768583 -227812214 211051608 1604920813 -1327409441 1495603464 -201633298 1191978833 1124428698 -1066637709 -1300054279 1852250610 -764620609 -867731247 -448039991 262316690 1116249841 -1765749174 860773010 2105291163 845347426 1134307271
REM
CELL 1.54180   50.00000   50.00000   50.00000   90.00000   90.00000   90.00000
LATT -1
SFAC C  
C      1  0.5457870000000  0.5246450000000  0.4777760000000 1.0
C      1  0.5176800000000  0.4969660000000  0.5510390000000 1.0
C      1  0.4385110000000  0.5389670000000  0.4998950000000 1.0
C      1  0.5350110000000  0.5452480000000  0.5441980000000 1.0
C      1  0.4984740000000  0.4423440000000  0.5206580000000 1.0
C      1  0.5006310000000  0.4605480000000  0.5560550000000 1.0
C      1  0.4545520000000  0.4613290000000  0.4643170000000 1.0
C      1  0.5395710000000  0.4771140000000  0.5652970000000 1.0
C      1  0.5379140000000  0.4456280000000  0.4852360000000 1.0
C      1  0.4918350000000  0.5708200000000  0.5268350000000 1.0
C      1  0.5037520000000  0.5444480000000  0.4648110000000 1.0
C      1  0.4663110000000  0.4986320000000  0.4894140000000 1.0
C      1  0.5217500000000  0.4619990000000  0.4601770000000 1.0
C      1  0.5465010000000  0.4769110000000  0.5320090000000 1.0
C      1  0.5253330000000  0.4526920000000  0.5372310000000 1.0
C      1  0.4883560000000  0.4637260000000  0.4537380000000 1.0
C      1  0.4395230000000  0.4914800000000  0.5399390000000 1.0
C      1  0.5629260000000  0.5329740000000  0.5052540000000 1.0
C      1  0.5838580000000  0.5161020000000  0.4856260000000 1.0
C      1  0.5492780000000  0.5547590000000  0.5196510000000 1.0
C      1  0.5221210000000  0.5192110000000  0.5011270000000 1.0
C      1  0.4972930000000  0.5175440000000  0.5360170000000 1.0
C      1  0.5287680000000  0.4287570000000  0.5133280000000 1.0
C      1  0.4515960000000  0.4335990000000  0.5207970000000 1.0
C      1  0.5086160000000  0.4283630000000  0.4847780000000 1.0
C      1  0.4990870000000  0.5441230000000  0.4980330000000 1.0
C      1  0.4859490000000  0.4501600000000  0.4912540000000 1.0
C      1  0.5740410000000  0.4810160000000  0.4914470000000 1.0
C      1  0.4864100000000  0.4906650000000  0.5629820000000 1.0
C      1  0.4255820000000  0.4870390000000  0.5168640000000 1.0
C      1  0.5635530000000  0.4983490000000  0.4661770000000 1.0
C      1  0.4594250000000  0.5104280000000  0.5560460000000 1.0
C      1  0.5222380000000  0.5116330000000  0.4371460000000 1.0
C      1  0.5699690000000  0.4529970000000  0.4867120000000 1.0
C      1  0.4822850000000  0.4855340000000  0.4300900000000 1.0
C      1  0.4800250000000  0.5721920000000  0.4957320000000 1.0
C      1  0.4553820000000  0.5536480000000  0.4459270000000 1.0
C      1  0.5336280000000  0.4920210000000  0.4581790000000 1.0
C      1  0.4422140000000  0.5056200000000  0.4476380000000 1.0
C      1  0.4727740000000  0.4457310000000  0.5369570000000 1.0
C      1  0.4677370000000  0.4754020000000  0.5396320000000 1.0
C      1  0.4552620000000  0.4822190000000  0.4412470000000 1.0
C      1  0.5284390000000  0.5341220000000  0.4552420000000 1.0
C      1  0.5645110000000  0.5011150000000  0.5171640000000 1.0
C      1  0.4945660000000  0.5103260000000  0.4323020000000 1.0
C      1  0.4625960000000  0.5355420000000  0.5436000000000 1.0
C      1  0.5363420000000  0.5154530000000  0.5294280000000 1.0
C      1  0.4422480000000  0.4771130000000  0.4921640000000 1.0
C      1  0.4698600000000  0.5320800000000  0.5111120000000 1.0
C      1  0.4810890000000  0.5325590000000  0.4488640000000 1.0
C      1  0.5326850000000  0.4724210000000  0.5034090000000 1.0
C      1  0.5236130000000  0.5647750000000  0.5093640000000 1.0
C      1  0.4545260000000  0.4465360000000  0.4946180000000 1.0
C      1  0.4903050000000  0.4805840000000  0.4820210000000 1.0
C      1  0.5175710000000  0.4919500000000  0.4863060000000 1.0
C      1  0.4750070000000  0.5010290000000  0.5205410000000 1.0
C      1  0.4714990000000  0.5611510000000  0.5490130000000 1.0
C      1  0.4596120000000  0.5543370000000  0.4795460000000 1.0
C      1  0.4582610000000  0.5217260000000  0.4698440000000 1.0
C      1  0.5057620000000  0.5436010000000  0.5381960000000 1.0
END
