TITL C-1154824-75-37 -0.0019192706598663 125000 -309.070789503611 0 0 60 (C1) n - 1
REM
REM in /home/nfs/bkarasulu/CARBON/AIRSS/Generating-Clusters/AIREBO/Higher-Symm/Only-C60
REM
REM
REM
REM
REM
REM ./C.cell (28575a23ae977d3b5fae324c64b13b57)
REM
REM compiler GCC version 9.2.1 20190827 (Red Hat 9.2.1-1)
REM options -cpp -mtune=generic -march=x86-64 -g -O0 -fpre-include=/usr/include/finclude/math-vector-fortran.h
REM seed -384557172 -724918372 -599667652 1956716311 1612002087 -1367031627 1948863104 -2111715718 -1741935828 -1400287886 -797553430 -1480459933 1718823418 -1376881640 -1000850621 2124606456 -399971894 -1841500730 1879374425 170140064 -653554317 1618082625 157546112 -1539483074 643692496 -508687063 629144519 1225543932 1896404567 -1720866735 2056414171 347087054 -1563643726
REM
CELL 1.54180   50.00000   50.00000   50.00000   90.00000   90.00000   90.00000
LATT -1
SFAC C  
C      1  0.4687130000000  0.5101690000000  0.5535850000000 1.0
C      1  0.5251760000000  0.5198820000000  0.5490340000000 1.0
C      1  0.5021460000000  0.4670260000000  0.5482660000000 1.0
C      1  0.5304030000000  0.4387950000000  0.4868720000000 1.0
C      1  0.4302400000000  0.4973730000000  0.4895650000000 1.0
C      1  0.5361120000000  0.5529730000000  0.4857290000000 1.0
C      1  0.5130980000000  0.4520120000000  0.5131310000000 1.0
C      1  0.4505870000000  0.5087870000000  0.5181400000000 1.0
C      1  0.5347760000000  0.5304640000000  0.5116920000000 1.0
C      1  0.4814090000000  0.5186720000000  0.5166770000000 1.0
C      1  0.5248900000000  0.4987390000000  0.5153640000000 1.0
C      1  0.4995130000000  0.4797220000000  0.5106220000000 1.0
C      1  0.5705720000000  0.4733130000000  0.4755450000000 1.0
C      1  0.4375320000000  0.4490640000000  0.4768570000000 1.0
C      1  0.4856380000000  0.5725220000000  0.4767560000000 1.0
C      1  0.4657280000000  0.4428190000000  0.5182300000000 1.0
C      1  0.4679090000000  0.5571260000000  0.5198020000000 1.0
C      1  0.5651640000000  0.4997580000000  0.5164560000000 1.0
C      1  0.4928090000000  0.4151190000000  0.5090440000000 1.0
C      1  0.4315130000000  0.5431730000000  0.5113510000000 1.0
C      1  0.5761560000000  0.5390070000000  0.5134590000000 1.0
C      1  0.5188170000000  0.5594560000000  0.5141820000000 1.0
C      1  0.5460570000000  0.4528850000000  0.5135660000000 1.0
C      1  0.4333070000000  0.4825520000000  0.5183970000000 1.0
C      1  0.4952680000000  0.5574990000000  0.5278120000000 1.0
C      1  0.5548270000000  0.4753150000000  0.5274640000000 1.0
C      1  0.4545900000000  0.4665710000000  0.5284690000000 1.0
C      1  0.4685190000000  0.5310190000000  0.4691180000000 1.0
C      1  0.5462440000000  0.5182500000000  0.4664040000000 1.0
C      1  0.4860890000000  0.4528670000000  0.4645340000000 1.0
C      1  0.4946090000000  0.4365730000000  0.5350520000000 1.0
C      1  0.4519000000000  0.5355190000000  0.5374690000000 1.0
C      1  0.5564010000000  0.5254500000000  0.5365050000000 1.0
C      1  0.5326000000000  0.5315940000000  0.4398540000000 1.0
C      1  0.5070020000000  0.4529480000000  0.4403250000000 1.0
C      1  0.4642080000000  0.5106670000000  0.4443670000000 1.0
C      1  0.4881160000000  0.4820320000000  0.4819090000000 1.0
C      1  0.4895680000000  0.5144830000000  0.4877720000000 1.0
C      1  0.5197980000000  0.5060560000000  0.4839630000000 1.0
C      1  0.4631140000000  0.5565640000000  0.4908950000000 1.0
C      1  0.5673570000000  0.5008000000000  0.4865570000000 1.0
C      1  0.4651170000000  0.4401250000000  0.4880750000000 1.0
C      1  0.5107720000000  0.5717550000000  0.4771310000000 1.0
C      1  0.5579310000000  0.4515840000000  0.4754700000000 1.0
C      1  0.4338860000000  0.4740360000000  0.4699810000000 1.0
C      1  0.5651890000000  0.5377270000000  0.4868490000000 1.0
C      1  0.4997980000000  0.4285830000000  0.4837960000000 1.0
C      1  0.4389640000000  0.5290310000000  0.4858180000000 1.0
C      1  0.4912500000000  0.5463840000000  0.5720790000000 1.0
C      1  0.5419940000000  0.4803040000000  0.5733560000000 1.0
C      1  0.4603900000000  0.5046850000000  0.5820630000000 1.0
C      1  0.5056710000000  0.5280060000000  0.4354820000000 1.0
C      1  0.5158080000000  0.4788550000000  0.4380930000000 1.0
C      1  0.4925850000000  0.4979270000000  0.4337820000000 1.0
C      1  0.4881580000000  0.5460110000000  0.4469440000000 1.0
C      1  0.5329710000000  0.4881720000000  0.4577150000000 1.0
C      1  0.4691740000000  0.4802480000000  0.4535370000000 1.0
C      1  0.4949140000000  0.5303350000000  0.5456390000000 1.0
C      1  0.5291490000000  0.4861910000000  0.5466970000000 1.0
C      1  0.4778040000000  0.4844240000000  0.5367040000000 1.0
END
