TITL C-1154821-8623-149 -0.00108605305142572 125000 -321.982070624966 0 0 60 (C1) n - 1
REM
REM in /home/nfs/bkarasulu/CARBON/AIRSS/Generating-Clusters/AIREBO/Higher-Symm/Only-C60
REM
REM
REM
REM
REM
REM ./C.cell (28575a23ae977d3b5fae324c64b13b57)
REM
REM compiler GCC version 9.2.1 20190827 (Red Hat 9.2.1-1)
REM options -cpp -mtune=generic -march=x86-64 -g -O0 -fpre-include=/usr/include/finclude/math-vector-fortran.h
REM seed -2038476013 1398992348 685794944 604600746 2073772305 -1622071954 -1148914712 505979369 -1043164486 1064573326 1095848325 423961672 142987501 -553107297 1068006587 -1266890898 -407570942 -420920127 -1114856403 -1076889988 751776958 1395210342 1021094982 1108324515 1527499193 444922801 463171028 -1931382998 -337640700 1455437232 116380583 -1954730648 1727845054
REM
CELL 1.54180   50.00000   50.00000   50.00000   90.00000   90.00000   90.00000
LATT -1
SFAC C  
C      1  0.4521620000000  0.5393060000000  0.4544950000000 1.0
C      1  0.5500510000000  0.4630670000000  0.4563110000000 1.0
C      1  0.4485690000000  0.4572130000000  0.5441610000000 1.0
C      1  0.5511710000000  0.5425790000000  0.5455770000000 1.0
C      1  0.5251450000000  0.5543910000000  0.5418460000000 1.0
C      1  0.4746040000000  0.4453480000000  0.5408120000000 1.0
C      1  0.5244930000000  0.4506310000000  0.4605420000000 1.0
C      1  0.4791470000000  0.5487950000000  0.4582320000000 1.0
C      1  0.5159500000000  0.4970850000000  0.4559380000000 1.0
C      1  0.4827650000000  0.5045140000000  0.4566390000000 1.0
C      1  0.5174490000000  0.5107320000000  0.5418230000000 1.0
C      1  0.4825020000000  0.4891580000000  0.5413960000000 1.0
C      1  0.4509920000000  0.5092210000000  0.5273990000000 1.0
C      1  0.5491100000000  0.4908230000000  0.5279090000000 1.0
C      1  0.4503590000000  0.4890330000000  0.4740860000000 1.0
C      1  0.5495240000000  0.5110610000000  0.4741600000000 1.0
C      1  0.5699680000000  0.5141450000000  0.4932270000000 1.0
C      1  0.4298750000000  0.4858280000000  0.4931550000000 1.0
C      1  0.5711740000000  0.4897740000000  0.5088280000000 1.0
C      1  0.4290330000000  0.5106780000000  0.5083300000000 1.0
C      1  0.4512990000000  0.4856780000000  0.5455110000000 1.0
C      1  0.5486150000000  0.5140370000000  0.5464610000000 1.0
C      1  0.4509870000000  0.5103850000000  0.4543870000000 1.0
C      1  0.5476900000000  0.4915750000000  0.4529360000000 1.0
C      1  0.4936470000000  0.4851340000000  0.4236110000000 1.0
C      1  0.4931390000000  0.5137920000000  0.4192250000000 1.0
C      1  0.5000170000000  0.5144940000000  0.5779150000000 1.0
C      1  0.5007050000000  0.4850130000000  0.5767480000000 1.0
C      1  0.5677420000000  0.5423550000000  0.5012440000000 1.0
C      1  0.4326170000000  0.4571530000000  0.4996880000000 1.0
C      1  0.5634940000000  0.4605200000000  0.5036840000000 1.0
C      1  0.4371750000000  0.5397300000000  0.5023160000000 1.0
C      1  0.5217810000000  0.4826890000000  0.5137090000000 1.0
C      1  0.4784590000000  0.5172800000000  0.5133450000000 1.0
C      1  0.5225320000000  0.5244170000000  0.4841330000000 1.0
C      1  0.4781330000000  0.4757310000000  0.4838010000000 1.0
C      1  0.4901700000000  0.5188760000000  0.4822550000000 1.0
C      1  0.5105000000000  0.4813050000000  0.4819300000000 1.0
C      1  0.4899750000000  0.4728820000000  0.5149080000000 1.0
C      1  0.5105100000000  0.5269990000000  0.5153620000000 1.0
C      1  0.5442500000000  0.5570370000000  0.4917790000000 1.0
C      1  0.4562290000000  0.4428470000000  0.4896040000000 1.0
C      1  0.5391020000000  0.4468410000000  0.5116730000000 1.0
C      1  0.4618140000000  0.5533370000000  0.5099520000000 1.0
C      1  0.4967240000000  0.5370570000000  0.4383370000000 1.0
C      1  0.5067910000000  0.4583200000000  0.4405400000000 1.0
C      1  0.4921620000000  0.4559120000000  0.5613300000000 1.0
C      1  0.5071850000000  0.5436880000000  0.5619560000000 1.0
C      1  0.4770600000000  0.4716290000000  0.4500600000000 1.0
C      1  0.5228460000000  0.5300920000000  0.4514010000000 1.0
C      1  0.4856170000000  0.5226890000000  0.5461440000000 1.0
C      1  0.5140440000000  0.4772030000000  0.5463640000000 1.0
C      1  0.5169130000000  0.5582900000000  0.5090280000000 1.0
C      1  0.4835440000000  0.4415920000000  0.5081640000000 1.0
C      1  0.5133380000000  0.4492480000000  0.4926610000000 1.0
C      1  0.4884050000000  0.5512460000000  0.4909370000000 1.0
C      1  0.5400460000000  0.5545510000000  0.4646000000000 1.0
C      1  0.4599120000000  0.4447660000000  0.4619180000000 1.0
C      1  0.5327500000000  0.4499080000000  0.5385290000000 1.0
C      1  0.4680370000000  0.5503220000000  0.5369860000000 1.0
END
