TITL C-1154821-8623-540 0.00075552530475695 125000 -350.96174068347 0 0 60 (C1) n - 1
REM
REM in /home/nfs/bkarasulu/CARBON/AIRSS/Generating-Clusters/AIREBO/Higher-Symm/Only-C60
REM
REM
REM
REM
REM
REM ./C.cell (28575a23ae977d3b5fae324c64b13b57)
REM
REM compiler GCC version 9.2.1 20190827 (Red Hat 9.2.1-1)
REM options -cpp -mtune=generic -march=x86-64 -g -O0 -fpre-include=/usr/include/finclude/math-vector-fortran.h
REM seed -309530287 761406496 949507482 -1589194003 -296820396 829299433 344274971 252885587 -2080749894 -1143060418 -818039932 1254565027 2053823075 857245344 337647236 1334443645 -1853748312 -804679513 1868022659 1465717876 360701948 -157317058 -1770532705 1720289546 898573488 -2049935547 -1958607108 974424258 1591170241 1825371071 1806166567 70450615 -1450426641
REM
CELL 1.54180   50.00000   50.00000   50.00000   90.00000   90.00000   90.00000
LATT -1
SFAC C  
C      1  0.5195490000000  0.4539750000000  0.4558120000000 1.0
C      1  0.4487000000000  0.5041900000000  0.5433820000000 1.0
C      1  0.5309550000000  0.4689170000000  0.5642370000000 1.0
C      1  0.5791500000000  0.5027540000000  0.4952560000000 1.0
C      1  0.5114480000000  0.4864390000000  0.5720560000000 1.0
C      1  0.5464010000000  0.4921430000000  0.4253340000000 1.0
C      1  0.4701700000000  0.4065940000000  0.4786820000000 1.0
C      1  0.5045960000000  0.4403500000000  0.4991770000000 1.0
C      1  0.4388550000000  0.5358320000000  0.5111070000000 1.0
C      1  0.5501280000000  0.4964670000000  0.4587970000000 1.0
C      1  0.5476610000000  0.5246400000000  0.4697740000000 1.0
C      1  0.5221580000000  0.5340790000000  0.4733280000000 1.0
C      1  0.4952640000000  0.4920460000000  0.4588510000000 1.0
C      1  0.4248300000000  0.4624140000000  0.4877460000000 1.0
C      1  0.5645760000000  0.4817430000000  0.4814190000000 1.0
C      1  0.5406370000000  0.4405640000000  0.5635980000000 1.0
C      1  0.5296100000000  0.4483490000000  0.4816380000000 1.0
C      1  0.4778120000000  0.5439100000000  0.5387600000000 1.0
C      1  0.5059550000000  0.5524420000000  0.4591430000000 1.0
C      1  0.4232230000000  0.5169180000000  0.4991820000000 1.0
C      1  0.4897440000000  0.5037650000000  0.5702370000000 1.0
C      1  0.4999240000000  0.5602890000000  0.5573710000000 1.0
C      1  0.4876260000000  0.4272110000000  0.4759740000000 1.0
C      1  0.4374420000000  0.4917490000000  0.4841600000000 1.0
C      1  0.4596290000000  0.5533230000000  0.4648810000000 1.0
C      1  0.5048210000000  0.5770810000000  0.4741930000000 1.0
C      1  0.5126920000000  0.4038410000000  0.5407520000000 1.0
C      1  0.4557230000000  0.4934990000000  0.4599420000000 1.0
C      1  0.5036710000000  0.5731850000000  0.5025410000000 1.0
C      1  0.5103000000000  0.4205470000000  0.5216040000000 1.0
C      1  0.4617460000000  0.4637250000000  0.5143640000000 1.0
C      1  0.5673540000000  0.5286790000000  0.4901910000000 1.0
C      1  0.5525760000000  0.4594680000000  0.4930380000000 1.0
C      1  0.4508840000000  0.4929950000000  0.5153790000000 1.0
C      1  0.5222960000000  0.4828970000000  0.4475180000000 1.0
C      1  0.4629180000000  0.4956400000000  0.5659910000000 1.0
C      1  0.4912310000000  0.4664800000000  0.5074870000000 1.0
C      1  0.4809340000000  0.5421190000000  0.4508500000000 1.0
C      1  0.5160830000000  0.5803750000000  0.5478250000000 1.0
C      1  0.4495910000000  0.5319710000000  0.5367860000000 1.0
C      1  0.5205940000000  0.5051680000000  0.5186040000000 1.0
C      1  0.4936840000000  0.5309550000000  0.5659880000000 1.0
C      1  0.5666160000000  0.5528510000000  0.5040870000000 1.0
C      1  0.5243600000000  0.5795770000000  0.5207300000000 1.0
C      1  0.4737720000000  0.4677150000000  0.4515020000000 1.0
C      1  0.5555070000000  0.4330330000000  0.5411430000000 1.0
C      1  0.4615650000000  0.5450620000000  0.4927160000000 1.0
C      1  0.4418270000000  0.5717000000000  0.4555160000000 1.0
C      1  0.5581570000000  0.4539930000000  0.5199080000000 1.0
C      1  0.5085940000000  0.4847930000000  0.5268690000000 1.0
C      1  0.5071610000000  0.5244390000000  0.4978720000000 1.0
C      1  0.5519280000000  0.4728250000000  0.5428220000000 1.0
C      1  0.4920470000000  0.4451780000000  0.4540920000000 1.0
C      1  0.4746010000000  0.5102640000000  0.4141370000000 1.0
C      1  0.5503760000000  0.5729220000000  0.5125590000000 1.0
C      1  0.4891780000000  0.5466760000000  0.5090980000000 1.0
C      1  0.4416870000000  0.4477340000000  0.5045250000000 1.0
C      1  0.4940220000000  0.4952530000000  0.4892680000000 1.0
C      1  0.4688640000000  0.5126970000000  0.4983200000000 1.0
C      1  0.4765940000000  0.5135620000000  0.4418810000000 1.0
END
