TITL C-1154828-9214-627 0.00128512647522869 125000 -330.39752406546 0 0 60 (C1) n - 1
REM
REM in /home/nfs/bkarasulu/CARBON/AIRSS/Generating-Clusters/AIREBO/Higher-Symm/Only-C60
REM
REM
REM
REM
REM
REM ./C.cell (28575a23ae977d3b5fae324c64b13b57)
REM
REM compiler GCC version 9.2.1 20190827 (Red Hat 9.2.1-1)
REM options -cpp -mtune=generic -march=x86-64 -g -O0 -fpre-include=/usr/include/finclude/math-vector-fortran.h
REM seed 729909408 2059761344 -2099336006 778266381 8570567 -857825051 669531272 -144364336 -2041599045 -948825193 809270738 -1982543703 -299683256 180339116 160976738 240932177 -81612260 1814052863 537253004 479615452 -653326359 382846593 -749431113 -1731184142 -422858398 1376329313 538691110 2041407136 -1391863580 -241528643 277278817 -241227406 782268543
REM
CELL 1.54180   50.00000   50.00000   50.00000   90.00000   90.00000   90.00000
LATT -1
SFAC C  
C      1  0.5518510000000  0.4609430000000  0.4741990000000 1.0
C      1  0.4429280000000  0.4739240000000  0.5584920000000 1.0
C      1  0.5626030000000  0.5616710000000  0.5331220000000 1.0
C      1  0.4430410000000  0.5235760000000  0.4440620000000 1.0
C      1  0.4475320000000  0.4379290000000  0.5254470000000 1.0
C      1  0.5427670000000  0.5263780000000  0.5584150000000 1.0
C      1  0.4622770000000  0.5417500000000  0.4825610000000 1.0
C      1  0.5461190000000  0.4726370000000  0.4288880000000 1.0
C      1  0.5426620000000  0.4902530000000  0.4874080000000 1.0
C      1  0.4685870000000  0.4979860000000  0.5234510000000 1.0
C      1  0.5273640000000  0.5245700000000  0.5007270000000 1.0
C      1  0.4821360000000  0.5065260000000  0.4685470000000 1.0
C      1  0.5038100000000  0.5594080000000  0.4707610000000 1.0
C      1  0.4927920000000  0.4736050000000  0.4311250000000 1.0
C      1  0.5008450000000  0.4371980000000  0.5287100000000 1.0
C      1  0.4993160000000  0.5250620000000  0.5616880000000 1.0
C      1  0.5263720000000  0.4501420000000  0.5288480000000 1.0
C      1  0.4790130000000  0.5182510000000  0.5431240000000 1.0
C      1  0.5202340000000  0.5358630000000  0.4760620000000 1.0
C      1  0.4822830000000  0.4744590000000  0.4616120000000 1.0
C      1  0.4874610000000  0.5507100000000  0.4452530000000 1.0
C      1  0.5078910000000  0.4534470000000  0.4544290000000 1.0
C      1  0.4858500000000  0.4509010000000  0.5503560000000 1.0
C      1  0.5122720000000  0.5511710000000  0.5516400000000 1.0
C      1  0.4366170000000  0.4769540000000  0.4760070000000 1.0
C      1  0.5521690000000  0.4821720000000  0.5190770000000 1.0
C      1  0.4379470000000  0.5006390000000  0.5146010000000 1.0
C      1  0.5576450000000  0.5172980000000  0.5015710000000 1.0
C      1  0.4892630000000  0.4313690000000  0.5029500000000 1.0
C      1  0.5112780000000  0.4996310000000  0.5709400000000 1.0
C      1  0.4914270000000  0.5676950000000  0.4972950000000 1.0
C      1  0.5036770000000  0.4981660000000  0.4218460000000 1.0
C      1  0.5382030000000  0.4567110000000  0.4508440000000 1.0
C      1  0.4573390000000  0.4512970000000  0.5486920000000 1.0
C      1  0.5435690000000  0.5546830000000  0.5525320000000 1.0
C      1  0.4615700000000  0.5418210000000  0.4546710000000 1.0
C      1  0.5407470000000  0.4988500000000  0.5630980000000 1.0
C      1  0.4593610000000  0.5674140000000  0.4997310000000 1.0
C      1  0.5341340000000  0.4978650000000  0.4265810000000 1.0
C      1  0.4624020000000  0.4404100000000  0.5015350000000 1.0
C      1  0.5878170000000  0.5293420000000  0.4913820000000 1.0
C      1  0.4085610000000  0.4789190000000  0.4603050000000 1.0
C      1  0.5815360000000  0.4662800000000  0.5261980000000 1.0
C      1  0.4421720000000  0.5284800000000  0.5314730000000 1.0
C      1  0.4625040000000  0.4658600000000  0.4857310000000 1.0
C      1  0.5247300000000  0.4830730000000  0.5371750000000 1.0
C      1  0.4712450000000  0.5429010000000  0.5213170000000 1.0
C      1  0.5221180000000  0.5144650000000  0.4531540000000 1.0
C      1  0.5722350000000  0.5458610000000  0.5128540000000 1.0
C      1  0.4316040000000  0.5005730000000  0.4537260000000 1.0
C      1  0.5698930000000  0.4631390000000  0.4971760000000 1.0
C      1  0.4365200000000  0.4987860000000  0.5472350000000 1.0
C      1  0.5122330000000  0.4946440000000  0.4789970000000 1.0
C      1  0.4872310000000  0.4835410000000  0.4999820000000 1.0
C      1  0.5075950000000  0.5047250000000  0.5170860000000 1.0
C      1  0.4860520000000  0.5229870000000  0.4980620000000 1.0
C      1  0.5016670000000  0.4306400000000  0.4769750000000 1.0
C      1  0.5001200000000  0.4737080000000  0.5586990000000 1.0
C      1  0.4981040000000  0.5621420000000  0.5293480000000 1.0
C      1  0.5007040000000  0.5286000000000  0.4322300000000 1.0
END
