TITL C-1154826-9507-527 0.00116725908217695 125000 -339.787041231364 0 0 60 (C1) n - 1
REM
REM in /home/nfs/bkarasulu/CARBON/AIRSS/Generating-Clusters/AIREBO/Higher-Symm/Only-C60
REM
REM
REM
REM
REM
REM ./C.cell (28575a23ae977d3b5fae324c64b13b57)
REM
REM compiler GCC version 9.2.1 20190827 (Red Hat 9.2.1-1)
REM options -cpp -mtune=generic -march=x86-64 -g -O0 -fpre-include=/usr/include/finclude/math-vector-fortran.h
REM seed 1447933896 370184203 -1667665550 -1877297527 1659774636 238616298 1183460286 1349335107 1376426162 587230875 57147096 693736464 -164335137 -2012458628 213569461 -177239802 1285109890 -1687172177 -1076600446 -144225559 1484461074 1564924307 -1664114907 -685811574 1492730630 -345507459 277984348 -579177111 1960431473 2144096101 1467002596 1684620872 -573560767
REM
CELL 1.54180   50.00000   50.00000   50.00000   90.00000   90.00000   90.00000
LATT -1
SFAC C  
C      1  0.4809080000000  0.4799870000000  0.4727830000000 1.0
C      1  0.5128800000000  0.4915100000000  0.4711440000000 1.0
C      1  0.5312390000000  0.4989050000000  0.4988330000000 1.0
C      1  0.4749810000000  0.4888610000000  0.5050670000000 1.0
C      1  0.4921010000000  0.4432540000000  0.4252950000000 1.0
C      1  0.5647740000000  0.4425310000000  0.5149080000000 1.0
C      1  0.4887080000000  0.4403060000000  0.5474740000000 1.0
C      1  0.4491760000000  0.4352410000000  0.5100830000000 1.0
C      1  0.4438800000000  0.4933280000000  0.5669990000000 1.0
C      1  0.4328420000000  0.4894460000000  0.4604340000000 1.0
C      1  0.5415250000000  0.4901870000000  0.4291080000000 1.0
C      1  0.5554520000000  0.5055900000000  0.5425550000000 1.0
C      1  0.5530500000000  0.5264060000000  0.4639770000000 1.0
C      1  0.5586110000000  0.5360230000000  0.5366050000000 1.0
C      1  0.4645340000000  0.5394440000000  0.5574030000000 1.0
C      1  0.4528500000000  0.5367860000000  0.4760140000000 1.0
C      1  0.5220070000000  0.5696570000000  0.4993950000000 1.0
C      1  0.5017310000000  0.5689380000000  0.5226420000000 1.0
C      1  0.4764920000000  0.5578180000000  0.5076230000000 1.0
C      1  0.4830320000000  0.5439240000000  0.4787300000000 1.0
C      1  0.5243210000000  0.4562790000000  0.4861880000000 1.0
C      1  0.5197240000000  0.4659260000000  0.5184860000000 1.0
C      1  0.4899540000000  0.4599080000000  0.5060250000000 1.0
C      1  0.4954230000000  0.4491410000000  0.4746040000000 1.0
C      1  0.4693670000000  0.5001350000000  0.4483240000000 1.0
C      1  0.5431490000000  0.4762510000000  0.4681690000000 1.0
C      1  0.5183280000000  0.4977960000000  0.5302670000000 1.0
C      1  0.4522390000000  0.4960560000000  0.5194780000000 1.0
C      1  0.4391960000000  0.5475710000000  0.4976390000000 1.0
C      1  0.5285020000000  0.5400030000000  0.4577060000000 1.0
C      1  0.5605350000000  0.5435730000000  0.5098420000000 1.0
C      1  0.4890050000000  0.5467930000000  0.5643710000000 1.0
C      1  0.5170140000000  0.4410650000000  0.5393700000000 1.0
C      1  0.4738380000000  0.4398120000000  0.5226500000000 1.0
C      1  0.4894020000000  0.4321060000000  0.4502730000000 1.0
C      1  0.5417600000000  0.4337500000000  0.5022900000000 1.0
C      1  0.5722490000000  0.4692070000000  0.5082910000000 1.0
C      1  0.4851630000000  0.4643180000000  0.5630870000000 1.0
C      1  0.4377970000000  0.4576380000000  0.4967040000000 1.0
C      1  0.4957950000000  0.4711690000000  0.4233860000000 1.0
C      1  0.5496140000000  0.5688220000000  0.5035620000000 1.0
C      1  0.4975620000000  0.5950330000000  0.5330980000000 1.0
C      1  0.4477480000000  0.5763640000000  0.5066170000000 1.0
C      1  0.5121920000000  0.5601020000000  0.4754900000000 1.0
C      1  0.5560040000000  0.4893580000000  0.5201030000000 1.0
C      1  0.4621490000000  0.4747200000000  0.5749910000000 1.0
C      1  0.4488160000000  0.4687170000000  0.4728710000000 1.0
C      1  0.5166520000000  0.4818350000000  0.4387490000000 1.0
C      1  0.4532500000000  0.5427180000000  0.5271310000000 1.0
C      1  0.5043870000000  0.5226750000000  0.4655870000000 1.0
C      1  0.5538310000000  0.5227950000000  0.4922410000000 1.0
C      1  0.5084670000000  0.5486990000000  0.5455760000000 1.0
C      1  0.5061160000000  0.4822900000000  0.5562330000000 1.0
C      1  0.4303790000000  0.4789590000000  0.5141100000000 1.0
C      1  0.4740340000000  0.4889890000000  0.4230270000000 1.0
C      1  0.5732820000000  0.4728520000000  0.4798070000000 1.0
C      1  0.4466200000000  0.5163870000000  0.4586230000000 1.0
C      1  0.5572640000000  0.5018390000000  0.4507700000000 1.0
C      1  0.5278490000000  0.5268370000000  0.5428740000000 1.0
C      1  0.4502510000000  0.5133690000000  0.5443150000000 1.0
END
