TITL C-1154801-8518-108 0.00104366832453658 125000 -312.002438176599 0 0 60 (C1) n - 1
REM
REM in /home/nfs/bkarasulu/CARBON/AIRSS/Generating-Clusters/AIREBO/Higher-Symm/Only-C60
REM
REM
REM
REM
REM
REM ./C.cell (28575a23ae977d3b5fae324c64b13b57)
REM
REM compiler GCC version 9.2.1 20190827 (Red Hat 9.2.1-1)
REM options -cpp -mtune=generic -march=x86-64 -g -O0 -fpre-include=/usr/include/finclude/math-vector-fortran.h
REM seed -1189082076 1136889051 596508159 -145432276 -1832064846 -250409974 -1718028500 -26973522 -34181728 1885296287 2088075832 -1495068683 806824753 2152374 -1382094034 276048666 -59933732 -319796371 1197335522 827089066 -1855089072 106434243 220833949 -624164353 900305336 -302744398 -1567981350 1280045216 1776172036 -275639526 386978963 -1893448031 -652884339
REM
CELL 1.54180   50.00000   50.00000   50.00000   90.00000   90.00000   90.00000
LATT -1
SFAC C  
C      1  0.5139120000000  0.5255900000000  0.5748320000000 1.0
C      1  0.4805170000000  0.5236540000000  0.5746810000000 1.0
C      1  0.4731030000000  0.4905230000000  0.5765250000000 1.0
C      1  0.5014410000000  0.4749620000000  0.5735420000000 1.0
C      1  0.5258680000000  0.4964840000000  0.5777570000000 1.0
C      1  0.4847350000000  0.5262650000000  0.4247190000000 1.0
C      1  0.5179410000000  0.5225460000000  0.4256370000000 1.0
C      1  0.5244080000000  0.4905910000000  0.4278950000000 1.0
C      1  0.4961450000000  0.4740850000000  0.4256440000000 1.0
C      1  0.4707920000000  0.4961200000000  0.4238340000000 1.0
C      1  0.5493550000000  0.5449570000000  0.5044700000000 1.0
C      1  0.4877530000000  0.5539980000000  0.5054170000000 1.0
C      1  0.4399910000000  0.4924960000000  0.5064280000000 1.0
C      1  0.4937910000000  0.4315720000000  0.5119530000000 1.0
C      1  0.5417710000000  0.4671330000000  0.5074130000000 1.0
C      1  0.4543250000000  0.5276240000000  0.4938370000000 1.0
C      1  0.5245320000000  0.5638610000000  0.4913300000000 1.0
C      1  0.5619060000000  0.4933760000000  0.4984230000000 1.0
C      1  0.5075440000000  0.4318370000000  0.4887780000000 1.0
C      1  0.4542080000000  0.4640640000000  0.4943640000000 1.0
C      1  0.4466190000000  0.4841200000000  0.4679920000000 1.0
C      1  0.4943170000000  0.4413840000000  0.4649290000000 1.0
C      1  0.5480930000000  0.4814450000000  0.4711180000000 1.0
C      1  0.5334910000000  0.5445270000000  0.4681910000000 1.0
C      1  0.4660770000000  0.5468200000000  0.4725820000000 1.0
C      1  0.5436110000000  0.4882310000000  0.5334090000000 1.0
C      1  0.5063880000000  0.4411150000000  0.5363150000000 1.0
C      1  0.4542140000000  0.4801830000000  0.5306750000000 1.0
C      1  0.4665340000000  0.5464200000000  0.5269070000000 1.0
C      1  0.5314500000000  0.5483340000000  0.5315330000000 1.0
C      1  0.5280290000000  0.4566870000000  0.4795920000000 1.0
C      1  0.5509000000000  0.5200390000000  0.4803830000000 1.0
C      1  0.4959740000000  0.5557190000000  0.4746560000000 1.0
C      1  0.4485780000000  0.5113370000000  0.4701610000000 1.0
C      1  0.4690810000000  0.4521030000000  0.4670650000000 1.0
C      1  0.4714160000000  0.4537830000000  0.5219060000000 1.0
C      1  0.4508940000000  0.5192800000000  0.5243650000000 1.0
C      1  0.5050210000000  0.5553960000000  0.5292140000000 1.0
C      1  0.5523550000000  0.5167320000000  0.5201560000000 1.0
C      1  0.5327670000000  0.4502440000000  0.5347090000000 1.0
C      1  0.5498730000000  0.5201980000000  0.4208200000000 1.0
C      1  0.4968990000000  0.5552870000000  0.4176010000000 1.0
C      1  0.4473290000000  0.5167270000000  0.4152430000000 1.0
C      1  0.4711430000000  0.4577560000000  0.4130760000000 1.0
C      1  0.5333300000000  0.4608760000000  0.4198940000000 1.0
C      1  0.4485920000000  0.5215030000000  0.5800000000000 1.0
C      1  0.5039810000000  0.5548410000000  0.5829180000000 1.0
C      1  0.5565640000000  0.4984650000000  0.5631340000000 1.0
C      1  0.5292710000000  0.4639940000000  0.5885270000000 1.0
C      1  0.4658160000000  0.4595010000000  0.5814540000000 1.0
C      1  0.4599890000000  0.4708380000000  0.4422900000000 1.0
C      1  0.5149040000000  0.4574280000000  0.4480130000000 1.0
C      1  0.5437510000000  0.5050620000000  0.4506900000000 1.0
C      1  0.5112110000000  0.5460480000000  0.4470430000000 1.0
C      1  0.4588230000000  0.5281660000000  0.4450900000000 1.0
C      1  0.5453560000000  0.4665140000000  0.5599910000000 1.0
C      1  0.4846040000000  0.4558610000000  0.5533240000000 1.0
C      1  0.4549810000000  0.5026660000000  0.5523590000000 1.0
C      1  0.4865470000000  0.5490470000000  0.5543070000000 1.0
C      1  0.5371910000000  0.5235820000000  0.5508870000000 1.0
END
