TITL C-1154821-8623-8 0.00287502153934626 125000 -325.518521518094 0 0 60 (C1) n - 1
REM
REM in /home/nfs/bkarasulu/CARBON/AIRSS/Generating-Clusters/AIREBO/Higher-Symm/Only-C60
REM
REM
REM
REM
REM
REM ./C.cell (28575a23ae977d3b5fae324c64b13b57)
REM
REM compiler GCC version 9.2.1 20190827 (Red Hat 9.2.1-1)
REM options -cpp -mtune=generic -march=x86-64 -g -O0 -fpre-include=/usr/include/finclude/math-vector-fortran.h
REM seed -690089772 1429411792 1347358461 193946210 529436335 1897789616 735417288 1082732445 1226630855 -1124016701 1150776952 -210499766 -710457498 1633174340 1315410298 -1354561089 -158483271 -1608544055 1395966422 1179082829 1816069306 -622980261 -1926616435 948045861 913764974 -417293688 -1102629468 1563954794 -592794658 -324391800 -1302083146 494718685 -821451719
REM
CELL 1.54180   50.00000   50.00000   50.00000   90.00000   90.00000   90.00000
LATT -1
SFAC C  
C      1  0.5560180000000  0.5390530000000  0.4849200000000 1.0
C      1  0.4490850000000  0.5330710000000  0.5246930000000 1.0
C      1  0.5500860000000  0.4724800000000  0.4755710000000 1.0
C      1  0.4530450000000  0.4687500000000  0.5200530000000 1.0
C      1  0.4454640000000  0.5327990000000  0.4776630000000 1.0
C      1  0.5398680000000  0.5294540000000  0.5133640000000 1.0
C      1  0.4539010000000  0.4737540000000  0.4794630000000 1.0
C      1  0.5487540000000  0.4702430000000  0.5217280000000 1.0
C      1  0.5705310000000  0.5166110000000  0.5140890000000 1.0
C      1  0.4241010000000  0.5165610000000  0.4870050000000 1.0
C      1  0.5701670000000  0.4865300000000  0.5155530000000 1.0
C      1  0.4272070000000  0.4874420000000  0.4786930000000 1.0
C      1  0.4280180000000  0.5158180000000  0.5179310000000 1.0
C      1  0.5809900000000  0.5183100000000  0.4818230000000 1.0
C      1  0.4329190000000  0.4861990000000  0.5111320000000 1.0
C      1  0.5713810000000  0.4892210000000  0.4851780000000 1.0
C      1  0.4742350000000  0.4825310000000  0.4466650000000 1.0
C      1  0.5255520000000  0.4880020000000  0.5646690000000 1.0
C      1  0.4705150000000  0.5144220000000  0.4525640000000 1.0
C      1  0.5251100000000  0.5137610000000  0.5530890000000 1.0
C      1  0.5216040000000  0.4755900000000  0.4477640000000 1.0
C      1  0.4733890000000  0.4841100000000  0.5506260000000 1.0
C      1  0.5267900000000  0.5048260000000  0.4466780000000 1.0
C      1  0.4741510000000  0.5120230000000  0.5506750000000 1.0
C      1  0.5236840000000  0.4475120000000  0.4471240000000 1.0
C      1  0.4731520000000  0.4516330000000  0.5500190000000 1.0
C      1  0.5232490000000  0.5369480000000  0.4572980000000 1.0
C      1  0.4748730000000  0.5421130000000  0.5536510000000 1.0
C      1  0.4718900000000  0.4522500000000  0.4510180000000 1.0
C      1  0.5241600000000  0.4630820000000  0.5520430000000 1.0
C      1  0.4736260000000  0.5445920000000  0.4520420000000 1.0
C      1  0.5256500000000  0.5436350000000  0.5478130000000 1.0
C      1  0.5171840000000  0.4803510000000  0.5140890000000 1.0
C      1  0.4849070000000  0.4877320000000  0.4778790000000 1.0
C      1  0.5136490000000  0.5131780000000  0.5223290000000 1.0
C      1  0.4739270000000  0.5182040000000  0.4862180000000 1.0
C      1  0.4841210000000  0.4770080000000  0.5213470000000 1.0
C      1  0.5188040000000  0.4849370000000  0.4804260000000 1.0
C      1  0.4811500000000  0.5231840000000  0.5191260000000 1.0
C      1  0.5352980000000  0.5144590000000  0.4768770000000 1.0
C      1  0.4450790000000  0.5599420000000  0.4850680000000 1.0
C      1  0.5545590000000  0.5596240000000  0.5188530000000 1.0
C      1  0.4512400000000  0.4474910000000  0.4862750000000 1.0
C      1  0.5520170000000  0.4431230000000  0.5139230000000 1.0
C      1  0.5604140000000  0.5725780000000  0.4885120000000 1.0
C      1  0.4469200000000  0.5601180000000  0.5164920000000 1.0
C      1  0.5522730000000  0.4453070000000  0.4824830000000 1.0
C      1  0.4472860000000  0.4393570000000  0.5172170000000 1.0
C      1  0.4862850000000  0.5610890000000  0.4716050000000 1.0
C      1  0.5156990000000  0.5590830000000  0.5271790000000 1.0
C      1  0.4848550000000  0.4340640000000  0.4698950000000 1.0
C      1  0.5135340000000  0.4478770000000  0.5235210000000 1.0
C      1  0.5133080000000  0.5579580000000  0.4724090000000 1.0
C      1  0.4858640000000  0.5563750000000  0.5248070000000 1.0
C      1  0.5122090000000  0.4330680000000  0.4688180000000 1.0
C      1  0.4853830000000  0.4378380000000  0.5287180000000 1.0
C      1  0.5259510000000  0.4302560000000  0.4971850000000 1.0
C      1  0.5285120000000  0.5650570000000  0.4975580000000 1.0
C      1  0.4734600000000  0.5719170000000  0.4987010000000 1.0
C      1  0.4729500000000  0.4254990000000  0.4998910000000 1.0
END
