TITL C-1154801-8518-348 0.000791117208615138 125000 -324.420966983383 0 0 60 (C1) n - 1
REM
REM in /home/nfs/bkarasulu/CARBON/AIRSS/Generating-Clusters/AIREBO/Higher-Symm/Only-C60
REM
REM
REM
REM
REM
REM ./C.cell (28575a23ae977d3b5fae324c64b13b57)
REM
REM compiler GCC version 9.2.1 20190827 (Red Hat 9.2.1-1)
REM options -cpp -mtune=generic -march=x86-64 -g -O0 -fpre-include=/usr/include/finclude/math-vector-fortran.h
REM seed 1388341003 1544090175 925875759 307468876 -1884699559 2134594763 -472778230 1290068435 57514401 942159608 1173530226 -1724112652 -2117653679 906214541 1879611563 846250190 -1870650434 -1591815267 2004958157 916564616 1340027323 -1045975331 169854549 1754902164 1251080865 2067100451 936209420 1860379423 -486294624 154581732 -255195073 -1292303132 231231669
REM
CELL 1.54180   50.00000   50.00000   50.00000   90.00000   90.00000   90.00000
LATT -1
SFAC C  
C      1  0.5489060000000  0.5273750000000  0.4453220000000 1.0
C      1  0.5260830000000  0.4401240000000  0.5494030000000 1.0
C      1  0.4461590000000  0.5484260000000  0.5276020000000 1.0
C      1  0.4490170000000  0.5256620000000  0.5601760000000 1.0
C      1  0.4518980000000  0.4735080000000  0.4477750000000 1.0
C      1  0.5475960000000  0.4731140000000  0.5533170000000 1.0
C      1  0.4735640000000  0.4406100000000  0.4512610000000 1.0
C      1  0.4731160000000  0.5533590000000  0.5447040000000 1.0
C      1  0.5268880000000  0.5597360000000  0.4494660000000 1.0
C      1  0.5579500000000  0.5476180000000  0.4702400000000 1.0
C      1  0.5554010000000  0.4549890000000  0.5273980000000 1.0
C      1  0.4435800000000  0.4540110000000  0.4732220000000 1.0
C      1  0.5485420000000  0.4729350000000  0.4470370000000 1.0
C      1  0.5266950000000  0.5530110000000  0.5464120000000 1.0
C      1  0.4439180000000  0.4533110000000  0.5275130000000 1.0
C      1  0.4506460000000  0.4705090000000  0.5546510000000 1.0
C      1  0.4522370000000  0.5270450000000  0.4477390000000 1.0
C      1  0.5448020000000  0.5270940000000  0.5531170000000 1.0
C      1  0.4738190000000  0.5601180000000  0.4492750000000 1.0
C      1  0.4737480000000  0.4389020000000  0.5489600000000 1.0
C      1  0.5262630000000  0.4406840000000  0.4514610000000 1.0
C      1  0.5563550000000  0.4541280000000  0.4731730000000 1.0
C      1  0.5602710000000  0.5511820000000  0.5253570000000 1.0
C      1  0.4450500000000  0.5468120000000  0.4730840000000 1.0
C      1  0.4354490000000  0.5158940000000  0.5306910000000 1.0
C      1  0.5153440000000  0.5297710000000  0.4382300000000 1.0
C      1  0.5298400000000  0.4369270000000  0.5153780000000 1.0
C      1  0.5666580000000  0.5149280000000  0.4715390000000 1.0
C      1  0.5663980000000  0.4877530000000  0.5286610000000 1.0
C      1  0.4327110000000  0.4863430000000  0.4728800000000 1.0
C      1  0.4832960000000  0.5268190000000  0.5605900000000 1.0
C      1  0.4851270000000  0.4703930000000  0.4395670000000 1.0
C      1  0.5143350000000  0.4695700000000  0.5617140000000 1.0
C      1  0.4709060000000  0.4397550000000  0.4855010000000 1.0
C      1  0.4723890000000  0.5648180000000  0.5124110000000 1.0
C      1  0.5294280000000  0.5599150000000  0.4838240000000 1.0
C      1  0.4343690000000  0.4865700000000  0.5290020000000 1.0
C      1  0.5151340000000  0.4705480000000  0.4395240000000 1.0
C      1  0.5305520000000  0.5628340000000  0.5135780000000 1.0
C      1  0.5674100000000  0.4864800000000  0.4720020000000 1.0
C      1  0.5621390000000  0.5168840000000  0.5277560000000 1.0
C      1  0.4332040000000  0.5149380000000  0.4732710000000 1.0
C      1  0.4846150000000  0.4696420000000  0.5586570000000 1.0
C      1  0.4852770000000  0.5298560000000  0.4387350000000 1.0
C      1  0.5122260000000  0.5269760000000  0.5636910000000 1.0
C      1  0.4723550000000  0.5612560000000  0.4835290000000 1.0
C      1  0.4700680000000  0.4358480000000  0.5149860000000 1.0
C      1  0.5288550000000  0.4402770000000  0.4857340000000 1.0
C      1  0.5305240000000  0.5002550000000  0.4448280000000 1.0
C      1  0.4676400000000  0.4983930000000  0.5561680000000 1.0
C      1  0.4415890000000  0.5305260000000  0.5013890000000 1.0
C      1  0.4999680000000  0.4411510000000  0.5295270000000 1.0
C      1  0.5599670000000  0.4715970000000  0.5003050000000 1.0
C      1  0.4706420000000  0.5001630000000  0.4460150000000 1.0
C      1  0.5287270000000  0.4988400000000  0.5560830000000 1.0
C      1  0.5009250000000  0.5564590000000  0.5279290000000 1.0
C      1  0.5006000000000  0.5570410000000  0.4681890000000 1.0
C      1  0.4998870000000  0.4437560000000  0.4706390000000 1.0
C      1  0.5586040000000  0.5314850000000  0.4990120000000 1.0
C      1  0.4403390000000  0.4710790000000  0.5007990000000 1.0
END
