TITL C-1154810-7815-555 -6.91111046832451 125000 -323.373571970138 0 0 60 (C3) n - 1
REM
REM in /home/nfs/bkarasulu/CARBON/AIRSS/Generating-Clusters/AIREBO/Higher-Symm/Only-C60
REM
REM
REM
REM
REM
REM ./C.cell (28575a23ae977d3b5fae324c64b13b57)
REM
REM compiler GCC version 9.2.1 20190827 (Red Hat 9.2.1-1)
REM options -cpp -mtune=generic -march=x86-64 -g -O0 -fpre-include=/usr/include/finclude/math-vector-fortran.h
REM seed 1400638963 -819598555 -1993871263 -1673612932 -1554809080 -1921173159 974275936 -121096151 -1692001168 -242425917 2049162305 2085215571 -1896291735 906077095 351446411 1900138511 1132347818 -1266177541 653695945 954744325 -1793675980 -9998081 76569544 -1146703219 1052391656 -560933793 530762754 -824221349 -999606567 -93750183 1782546972 47007293 -1051788329
REM
CELL 1.54180   50.00000   50.00000   50.00000   90.00000   90.00000   90.00000
LATT -1
SFAC C  
C      1  0.4783880000000  0.5664080000000  0.4738470000000 1.0
C      1  0.5334570000000  0.5664080000000  0.4943630000000 1.0
C      1  0.4881540000000  0.5664060000000  0.5317970000000 1.0
C      1  0.4832340000000  0.4348550000000  0.4738780000000 1.0
C      1  0.5310040000000  0.4348550000000  0.4985380000000 1.0
C      1  0.4857630000000  0.4348530000000  0.5275780000000 1.0
C      1  0.5119270000000  0.5631130000000  0.4700580000000 1.0
C      1  0.5199680000000  0.5631110000000  0.5253040000000 1.0
C      1  0.4681040000000  0.5631120000000  0.5046450000000 1.0
C      1  0.5170740000000  0.4343530000000  0.4689820000000 1.0
C      1  0.5183240000000  0.4343510000000  0.5302920000000 1.0
C      1  0.4646030000000  0.4343520000000  0.5007190000000 1.0
C      1  0.4896460000000  0.5201470000000  0.4633900000000 1.0
C      1  0.5368830000000  0.5201460000000  0.5093390000000 1.0
C      1  0.4734710000000  0.5201450000000  0.5272730000000 1.0
C      1  0.5004400000000  0.4703880000000  0.4675330000000 1.0
C      1  0.5278970000000  0.4703870000000  0.5166120000000 1.0
C      1  0.4716640000000  0.4703870000000  0.5158510000000 1.0
C      1  0.4991880000000  0.4861430000000  0.5230660000000 1.0
C      1  0.4804300000000  0.4861440000000  0.4877630000000 1.0
C      1  0.5203820000000  0.4861440000000  0.4891690000000 1.0
C      1  0.5067560000000  0.5155200000000  0.5220350000000 1.0
C      1  0.4775390000000  0.5155210000000  0.4948340000000 1.0
C      1  0.5157040000000  0.5155210000000  0.4831320000000 1.0
C      1  0.4911780000000  0.5179170000000  0.5629780000000 1.0
C      1  0.4498710000000  0.5179200000000  0.4608720000000 1.0
C      1  0.5589510000000  0.5179200000000  0.4761520000000 1.0
C      1  0.4852750000000  0.4859720000000  0.5605150000000 1.0
C      1  0.4549550000000  0.4859760000000  0.4569900000000 1.0
C      1  0.5597700000000  0.4859750000000  0.4824940000000 1.0
C      1  0.4442650000000  0.5099730000000  0.5162960000000 1.0
C      1  0.5137550000000  0.5099750000000  0.4435850000000 1.0
C      1  0.5419800000000  0.5099720000000  0.5401200000000 1.0
C      1  0.4452400000000  0.4865520000000  0.5066450000000 1.0
C      1  0.5216250000000  0.4865540000000  0.4492530000000 1.0
C      1  0.5331350000000  0.4865510000000  0.5441000000000 1.0
C      1  0.4666940000000  0.4822740000000  0.4292790000000 1.0
C      1  0.5778990000000  0.4822720000000  0.5065160000000 1.0
C      1  0.4554070000000  0.4822690000000  0.5642030000000 1.0
C      1  0.4719700000000  0.5147830000000  0.4353120000000 1.0
C      1  0.5700370000000  0.5147810000000  0.5080700000000 1.0
C      1  0.4579930000000  0.5147780000000  0.5566200000000 1.0
C      1  0.4814910000000  0.5440720000000  0.4258310000000 1.0
C      1  0.5734880000000  0.5440700000000  0.5210580000000 1.0
C      1  0.4450210000000  0.5440680000000  0.5531160000000 1.0
C      1  0.4788830000000  0.4587350000000  0.4233140000000 1.0
C      1  0.5769690000000  0.4587320000000  0.5200530000000 1.0
C      1  0.4441480000000  0.4587300000000  0.5566280000000 1.0
C      1  0.5378050000000  0.4605180000000  0.4772940000000 1.0
C      1  0.5007610000000  0.4605160000000  0.5440910000000 1.0
C      1  0.4614350000000  0.4605180000000  0.4786110000000 1.0
C      1  0.5353530000000  0.5391710000000  0.4744060000000 1.0
C      1  0.5044900000000  0.5391680000000  0.5434150000000 1.0
C      1  0.4601570000000  0.5391700000000  0.4821830000000 1.0
C      1  0.4956940000000  0.4471930000000  0.4458580000000 1.0
C      1  0.5490400000000  0.4471910000000  0.5233390000000 1.0
C      1  0.4552660000000  0.4471900000000  0.5307980000000 1.0
C      1  0.4918840000000  0.5619260000000  0.4437670000000 1.0
C      1  0.5527590000000  0.5619230000000  0.5210910000000 1.0
C      1  0.4553570000000  0.5619220000000  0.5351480000000 1.0
END
