TITL C-1154824-75-275 6.69177741065245e-05 125000 -315.213038807665 0 0 60 (C1) n - 1
REM
REM in /home/nfs/bkarasulu/CARBON/AIRSS/Generating-Clusters/AIREBO/Higher-Symm/Only-C60
REM
REM
REM
REM
REM
REM ./C.cell (28575a23ae977d3b5fae324c64b13b57)
REM
REM compiler GCC version 9.2.1 20190827 (Red Hat 9.2.1-1)
REM options -cpp -mtune=generic -march=x86-64 -g -O0 -fpre-include=/usr/include/finclude/math-vector-fortran.h
REM seed 43474026 134589199 -670121439 -511321611 43443600 1982315673 257260392 1228629420 1867342279 1643343477 1423412900 1826573594 -745048804 -660383705 -808411642 -1039849264 39880677 -1147201388 14237570 1652847556 1014652320 2037050001 1527494534 -2078396053 -637626150 1199474520 676359360 1391221157 1233008918 2011448636 949993765 113057256 -365973181
REM
CELL 1.54180   50.00000   50.00000   50.00000   90.00000   90.00000   90.00000
LATT -1
SFAC C  
C      1  0.4177840000000  0.5193100000000  0.5142170000000 1.0
C      1  0.5248880000000  0.4295140000000  0.4957270000000 1.0
C      1  0.5588340000000  0.5443910000000  0.5122130000000 1.0
C      1  0.4562450000000  0.5662690000000  0.5181440000000 1.0
C      1  0.4998760000000  0.5600700000000  0.5330770000000 1.0
C      1  0.4528830000000  0.5004620000000  0.5388000000000 1.0
C      1  0.4940120000000  0.4410400000000  0.5328290000000 1.0
C      1  0.5643510000000  0.5033390000000  0.5303650000000 1.0
C      1  0.5519130000000  0.5892050000000  0.4816870000000 1.0
C      1  0.4448940000000  0.5640120000000  0.4709870000000 1.0
C      1  0.4367770000000  0.4094240000000  0.4814570000000 1.0
C      1  0.5929360000000  0.4474040000000  0.4982360000000 1.0
C      1  0.4374710000000  0.4721460000000  0.4967220000000 1.0
C      1  0.5377160000000  0.4385840000000  0.4725410000000 1.0
C      1  0.5597030000000  0.5258290000000  0.4715830000000 1.0
C      1  0.4724900000000  0.5670500000000  0.4741090000000 1.0
C      1  0.5750120000000  0.5054330000000  0.5608990000000 1.0
C      1  0.5034780000000  0.5694650000000  0.5635400000000 1.0
C      1  0.4388970000000  0.4849150000000  0.5566860000000 1.0
C      1  0.5194470000000  0.4259870000000  0.5499620000000 1.0
C      1  0.5041030000000  0.5337550000000  0.4562880000000 1.0
C      1  0.4528460000000  0.4924470000000  0.4575180000000 1.0
C      1  0.4939170000000  0.4463740000000  0.4526610000000 1.0
C      1  0.5523450000000  0.4938630000000  0.4539550000000 1.0
C      1  0.5255640000000  0.4846440000000  0.4467440000000 1.0
C      1  0.5032770000000  0.5079570000000  0.4485170000000 1.0
C      1  0.4764360000000  0.4949120000000  0.4429910000000 1.0
C      1  0.4940010000000  0.4717770000000  0.4350420000000 1.0
C      1  0.5126690000000  0.5116340000000  0.5469740000000 1.0
C      1  0.4854000000000  0.4928350000000  0.5397700000000 1.0
C      1  0.4769740000000  0.4619640000000  0.5476730000000 1.0
C      1  0.5232490000000  0.4816570000000  0.5349020000000 1.0
C      1  0.5324010000000  0.5728130000000  0.4830650000000 1.0
C      1  0.4344170000000  0.5389310000000  0.4689340000000 1.0
C      1  0.4596400000000  0.4219880000000  0.4789540000000 1.0
C      1  0.5789340000000  0.4679220000000  0.4898750000000 1.0
C      1  0.5671750000000  0.5204540000000  0.4430010000000 1.0
C      1  0.4890000000000  0.5595320000000  0.4524370000000 1.0
C      1  0.4447320000000  0.4678480000000  0.4699780000000 1.0
C      1  0.5232980000000  0.4537250000000  0.4541580000000 1.0
C      1  0.5115670000000  0.5515150000000  0.4843060000000 1.0
C      1  0.4441130000000  0.5136970000000  0.4742030000000 1.0
C      1  0.4821330000000  0.4374250000000  0.4765350000000 1.0
C      1  0.5625970000000  0.4873070000000  0.4819250000000 1.0
C      1  0.5011590000000  0.4757770000000  0.5021060000000 1.0
C      1  0.5208190000000  0.5028300000000  0.5084020000000 1.0
C      1  0.4977440000000  0.5252730000000  0.5009320000000 1.0
C      1  0.4795700000000  0.5008530000000  0.5084570000000 1.0
C      1  0.4849380000000  0.5580330000000  0.5044390000000 1.0
C      1  0.4454930000000  0.5035660000000  0.5059200000000 1.0
C      1  0.4986120000000  0.4449940000000  0.5017110000000 1.0
C      1  0.5521200000000  0.5126600000000  0.5020120000000 1.0
C      1  0.5037540000000  0.5379300000000  0.5562460000000 1.0
C      1  0.4532340000000  0.4614120000000  0.5613950000000 1.0
C      1  0.5218270000000  0.4562070000000  0.5418360000000 1.0
C      1  0.5437510000000  0.5087590000000  0.5541650000000 1.0
C      1  0.3963270000000  0.5316120000000  0.5204990000000 1.0
C      1  0.5308990000000  0.4061970000000  0.5087400000000 1.0
C      1  0.5645000000000  0.5680370000000  0.5199790000000 1.0
C      1  0.4348600000000  0.5750320000000  0.5289740000000 1.0
END
