TITL C-1154826-9507-512 -0.00314674547722988 125000 -324.041262957228 0 0 60 (C1) n - 1
REM
REM in /home/nfs/bkarasulu/CARBON/AIRSS/Generating-Clusters/AIREBO/Higher-Symm/Only-C60
REM
REM
REM
REM
REM
REM ./C.cell (28575a23ae977d3b5fae324c64b13b57)
REM
REM compiler GCC version 9.2.1 20190827 (Red Hat 9.2.1-1)
REM options -cpp -mtune=generic -march=x86-64 -g -O0 -fpre-include=/usr/include/finclude/math-vector-fortran.h
REM seed -1686639452 -977448761 1800004189 -423559271 -11121425 446781218 1850869491 1110634638 -50129382 82593344 -840163291 -1838030093 1801216706 1761126932 -1359270023 -1671181507 -1709620583 -63687874 -2084241143 1626532050 -4980053 -1135984164 1225011556 -591026191 873085640 1859351541 1393407036 1776399299 -2061231848 2101136738 1554025499 -2134573434 611255910
REM
CELL 1.54180   50.00000   50.00000   50.00000   90.00000   90.00000   90.00000
LATT -1
SFAC C  
C      1  0.4683140000000  0.4823270000000  0.5878290000000 1.0
C      1  0.4201640000000  0.5118250000000  0.4861460000000 1.0
C      1  0.4264930000000  0.4559970000000  0.5012120000000 1.0
C      1  0.5077160000000  0.5212300000000  0.4988330000000 1.0
C      1  0.5909480000000  0.4584970000000  0.4626020000000 1.0
C      1  0.4974440000000  0.4726360000000  0.5819680000000 1.0
C      1  0.5603330000000  0.5522070000000  0.5384920000000 1.0
C      1  0.5340700000000  0.5462810000000  0.4603770000000 1.0
C      1  0.4713880000000  0.4706710000000  0.4363140000000 1.0
C      1  0.4260980000000  0.4899710000000  0.5037800000000 1.0
C      1  0.5179460000000  0.4564350000000  0.5871990000000 1.0
C      1  0.4952180000000  0.5723390000000  0.4760210000000 1.0
C      1  0.5562950000000  0.4818870000000  0.5170800000000 1.0
C      1  0.4870020000000  0.4460020000000  0.4537520000000 1.0
C      1  0.5371620000000  0.4389250000000  0.5905270000000 1.0
C      1  0.5390670000000  0.4800280000000  0.4622550000000 1.0
C      1  0.4809720000000  0.4051920000000  0.4817340000000 1.0
C      1  0.4896290000000  0.5300770000000  0.4478780000000 1.0
C      1  0.4473850000000  0.4429590000000  0.4863180000000 1.0
C      1  0.4813410000000  0.5439080000000  0.5830220000000 1.0
C      1  0.4475340000000  0.4889670000000  0.5301770000000 1.0
C      1  0.4588350000000  0.5256470000000  0.4489880000000 1.0
C      1  0.5350300000000  0.4923020000000  0.5322440000000 1.0
C      1  0.5013070000000  0.4064790000000  0.5002780000000 1.0
C      1  0.4704800000000  0.5154020000000  0.5119390000000 1.0
C      1  0.4863550000000  0.4773400000000  0.4669470000000 1.0
C      1  0.4598060000000  0.4872810000000  0.4198390000000 1.0
C      1  0.5177280000000  0.4536540000000  0.4599000000000 1.0
C      1  0.5687770000000  0.5573050000000  0.5122720000000 1.0
C      1  0.4756080000000  0.4921500000000  0.4956140000000 1.0
C      1  0.4708390000000  0.4600180000000  0.4928820000000 1.0
C      1  0.5517540000000  0.5130890000000  0.4286190000000 1.0
C      1  0.4971320000000  0.5263410000000  0.4203630000000 1.0
C      1  0.4972010000000  0.5256100000000  0.5701640000000 1.0
C      1  0.4861990000000  0.4987590000000  0.5639680000000 1.0
C      1  0.5418560000000  0.5134130000000  0.4564260000000 1.0
C      1  0.4805780000000  0.4937300000000  0.5352430000000 1.0
C      1  0.3945750000000  0.5206120000000  0.4845560000000 1.0
C      1  0.4686570000000  0.4275360000000  0.4699120000000 1.0
C      1  0.5100970000000  0.5141800000000  0.4685550000000 1.0
C      1  0.4851790000000  0.5667350000000  0.5016500000000 1.0
C      1  0.5343270000000  0.5568070000000  0.5518180000000 1.0
C      1  0.5196470000000  0.4266320000000  0.5034350000000 1.0
C      1  0.5091890000000  0.4953520000000  0.5169190000000 1.0
C      1  0.5696700000000  0.4940910000000  0.4964200000000 1.0
C      1  0.4326170000000  0.4619990000000  0.5309960000000 1.0
C      1  0.5674290000000  0.4684130000000  0.4624800000000 1.0
C      1  0.4398910000000  0.5240150000000  0.4696400000000 1.0
C      1  0.4656600000000  0.6041370000000  0.5348900000000 1.0
C      1  0.5219690000000  0.5315350000000  0.5600920000000 1.0
C      1  0.5720580000000  0.5415100000000  0.4902320000000 1.0
C      1  0.5142570000000  0.4842720000000  0.4851190000000 1.0
C      1  0.4863780000000  0.5396470000000  0.5078690000000 1.0
C      1  0.5076390000000  0.5531510000000  0.4601260000000 1.0
C      1  0.5646040000000  0.5165330000000  0.4803090000000 1.0
C      1  0.5664050000000  0.5252940000000  0.5489210000000 1.0
C      1  0.5219640000000  0.4513970000000  0.4917170000000 1.0
C      1  0.5412200000000  0.5109120000000  0.5519830000000 1.0
C      1  0.4739630000000  0.5857400000000  0.5181720000000 1.0
C      1  0.4506060000000  0.5126190000000  0.4249910000000 1.0
END
