TITL C-1154829-9094-656 -0.000894765883084275 125000 -329.973476226155 0 0 60 (C1) n - 1
REM
REM in /home/nfs/bkarasulu/CARBON/AIRSS/Generating-Clusters/AIREBO/Higher-Symm/Only-C60
REM
REM
REM
REM
REM
REM ./C.cell (28575a23ae977d3b5fae324c64b13b57)
REM
REM compiler GCC version 9.2.1 20190827 (Red Hat 9.2.1-1)
REM options -cpp -mtune=generic -march=x86-64 -g -O0 -fpre-include=/usr/include/finclude/math-vector-fortran.h
REM seed 1343289192 -1264679677 1322498032 746204077 1244504857 -1971125587 -978824361 1896898898 1473465019 -1859910582 1893567224 -1584207695 554347297 1062888002 319978702 -1476720957 966207881 -911561141 1295879455 -2057078821 -935814224 1524717199 -652885360 43166110 717001410 -1872725862 -1792567228 -721772359 489941765 -585068142 -1263968170 -14057541 1577838946
REM
CELL 1.54180   50.00000   50.00000   50.00000   90.00000   90.00000   90.00000
LATT -1
SFAC C  
C      1  0.5600840000000  0.5420940000000  0.5112370000000 1.0
C      1  0.5598740000000  0.5237500000000  0.4633560000000 1.0
C      1  0.5632960000000  0.4729760000000  0.4646110000000 1.0
C      1  0.5636020000000  0.4576570000000  0.5140950000000 1.0
C      1  0.5639910000000  0.5008580000000  0.5430060000000 1.0
C      1  0.5133360000000  0.4945220000000  0.4382790000000 1.0
C      1  0.5108920000000  0.4367600000000  0.4869210000000 1.0
C      1  0.5130140000000  0.4682560000000  0.5541360000000 1.0
C      1  0.5062070000000  0.5434990000000  0.5455490000000 1.0
C      1  0.5025210000000  0.5543510000000  0.4719200000000 1.0
C      1  0.4844730000000  0.4473830000000  0.4735250000000 1.0
C      1  0.4873550000000  0.4564020000000  0.5420230000000 1.0
C      1  0.4865850000000  0.5164290000000  0.5517530000000 1.0
C      1  0.4806290000000  0.5587060000000  0.4975810000000 1.0
C      1  0.4880670000000  0.5134590000000  0.4391560000000 1.0
C      1  0.4349980000000  0.5075450000000  0.4413510000000 1.0
C      1  0.4314280000000  0.4585000000000  0.4762320000000 1.0
C      1  0.4418680000000  0.4718790000000  0.5380450000000 1.0
C      1  0.4285880000000  0.5221750000000  0.5479060000000 1.0
C      1  0.4412280000000  0.5529170000000  0.4944240000000 1.0
C      1  0.5359680000000  0.4991930000000  0.5264020000000 1.0
C      1  0.5340330000000  0.5230060000000  0.5077110000000 1.0
C      1  0.5329320000000  0.5136760000000  0.4787670000000 1.0
C      1  0.5360870000000  0.4830740000000  0.4791460000000 1.0
C      1  0.5363400000000  0.4742080000000  0.5082040000000 1.0
C      1  0.4473950000000  0.4792690000000  0.5064370000000 1.0
C      1  0.4390200000000  0.5079910000000  0.5214830000000 1.0
C      1  0.4487010000000  0.5404960000000  0.5186900000000 1.0
C      1  0.4484360000000  0.5192250000000  0.4684920000000 1.0
C      1  0.4464380000000  0.4863520000000  0.4730770000000 1.0
C      1  0.5115440000000  0.4582440000000  0.5103850000000 1.0
C      1  0.5133960000000  0.4960450000000  0.5469650000000 1.0
C      1  0.5094750000000  0.5372670000000  0.5148140000000 1.0
C      1  0.5066550000000  0.5223760000000  0.4661990000000 1.0
C      1  0.5111720000000  0.4753120000000  0.4635720000000 1.0
C      1  0.4825890000000  0.4405240000000  0.5123320000000 1.0
C      1  0.4703690000000  0.4925740000000  0.5697530000000 1.0
C      1  0.4773360000000  0.5539470000000  0.5312920000000 1.0
C      1  0.4828430000000  0.5456590000000  0.4452700000000 1.0
C      1  0.4832280000000  0.4666060000000  0.4461930000000 1.0
C      1  0.4787350000000  0.5094720000000  0.4777650000000 1.0
C      1  0.4844340000000  0.4798190000000  0.4837200000000 1.0
C      1  0.4859730000000  0.4783890000000  0.5159590000000 1.0
C      1  0.4728810000000  0.5052750000000  0.5229290000000 1.0
C      1  0.4836030000000  0.5259520000000  0.5034300000000 1.0
C      1  0.5601140000000  0.4702080000000  0.5415100000000 1.0
C      1  0.5566770000000  0.5307110000000  0.5397310000000 1.0
C      1  0.5540460000000  0.5474890000000  0.4817530000000 1.0
C      1  0.5597640000000  0.4981790000000  0.4478840000000 1.0
C      1  0.5580670000000  0.4501400000000  0.4847810000000 1.0
C      1  0.5325040000000  0.5646330000000  0.4733150000000 1.0
C      1  0.5385900000000  0.4965040000000  0.4286450000000 1.0
C      1  0.5372650000000  0.4302620000000  0.4803360000000 1.0
C      1  0.5395250000000  0.4590890000000  0.5584870000000 1.0
C      1  0.5359120000000  0.5431270000000  0.5554710000000 1.0
C      1  0.4631080000000  0.4703960000000  0.5550360000000 1.0
C      1  0.4574200000000  0.5347370000000  0.5510490000000 1.0
C      1  0.4631350000000  0.5481900000000  0.4703790000000 1.0
C      1  0.4648900000000  0.4917070000000  0.4447800000000 1.0
C      1  0.4573640000000  0.4505610000000  0.4927490000000 1.0
END
