TITL C-1154803-8277-444 -0.00182180704095088 125000 -324.566246746039 0 0 60 (C1) n - 1
REM
REM in /home/nfs/bkarasulu/CARBON/AIRSS/Generating-Clusters/AIREBO/Higher-Symm/Only-C60
REM
REM
REM
REM
REM
REM ./C.cell (28575a23ae977d3b5fae324c64b13b57)
REM
REM compiler GCC version 9.2.1 20190827 (Red Hat 9.2.1-1)
REM options -cpp -mtune=generic -march=x86-64 -g -O0 -fpre-include=/usr/include/finclude/math-vector-fortran.h
REM seed -1925980522 1158314429 1873485097 -1751963637 1418576764 -313108829 348490140 -1334315091 51428624 -1453215758 -1534889898 827745702 -1733832768 -1974344917 -1022998369 -1252505976 -973391428 -681729967 1505090520 696405276 -813795612 -2099655810 1908344975 579160485 -1668907809 1601688345 1329767525 1727036875 2048052298 306965503 -1949622532 351647421 1945549422
REM
CELL 1.54180   50.00000   50.00000   50.00000   90.00000   90.00000   90.00000
LATT -1
SFAC C  
C      1  0.4823890000000  0.5333240000000  0.5485850000000 1.0
C      1  0.4883720000000  0.5561900000000  0.4705670000000 1.0
C      1  0.4975440000000  0.4788280000000  0.4517530000000 1.0
C      1  0.4807900000000  0.4491510000000  0.4895880000000 1.0
C      1  0.4920120000000  0.4658930000000  0.5545880000000 1.0
C      1  0.5122960000000  0.5396670000000  0.4635080000000 1.0
C      1  0.5012400000000  0.5526100000000  0.5324400000000 1.0
C      1  0.5172730000000  0.4844810000000  0.5579700000000 1.0
C      1  0.5072900000000  0.4474750000000  0.5048810000000 1.0
C      1  0.5150540000000  0.4556540000000  0.4466170000000 1.0
C      1  0.5505330000000  0.5371840000000  0.5304720000000 1.0
C      1  0.5573320000000  0.5376900000000  0.4784800000000 1.0
C      1  0.5455970000000  0.4928010000000  0.4595090000000 1.0
C      1  0.5562090000000  0.4620780000000  0.4823530000000 1.0
C      1  0.5562580000000  0.4907170000000  0.5245920000000 1.0
C      1  0.4457600000000  0.5299980000000  0.4671620000000 1.0
C      1  0.4441520000000  0.5304610000000  0.5195200000000 1.0
C      1  0.4502410000000  0.4931970000000  0.5474240000000 1.0
C      1  0.4414460000000  0.4756870000000  0.5033590000000 1.0
C      1  0.4468610000000  0.4820540000000  0.4569350000000 1.0
C      1  0.5320090000000  0.5581280000000  0.5421960000000 1.0
C      1  0.5403700000000  0.5235150000000  0.4528360000000 1.0
C      1  0.5421290000000  0.4614550000000  0.4513440000000 1.0
C      1  0.5342070000000  0.4439920000000  0.5287540000000 1.0
C      1  0.5376620000000  0.5086510000000  0.5454690000000 1.0
C      1  0.4606760000000  0.5524260000000  0.4544010000000 1.0
C      1  0.4553820000000  0.5209340000000  0.5469020000000 1.0
C      1  0.4714270000000  0.4766190000000  0.5393190000000 1.0
C      1  0.4525660000000  0.4625150000000  0.4772130000000 1.0
C      1  0.4684110000000  0.4919010000000  0.4441580000000 1.0
C      1  0.5863890000000  0.5034550000000  0.5172520000000 1.0
C      1  0.5699940000000  0.5309640000000  0.5093130000000 1.0
C      1  0.5836340000000  0.5183950000000  0.4806450000000 1.0
C      1  0.5747600000000  0.4898240000000  0.4758480000000 1.0
C      1  0.5776890000000  0.4725930000000  0.5054020000000 1.0
C      1  0.4276170000000  0.5030050000000  0.4681500000000 1.0
C      1  0.4257540000000  0.5303300000000  0.4915700000000 1.0
C      1  0.4126630000000  0.5169430000000  0.5193380000000 1.0
C      1  0.4264170000000  0.4876350000000  0.5300880000000 1.0
C      1  0.4142380000000  0.4925680000000  0.4961010000000 1.0
C      1  0.5131590000000  0.5082550000000  0.5784010000000 1.0
C      1  0.4912080000000  0.5757570000000  0.5156730000000 1.0
C      1  0.5123700000000  0.5248810000000  0.4338550000000 1.0
C      1  0.5018430000000  0.4309380000000  0.4476180000000 1.0
C      1  0.5081880000000  0.4279400000000  0.5325740000000 1.0
C      1  0.4945660000000  0.5039990000000  0.4298920000000 1.0
C      1  0.4887430000000  0.5782740000000  0.4910900000000 1.0
C      1  0.4957180000000  0.5260690000000  0.5739550000000 1.0
C      1  0.4941660000000  0.4378400000000  0.5547870000000 1.0
C      1  0.4828010000000  0.4269270000000  0.4671340000000 1.0
C      1  0.5280920000000  0.4700440000000  0.4924310000000 1.0
C      1  0.5253580000000  0.4765540000000  0.5255090000000 1.0
C      1  0.5195260000000  0.5257810000000  0.5223440000000 1.0
C      1  0.5277540000000  0.5260090000000  0.4905380000000 1.0
C      1  0.5191880000000  0.4973360000000  0.4797500000000 1.0
C      1  0.4752230000000  0.4789370000000  0.5056010000000 1.0
C      1  0.4873710000000  0.4963940000000  0.4790590000000 1.0
C      1  0.4753960000000  0.5264220000000  0.4807580000000 1.0
C      1  0.4767010000000  0.5224750000000  0.5136600000000 1.0
C      1  0.4999860000000  0.4981810000000  0.5187730000000 1.0
END
