TITL C-1154821-8623-492 -8.85763209991698e-07 125000 -381.99606417499 0 0 60 (Td) n - 1
REM
REM in /home/nfs/bkarasulu/CARBON/AIRSS/Generating-Clusters/AIREBO/Higher-Symm/Only-C60
REM
REM
REM
REM
REM
REM ./C.cell (28575a23ae977d3b5fae324c64b13b57)
REM
REM compiler GCC version 9.2.1 20190827 (Red Hat 9.2.1-1)
REM options -cpp -mtune=generic -march=x86-64 -g -O0 -fpre-include=/usr/include/finclude/math-vector-fortran.h
REM seed 208354877 -747403693 689565404 195226686 11653807 1355171878 -1494462417 1422210199 -797322869 438194930 -1055566727 -477569402 388599989 1896793473 1505896600 1716302068 -471957371 -174818443 503336921 -1802332138 807851271 -638423291 475398141 560935284 -470532448 -186960382 437534926 407078524 -55910278 -308971197 1038395692 968370499 194731769
REM
CELL 1.54180   50.00000   50.00000   50.00000   90.00000   90.00000   90.00000
LATT -1
SFAC C  
C      1  0.4445590000000  0.5353800000000  0.5156130000000 1.0
C      1  0.5156410000000  0.4445810000000  0.5354020000000 1.0
C      1  0.5354460000000  0.5156790000000  0.4446200000000 1.0
C      1  0.5553730000000  0.5355130000000  0.4844480000000 1.0
C      1  0.4446350000000  0.4645140000000  0.4843570000000 1.0
C      1  0.5554330000000  0.4645930000000  0.5155810000000 1.0
C      1  0.4844650000000  0.4446130000000  0.4645010000000 1.0
C      1  0.5155540000000  0.5554480000000  0.4646060000000 1.0
C      1  0.4843410000000  0.5553570000000  0.5354900000000 1.0
C      1  0.4645240000000  0.5155150000000  0.5554070000000 1.0
C      1  0.5354470000000  0.4843890000000  0.5553990000000 1.0
C      1  0.4645830000000  0.4844170000000  0.4445740000000 1.0
C      1  0.5155780000000  0.5355090000000  0.4446320000000 1.0
C      1  0.5354950000000  0.4446170000000  0.5155590000000 1.0
C      1  0.4445730000000  0.5155140000000  0.5354450000000 1.0
C      1  0.4843540000000  0.5353830000000  0.5554290000000 1.0
C      1  0.4844510000000  0.4645870000000  0.4445620000000 1.0
C      1  0.5156160000000  0.4645200000000  0.5553760000000 1.0
C      1  0.4646110000000  0.4445770000000  0.4843450000000 1.0
C      1  0.4644970000000  0.5553550000000  0.5156360000000 1.0
C      1  0.5353980000000  0.5554500000000  0.4844600000000 1.0
C      1  0.5553970000000  0.5156810000000  0.4645820000000 1.0
C      1  0.5554080000000  0.4844250000000  0.5354480000000 1.0
C      1  0.4446210000000  0.4843810000000  0.4645250000000 1.0
C      1  0.4314900000000  0.5303330000000  0.4919730000000 1.0
C      1  0.4920220000000  0.4314830000000  0.5303300000000 1.0
C      1  0.5304170000000  0.4920540000000  0.4315180000000 1.0
C      1  0.5684520000000  0.5304500000000  0.5080790000000 1.0
C      1  0.4315440000000  0.4695360000000  0.5079900000000 1.0
C      1  0.5685140000000  0.4696810000000  0.4919570000000 1.0
C      1  0.5081080000000  0.4315510000000  0.4695510000000 1.0
C      1  0.4919080000000  0.5685010000000  0.4696660000000 1.0
C      1  0.5079610000000  0.5684640000000  0.5304530000000 1.0
C      1  0.4695980000000  0.4918770000000  0.5684680000000 1.0
C      1  0.5303650000000  0.5080040000000  0.5684980000000 1.0
C      1  0.4696190000000  0.5080650000000  0.4315160000000 1.0
C      1  0.4919540000000  0.5304430000000  0.4315410000000 1.0
C      1  0.5304590000000  0.4315530000000  0.4919140000000 1.0
C      1  0.4315170000000  0.4918730000000  0.5303660000000 1.0
C      1  0.5079880000000  0.5303400000000  0.5685110000000 1.0
C      1  0.5080820000000  0.4696760000000  0.4314930000000 1.0
C      1  0.4919760000000  0.4695420000000  0.5684540000000 1.0
C      1  0.4696720000000  0.4314810000000  0.5079670000000 1.0
C      1  0.4695460000000  0.5684610000000  0.4920170000000 1.0
C      1  0.5303240000000  0.5685050000000  0.5081020000000 1.0
C      1  0.5684990000000  0.4920570000000  0.4696200000000 1.0
C      1  0.5684670000000  0.5080740000000  0.5304160000000 1.0
C      1  0.4315180000000  0.5079960000000  0.4695980000000 1.0
C      1  0.4606320000000  0.5393640000000  0.4375100000000 1.0
C      1  0.5394170000000  0.4375580000000  0.4606090000000 1.0
C      1  0.4606740000000  0.4605610000000  0.5624690000000 1.0
C      1  0.4607020000000  0.4374140000000  0.5392830000000 1.0
C      1  0.5394010000000  0.4607440000000  0.4374620000000 1.0
C      1  0.4606030000000  0.5625100000000  0.4606960000000 1.0
C      1  0.5392770000000  0.5625170000000  0.5394120000000 1.0
C      1  0.4375130000000  0.4605590000000  0.5392970000000 1.0
C      1  0.5625620000000  0.4607460000000  0.4606350000000 1.0
C      1  0.5624660000000  0.5393730000000  0.5393980000000 1.0
C      1  0.4374590000000  0.5393220000000  0.4606700000000 1.0
C      1  0.5392930000000  0.5393310000000  0.5625580000000 1.0
END
