TITL C-1154804-8633-89 0.000813178245199678 125000 -320.91306438199 0 0 60 (C1) n - 1
REM
REM in /home/nfs/bkarasulu/CARBON/AIRSS/Generating-Clusters/AIREBO/Higher-Symm/Only-C60
REM
REM
REM
REM
REM
REM ./C.cell (28575a23ae977d3b5fae324c64b13b57)
REM
REM compiler GCC version 9.2.1 20190827 (Red Hat 9.2.1-1)
REM options -cpp -mtune=generic -march=x86-64 -g -O0 -fpre-include=/usr/include/finclude/math-vector-fortran.h
REM seed 1817570325 -1153038881 1694175540 -2090503472 921518433 -2001076241 -1549517895 -1310926772 -526970575 314034041 1219943866 359347931 548980893 331225644 -300515743 282775199 878579446 -2118191965 1076149869 546768663 -906440396 676709146 1289408838 1054839896 -1502529710 250340554 1765273289 -1851157339 378500490 1354985317 -242774179 -165255227 -325984244
REM
CELL 1.54180   50.00000   50.00000   50.00000   90.00000   90.00000   90.00000
LATT -1
SFAC C  
C      1  0.4557260000000  0.4726740000000  0.4837900000000 1.0
C      1  0.5393400000000  0.5212230000000  0.4739590000000 1.0
C      1  0.4630560000000  0.4720460000000  0.5170280000000 1.0
C      1  0.5446180000000  0.5202420000000  0.5251080000000 1.0
C      1  0.5655340000000  0.5099820000000  0.4841540000000 1.0
C      1  0.4246940000000  0.4851030000000  0.4848550000000 1.0
C      1  0.5672550000000  0.5051390000000  0.5122840000000 1.0
C      1  0.4315950000000  0.4824620000000  0.5138810000000 1.0
C      1  0.4828560000000  0.4383780000000  0.4678670000000 1.0
C      1  0.5224150000000  0.5624610000000  0.4627980000000 1.0
C      1  0.4831900000000  0.4300190000000  0.5378500000000 1.0
C      1  0.5121140000000  0.5667500000000  0.5403930000000 1.0
C      1  0.4661720000000  0.5612060000000  0.4833560000000 1.0
C      1  0.5292980000000  0.4432380000000  0.4858770000000 1.0
C      1  0.4725230000000  0.5611200000000  0.5119180000000 1.0
C      1  0.5375270000000  0.4507090000000  0.5134030000000 1.0
C      1  0.5353760000000  0.4493780000000  0.5598070000000 1.0
C      1  0.4603180000000  0.5396180000000  0.5633960000000 1.0
C      1  0.5181920000000  0.4476540000000  0.4366110000000 1.0
C      1  0.4790540000000  0.5508930000000  0.4338070000000 1.0
C      1  0.5189530000000  0.5074700000000  0.5163320000000 1.0
C      1  0.4808870000000  0.4978710000000  0.5210540000000 1.0
C      1  0.5152810000000  0.5103870000000  0.4864220000000 1.0
C      1  0.4789400000000  0.4948720000000  0.4882920000000 1.0
C      1  0.4772570000000  0.4701120000000  0.4570010000000 1.0
C      1  0.5320790000000  0.5353830000000  0.4446420000000 1.0
C      1  0.4824510000000  0.4635190000000  0.5436490000000 1.0
C      1  0.5101870000000  0.5384760000000  0.5591830000000 1.0
C      1  0.5576010000000  0.4743980000000  0.4531230000000 1.0
C      1  0.4379340000000  0.5245810000000  0.4564250000000 1.0
C      1  0.5596900000000  0.4859050000000  0.5385910000000 1.0
C      1  0.4439050000000  0.5188860000000  0.5455100000000 1.0
C      1  0.5055910000000  0.4824710000000  0.4711890000000 1.0
C      1  0.4863210000000  0.5271510000000  0.4800820000000 1.0
C      1  0.5067360000000  0.4763410000000  0.5228870000000 1.0
C      1  0.4942250000000  0.5238260000000  0.5329790000000 1.0
C      1  0.5681710000000  0.5003110000000  0.4558090000000 1.0
C      1  0.4326410000000  0.4970680000000  0.4583940000000 1.0
C      1  0.5477220000000  0.5016910000000  0.5603150000000 1.0
C      1  0.4379950000000  0.4922530000000  0.5417290000000 1.0
C      1  0.4656400000000  0.5388970000000  0.5302790000000 1.0
C      1  0.5495160000000  0.4591720000000  0.5367730000000 1.0
C      1  0.4641080000000  0.5403420000000  0.4589730000000 1.0
C      1  0.5307120000000  0.4618870000000  0.4619740000000 1.0
C      1  0.5172980000000  0.5062270000000  0.5672870000000 1.0
C      1  0.4990450000000  0.4861380000000  0.5657020000000 1.0
C      1  0.5096830000000  0.5118380000000  0.4298540000000 1.0
C      1  0.4944310000000  0.4904110000000  0.4327740000000 1.0
C      1  0.5016140000000  0.5571330000000  0.4849170000000 1.0
C      1  0.5011490000000  0.4330040000000  0.4866680000000 1.0
C      1  0.5008210000000  0.5689880000000  0.5160890000000 1.0
C      1  0.5044580000000  0.4435610000000  0.5169690000000 1.0
C      1  0.4484720000000  0.4799070000000  0.4417810000000 1.0
C      1  0.5612070000000  0.5206890000000  0.4361760000000 1.0
C      1  0.4530150000000  0.4733460000000  0.5575540000000 1.0
C      1  0.5430610000000  0.5325260000000  0.5520010000000 1.0
C      1  0.5088450000000  0.4570400000000  0.5641120000000 1.0
C      1  0.4833340000000  0.5440200000000  0.5772610000000 1.0
C      1  0.4946020000000  0.4594650000000  0.4297480000000 1.0
C      1  0.5035710000000  0.5421400000000  0.4273580000000 1.0
END
