TITL C-1154821-8623-386 0.00057532316931556 125000 -322.834044279336 0 0 60 (C1) n - 1
REM
REM in /home/nfs/bkarasulu/CARBON/AIRSS/Generating-Clusters/AIREBO/Higher-Symm/Only-C60
REM
REM
REM
REM
REM
REM ./C.cell (28575a23ae977d3b5fae324c64b13b57)
REM
REM compiler GCC version 9.2.1 20190827 (Red Hat 9.2.1-1)
REM options -cpp -mtune=generic -march=x86-64 -g -O0 -fpre-include=/usr/include/finclude/math-vector-fortran.h
REM seed 1939865616 2083350718 1247460817 191995859 19988356 1576815846 -14366189 1625352400 -453811141 45972269 -197922776 -1065741719 1558826124 -1602868872 1282040728 1929178431 -888530934 -1776243287 302023963 801476064 -1159393485 1217276214 -567506463 137666357 1294001044 1955412812 276160269 -684872240 -292349813 274130554 -712195359 307842338 -2011727797
REM
CELL 1.54180   50.00000   50.00000   50.00000   90.00000   90.00000   90.00000
LATT -1
SFAC C  
C      1  0.5177860000000  0.4926820000000  0.5368390000000 1.0
C      1  0.5068610000000  0.5237580000000  0.5310860000000 1.0
C      1  0.5181510000000  0.5559000000000  0.4682980000000 1.0
C      1  0.5157620000000  0.4355790000000  0.4673320000000 1.0
C      1  0.5121790000000  0.4491570000000  0.5160080000000 1.0
C      1  0.5256650000000  0.5807750000000  0.5124960000000 1.0
C      1  0.5001970000000  0.4710730000000  0.5653340000000 1.0
C      1  0.4908890000000  0.5267100000000  0.5696060000000 1.0
C      1  0.5477290000000  0.5334480000000  0.5630460000000 1.0
C      1  0.5601700000000  0.4784640000000  0.5503200000000 1.0
C      1  0.5627050000000  0.5522430000000  0.4915250000000 1.0
C      1  0.5563570000000  0.4427330000000  0.4973820000000 1.0
C      1  0.5034110000000  0.4320250000000  0.4970040000000 1.0
C      1  0.5138430000000  0.5815750000000  0.4883310000000 1.0
C      1  0.4386700000000  0.4414180000000  0.4900770000000 1.0
C      1  0.4346100000000  0.5514790000000  0.5017470000000 1.0
C      1  0.4886590000000  0.4771820000000  0.4957940000000 1.0
C      1  0.4864000000000  0.5214730000000  0.4918780000000 1.0
C      1  0.4807900000000  0.4827440000000  0.5502400000000 1.0
C      1  0.4763720000000  0.5102090000000  0.5528540000000 1.0
C      1  0.4677650000000  0.4653920000000  0.4467330000000 1.0
C      1  0.4704790000000  0.5410810000000  0.4521470000000 1.0
C      1  0.5557260000000  0.5713300000000  0.5138660000000 1.0
C      1  0.5526060000000  0.4294650000000  0.5230430000000 1.0
C      1  0.4831260000000  0.4390190000000  0.4581160000000 1.0
C      1  0.4862630000000  0.5599600000000  0.4665630000000 1.0
C      1  0.5129730000000  0.4846230000000  0.4471770000000 1.0
C      1  0.5240330000000  0.5084170000000  0.4544740000000 1.0
C      1  0.5686850000000  0.4810820000000  0.5240490000000 1.0
C      1  0.5624140000000  0.5294650000000  0.5427390000000 1.0
C      1  0.4380290000000  0.4698200000000  0.4727390000000 1.0
C      1  0.4343430000000  0.5287210000000  0.4773530000000 1.0
C      1  0.5020300000000  0.4657840000000  0.4671920000000 1.0
C      1  0.5140550000000  0.5255630000000  0.4770770000000 1.0
C      1  0.4666180000000  0.4409740000000  0.5098060000000 1.0
C      1  0.4610270000000  0.5553490000000  0.5109830000000 1.0
C      1  0.4438390000000  0.4825780000000  0.5218830000000 1.0
C      1  0.4440840000000  0.5097470000000  0.5232350000000 1.0
C      1  0.4659410000000  0.4263080000000  0.4795460000000 1.0
C      1  0.4761900000000  0.5689880000000  0.4916500000000 1.0
C      1  0.5251800000000  0.5142930000000  0.5040660000000 1.0
C      1  0.5211140000000  0.4802350000000  0.5054810000000 1.0
C      1  0.5169990000000  0.5414540000000  0.5573420000000 1.0
C      1  0.5305890000000  0.4668180000000  0.5547340000000 1.0
C      1  0.4267910000000  0.4695690000000  0.5036200000000 1.0
C      1  0.4247220000000  0.5230890000000  0.5084650000000 1.0
C      1  0.4433350000000  0.5192760000000  0.4455300000000 1.0
C      1  0.4412290000000  0.4864910000000  0.4432540000000 1.0
C      1  0.5162340000000  0.4760350000000  0.4211370000000 1.0
C      1  0.5469810000000  0.5168570000000  0.4417230000000 1.0
C      1  0.4644240000000  0.5139010000000  0.4716610000000 1.0
C      1  0.4672680000000  0.4844480000000  0.4733720000000 1.0
C      1  0.5530240000000  0.4709520000000  0.5023640000000 1.0
C      1  0.5498260000000  0.5319160000000  0.5133880000000 1.0
C      1  0.5501410000000  0.5553790000000  0.4674240000000 1.0
C      1  0.5461400000000  0.4321630000000  0.4727640000000 1.0
C      1  0.4716430000000  0.4696460000000  0.5232520000000 1.0
C      1  0.4739280000000  0.5261020000000  0.5228880000000 1.0
C      1  0.5302660000000  0.4414580000000  0.5365810000000 1.0
C      1  0.5327350000000  0.5556260000000  0.5333860000000 1.0
END
