TITL C-1154816-9297-528 -0.00231879242045962 125000 -341.389140919396 0 0 60 (C1) n - 1
REM
REM in /home/nfs/bkarasulu/CARBON/AIRSS/Generating-Clusters/AIREBO/Higher-Symm/Only-C60
REM
REM
REM
REM
REM
REM ./C.cell (28575a23ae977d3b5fae324c64b13b57)
REM
REM compiler GCC version 9.2.1 20190827 (Red Hat 9.2.1-1)
REM options -cpp -mtune=generic -march=x86-64 -g -O0 -fpre-include=/usr/include/finclude/math-vector-fortran.h
REM seed -570297528 -852077660 -2135193203 1680947821 1961199473 1183236460 318673148 1963456971 985938871 270333499 1017559404 361944795 2090150533 -1193573890 34662880 -1445755437 1252225508 936668335 -1214403296 395539613 2085782242 451681581 560810404 -1066872459 -1239971830 1753556412 -351597301 -775607280 -927505787 -887581711 -1427653244 -1178591043 1825667650
REM
CELL 1.54180   50.00000   50.00000   50.00000   90.00000   90.00000   90.00000
LATT -1
SFAC C  
C      1  0.4619170000000  0.5509220000000  0.4627180000000 1.0
C      1  0.5292100000000  0.4592150000000  0.4635900000000 1.0
C      1  0.4606670000000  0.4632540000000  0.4716060000000 1.0
C      1  0.5405510000000  0.5465540000000  0.4586030000000 1.0
C      1  0.5267490000000  0.4686260000000  0.5268810000000 1.0
C      1  0.4726990000000  0.5270580000000  0.5218200000000 1.0
C      1  0.5255730000000  0.5322820000000  0.5292650000000 1.0
C      1  0.4753960000000  0.4676760000000  0.5320660000000 1.0
C      1  0.5174960000000  0.5484500000000  0.4824600000000 1.0
C      1  0.4834960000000  0.4469660000000  0.4843050000000 1.0
C      1  0.5108420000000  0.4380320000000  0.4750520000000 1.0
C      1  0.4871770000000  0.5406920000000  0.4834960000000 1.0
C      1  0.4813450000000  0.5091000000000  0.4946340000000 1.0
C      1  0.5127740000000  0.4864210000000  0.5050320000000 1.0
C      1  0.4833550000000  0.4761610000000  0.5018200000000 1.0
C      1  0.5198020000000  0.5192970000000  0.4999490000000 1.0
C      1  0.4733860000000  0.5102100000000  0.4619480000000 1.0
C      1  0.5272230000000  0.4868840000000  0.4781490000000 1.0
C      1  0.4705690000000  0.4800320000000  0.4524480000000 1.0
C      1  0.5342590000000  0.5149620000000  0.4689030000000 1.0
C      1  0.5310860000000  0.5146550000000  0.4368110000000 1.0
C      1  0.4778590000000  0.4894430000000  0.4143280000000 1.0
C      1  0.5338230000000  0.4897310000000  0.4247930000000 1.0
C      1  0.4707020000000  0.5116250000000  0.4276720000000 1.0
C      1  0.5558220000000  0.4602000000000  0.4847590000000 1.0
C      1  0.4396040000000  0.5401110000000  0.4858400000000 1.0
C      1  0.5565130000000  0.5418820000000  0.4882740000000 1.0
C      1  0.4404690000000  0.4670810000000  0.4909730000000 1.0
C      1  0.4879880000000  0.4401480000000  0.5359930000000 1.0
C      1  0.5105750000000  0.5580580000000  0.5341090000000 1.0
C      1  0.4831080000000  0.5554060000000  0.5320720000000 1.0
C      1  0.5154240000000  0.4403150000000  0.5308240000000 1.0
C      1  0.5189150000000  0.4812340000000  0.5556530000000 1.0
C      1  0.4854230000000  0.5201080000000  0.5520790000000 1.0
C      1  0.5171980000000  0.5136800000000  0.5554940000000 1.0
C      1  0.4869140000000  0.4877290000000  0.5564550000000 1.0
C      1  0.5508580000000  0.4749580000000  0.5580350000000 1.0
C      1  0.4549310000000  0.5303510000000  0.5574080000000 1.0
C      1  0.5489690000000  0.5225870000000  0.5599350000000 1.0
C      1  0.4549140000000  0.4816060000000  0.5633330000000 1.0
C      1  0.4418990000000  0.5297260000000  0.5103810000000 1.0
C      1  0.5555750000000  0.4701330000000  0.5099760000000 1.0
C      1  0.4453360000000  0.4739540000000  0.5174920000000 1.0
C      1  0.5554110000000  0.5316170000000  0.5129170000000 1.0
C      1  0.5633750000000  0.5145150000000  0.5359100000000 1.0
C      1  0.4381850000000  0.4895910000000  0.5410740000000 1.0
C      1  0.5638170000000  0.4857170000000  0.5343770000000 1.0
C      1  0.4373290000000  0.5180660000000  0.5380520000000 1.0
C      1  0.5240960000000  0.5772030000000  0.4941210000000 1.0
C      1  0.4687410000000  0.4222090000000  0.4975670000000 1.0
C      1  0.5222740000000  0.4176210000000  0.4888970000000 1.0
C      1  0.4680120000000  0.5677960000000  0.4908550000000 1.0
C      1  0.4914230000000  0.4696040000000  0.4321450000000 1.0
C      1  0.5138450000000  0.5404220000000  0.4383190000000 1.0
C      1  0.4848850000000  0.5364720000000  0.4438700000000 1.0
C      1  0.5192680000000  0.4680180000000  0.4357820000000 1.0
C      1  0.4689890000000  0.5747360000000  0.5166680000000 1.0
C      1  0.5270410000000  0.4194020000000  0.5160690000000 1.0
C      1  0.4728550000000  0.4193350000000  0.5246350000000 1.0
C      1  0.5220680000000  0.5801600000000  0.5213060000000 1.0
END
