TITL C-1154804-8633-319 -0.000242493314911412 125000 -327.5588054821 0 0 60 (T23) n - 1
REM
REM in /home/nfs/bkarasulu/CARBON/AIRSS/Generating-Clusters/AIREBO/Higher-Symm/Only-C60
REM
REM
REM
REM
REM
REM ./C.cell (28575a23ae977d3b5fae324c64b13b57)
REM
REM compiler GCC version 9.2.1 20190827 (Red Hat 9.2.1-1)
REM options -cpp -mtune=generic -march=x86-64 -g -O0 -fpre-include=/usr/include/finclude/math-vector-fortran.h
REM seed -477089494 -1363344971 -1471338658 -1457013071 -636297999 713259236 439542525 -690271259 1246601560 -445814009 1004590278 -1318500859 -512483155 1983366841 -1756749303 -1577219803 147606366 1298464621 1488821990 545958932 -1506887747 -1623315010 -36122252 -475750135 -962689365 -1070579933 697223738 -164063757 2111873113 889940326 1651708766 1228937938 -1222668277
REM
CELL 1.54180   50.00000   50.00000   50.00000   90.00000   90.00000   90.00000
LATT -1
SFAC C  
C      1  0.5087400000000  0.5777620000000  0.5296470000000 1.0
C      1  0.5296280000000  0.5087390000000  0.5777700000000 1.0
C      1  0.5777630000000  0.5296390000000  0.5087590000000 1.0
C      1  0.5087460000000  0.4222370000000  0.4703570000000 1.0
C      1  0.4912480000000  0.4222360000000  0.5296380000000 1.0
C      1  0.4912660000000  0.5777650000000  0.4703590000000 1.0
C      1  0.5296570000000  0.4912580000000  0.4222420000000 1.0
C      1  0.4703420000000  0.4912560000000  0.5777580000000 1.0
C      1  0.4703730000000  0.5087470000000  0.4222310000000 1.0
C      1  0.5777640000000  0.4703550000000  0.4912710000000 1.0
C      1  0.4222330000000  0.4703610000000  0.5087270000000 1.0
C      1  0.4222390000000  0.5296460000000  0.4912430000000 1.0
C      1  0.5102720000000  0.5290020000000  0.5773320000000 1.0
C      1  0.5290060000000  0.5773280000000  0.5102940000000 1.0
C      1  0.5773240000000  0.5102810000000  0.5290200000000 1.0
C      1  0.5102990000000  0.4709970000000  0.4226710000000 1.0
C      1  0.4897300000000  0.5290080000000  0.4226690000000 1.0
C      1  0.4896980000000  0.4709930000000  0.5773270000000 1.0
C      1  0.5290040000000  0.4226700000000  0.4897170000000 1.0
C      1  0.4710000000000  0.5773310000000  0.4897120000000 1.0
C      1  0.4709900000000  0.4226710000000  0.5102770000000 1.0
C      1  0.5773350000000  0.4897120000000  0.4710100000000 1.0
C      1  0.4226760000000  0.5102900000000  0.4709810000000 1.0
C      1  0.4226640000000  0.4897170000000  0.5289900000000 1.0
C      1  0.4833670000000  0.5420060000000  0.5612850000000 1.0
C      1  0.5612780000000  0.4833730000000  0.5420190000000 1.0
C      1  0.5420130000000  0.5612860000000  0.4833870000000 1.0
C      1  0.4833870000000  0.4579950000000  0.4387080000000 1.0
C      1  0.5166090000000  0.4579900000000  0.5612890000000 1.0
C      1  0.5166360000000  0.5420090000000  0.4387180000000 1.0
C      1  0.5612960000000  0.5166220000000  0.4580050000000 1.0
C      1  0.4387060000000  0.5166240000000  0.5419960000000 1.0
C      1  0.4387210000000  0.4833810000000  0.4579800000000 1.0
C      1  0.5420020000000  0.4387110000000  0.5166290000000 1.0
C      1  0.4579930000000  0.4387150000000  0.4833670000000 1.0
C      1  0.4579920000000  0.5612880000000  0.5166170000000 1.0
C      1  0.4810800000000  0.5619830000000  0.5416940000000 1.0
C      1  0.5619890000000  0.5416940000000  0.4810990000000 1.0
C      1  0.5416830000000  0.4810820000000  0.5619910000000 1.0
C      1  0.4810910000000  0.4380180000000  0.4582990000000 1.0
C      1  0.5189250000000  0.5619840000000  0.4583100000000 1.0
C      1  0.5189040000000  0.4380140000000  0.5416970000000 1.0
C      1  0.5619780000000  0.4583010000000  0.5189250000000 1.0
C      1  0.4380140000000  0.5416980000000  0.5189040000000 1.0
C      1  0.4380180000000  0.4583070000000  0.4810730000000 1.0
C      1  0.5417080000000  0.5189140000000  0.4380250000000 1.0
C      1  0.4583150000000  0.4810900000000  0.4380080000000 1.0
C      1  0.4582930000000  0.5189140000000  0.5619760000000 1.0
C      1  0.4794750000000  0.5215640000000  0.5883690000000 1.0
C      1  0.5883670000000  0.4794870000000  0.5215820000000 1.0
C      1  0.5215740000000  0.5883720000000  0.4794990000000 1.0
C      1  0.4795080000000  0.4784380000000  0.4116230000000 1.0
C      1  0.5204910000000  0.4784300000000  0.5883760000000 1.0
C      1  0.5205260000000  0.5215680000000  0.4116320000000 1.0
C      1  0.5883770000000  0.5205060000000  0.4784510000000 1.0
C      1  0.4116240000000  0.5205110000000  0.5215500000000 1.0
C      1  0.4116310000000  0.4794960000000  0.4784160000000 1.0
C      1  0.5215590000000  0.4116260000000  0.5205100000000 1.0
C      1  0.4784330000000  0.5883720000000  0.5205070000000 1.0
C      1  0.4784340000000  0.4116290000000  0.4794840000000 1.0
END
