TITL C-1154824-75-100 0.000379247182983787 125000 -326.276992634768 0 0 60 (C1) n - 1
REM
REM in /home/nfs/bkarasulu/CARBON/AIRSS/Generating-Clusters/AIREBO/Higher-Symm/Only-C60
REM
REM
REM
REM
REM
REM ./C.cell (28575a23ae977d3b5fae324c64b13b57)
REM
REM compiler GCC version 9.2.1 20190827 (Red Hat 9.2.1-1)
REM options -cpp -mtune=generic -march=x86-64 -g -O0 -fpre-include=/usr/include/finclude/math-vector-fortran.h
REM seed 1224457033 315479628 1969265792 -1198862251 -1911582939 1270856968 245257202 1885400322 -1394380956 583303034 -968628710 1139378704 -559497712 -154167068 1246250005 -1113174666 552163783 -950584880 663988544 261770425 226121716 199545257 -700914591 -845467535 64222857 -1437204676 1347798196 -302952643 -835280782 -602344329 145258558 -374740928 -1956233983
REM
CELL 1.54180   50.00000   50.00000   50.00000   90.00000   90.00000   90.00000
LATT -1
SFAC C  
C      1  0.4828120000000  0.4440080000000  0.4540150000000 1.0
C      1  0.4562150000000  0.4856910000000  0.4444250000000 1.0
C      1  0.4385950000000  0.4528620000000  0.4883650000000 1.0
C      1  0.4873400000000  0.5528990000000  0.5374620000000 1.0
C      1  0.5140270000000  0.5591540000000  0.4553600000000 1.0
C      1  0.5141600000000  0.4425880000000  0.5482870000000 1.0
C      1  0.4571100000000  0.5133720000000  0.5516570000000 1.0
C      1  0.5493100000000  0.5165800000000  0.4428760000000 1.0
C      1  0.5461010000000  0.4842850000000  0.5563930000000 1.0
C      1  0.4463370000000  0.5408400000000  0.5104700000000 1.0
C      1  0.5489210000000  0.5431010000000  0.4876870000000 1.0
C      1  0.5547310000000  0.4531800000000  0.5161210000000 1.0
C      1  0.5114450000000  0.4521320000000  0.4557470000000 1.0
C      1  0.5449010000000  0.4872820000000  0.4453990000000 1.0
C      1  0.5550220000000  0.4529190000000  0.4872730000000 1.0
C      1  0.5157740000000  0.5535150000000  0.5425840000000 1.0
C      1  0.4845000000000  0.5620300000000  0.4497210000000 1.0
C      1  0.4846170000000  0.4428280000000  0.5470060000000 1.0
C      1  0.5472670000000  0.5134220000000  0.5571820000000 1.0
C      1  0.4617480000000  0.5149300000000  0.4452400000000 1.0
C      1  0.4564500000000  0.4857470000000  0.5639130000000 1.0
C      1  0.5594630000000  0.5446350000000  0.5157950000000 1.0
C      1  0.4408700000000  0.5419360000000  0.4818870000000 1.0
C      1  0.4409060000000  0.4542420000000  0.5176140000000 1.0
C      1  0.5249510000000  0.5329320000000  0.4460670000000 1.0
C      1  0.4482230000000  0.5157010000000  0.5229950000000 1.0
C      1  0.5271340000000  0.4436280000000  0.5230800000000 1.0
C      1  0.5214150000000  0.4709320000000  0.5590060000000 1.0
C      1  0.4800640000000  0.4697250000000  0.4381300000000 1.0
C      1  0.4813060000000  0.5273840000000  0.5524290000000 1.0
C      1  0.4437000000000  0.4762090000000  0.4705070000000 1.0
C      1  0.5573620000000  0.4780560000000  0.5287480000000 1.0
C      1  0.5477040000000  0.5178150000000  0.4750880000000 1.0
C      1  0.5243970000000  0.5606880000000  0.4817230000000 1.0
C      1  0.4741560000000  0.5530670000000  0.5130440000000 1.0
C      1  0.4677540000000  0.4449980000000  0.4771360000000 1.0
C      1  0.4853240000000  0.5295500000000  0.4499280000000 1.0
C      1  0.5592850000000  0.5204260000000  0.5297130000000 1.0
C      1  0.4712030000000  0.4442860000000  0.5226690000000 1.0
C      1  0.4816230000000  0.4702160000000  0.5605480000000 1.0
C      1  0.5190180000000  0.4772320000000  0.4405070000000 1.0
C      1  0.5224100000000  0.5269320000000  0.5547760000000 1.0
C      1  0.5521330000000  0.4782030000000  0.4725730000000 1.0
C      1  0.4526010000000  0.4776270000000  0.5340380000000 1.0
C      1  0.4422700000000  0.5165950000000  0.4693150000000 1.0
C      1  0.4663410000000  0.5563350000000  0.4726280000000 1.0
C      1  0.5339950000000  0.5607210000000  0.5203240000000 1.0
C      1  0.5240400000000  0.4509390000000  0.4803040000000 1.0
C      1  0.5325190000000  0.5004110000000  0.5224430000000 1.0
C      1  0.5132480000000  0.5386370000000  0.5050880000000 1.0
C      1  0.5003410000000  0.4766790000000  0.5328840000000 1.0
C      1  0.5082950000000  0.5245530000000  0.4745250000000 1.0
C      1  0.5233830000000  0.4946240000000  0.4804150000000 1.0
C      1  0.4765480000000  0.4971240000000  0.5197660000000 1.0
C      1  0.4681170000000  0.4976010000000  0.4806690000000 1.0
C      1  0.5212360000000  0.4726600000000  0.5063390000000 1.0
C      1  0.4728650000000  0.4698580000000  0.4997610000000 1.0
C      1  0.4779520000000  0.5290140000000  0.4892200000000 1.0
C      1  0.5031510000000  0.5163660000000  0.5287940000000 1.0
C      1  0.4953150000000  0.4880990000000  0.4623390000000 1.0
END
