TITL C-1154827-9204-307 -0.000477498184053308 125000 -340.481988213806 0 0 60 (C1) n - 1
REM
REM in /home/nfs/bkarasulu/CARBON/AIRSS/Generating-Clusters/AIREBO/Higher-Symm/Only-C60
REM
REM
REM
REM
REM
REM ./C.cell (28575a23ae977d3b5fae324c64b13b57)
REM
REM compiler GCC version 9.2.1 20190827 (Red Hat 9.2.1-1)
REM options -cpp -mtune=generic -march=x86-64 -g -O0 -fpre-include=/usr/include/finclude/math-vector-fortran.h
REM seed -472055811 -407202331 1211363162 1928040209 -2114312628 1794687249 890338468 1659469107 -55546467 1954212089 -1606136526 1415796571 -1666211965 -1632880044 -369802927 1558415608 -1927791076 334362508 1563747297 -1219992217 -1015318078 470346042 -1233225730 -221659932 -1744974566 -957920554 2069843833 -79766152 -527705785 -1296891329 -1611084783 1034179320 -291515719
REM
CELL 1.54180   50.00000   50.00000   50.00000   90.00000   90.00000   90.00000
LATT -1
SFAC C  
C      1  0.4997860000000  0.5301020000000  0.4475510000000 1.0
C      1  0.4552510000000  0.5271590000000  0.5267410000000 1.0
C      1  0.5450050000000  0.5287320000000  0.5257720000000 1.0
C      1  0.4833820000000  0.5259480000000  0.5811000000000 1.0
C      1  0.5747430000000  0.5291360000000  0.4714330000000 1.0
C      1  0.4415470000000  0.5286220000000  0.4441690000000 1.0
C      1  0.4617960000000  0.4999660000000  0.4843670000000 1.0
C      1  0.5056410000000  0.4966920000000  0.5402420000000 1.0
C      1  0.5330230000000  0.4986900000000  0.4730000000000 1.0
C      1  0.4663760000000  0.5164200000000  0.4291700000000 1.0
C      1  0.4601450000000  0.5087160000000  0.5720240000000 1.0
C      1  0.5827040000000  0.5129090000000  0.4961640000000 1.0
C      1  0.4226640000000  0.5159430000000  0.4590560000000 1.0
C      1  0.5086990000000  0.5157320000000  0.5866390000000 1.0
C      1  0.5681470000000  0.5193930000000  0.4462090000000 1.0
C      1  0.4975050000000  0.5045800000000  0.4280850000000 1.0
C      1  0.4391560000000  0.5050470000000  0.5324800000000 1.0
C      1  0.5602270000000  0.5067990000000  0.5352420000000 1.0
C      1  0.4558460000000  0.4389060000000  0.5023410000000 1.0
C      1  0.5200660000000  0.4522350000000  0.5365010000000 1.0
C      1  0.5236060000000  0.4509370000000  0.4664210000000 1.0
C      1  0.4881430000000  0.4887950000000  0.5121780000000 1.0
C      1  0.5189490000000  0.4909250000000  0.5029690000000 1.0
C      1  0.4944900000000  0.4910970000000  0.4803020000000 1.0
C      1  0.5349820000000  0.5488090000000  0.4794220000000 1.0
C      1  0.4691860000000  0.5492820000000  0.4834400000000 1.0
C      1  0.4991250000000  0.5472190000000  0.5402850000000 1.0
C      1  0.4714400000000  0.4836500000000  0.4344350000000 1.0
C      1  0.4488150000000  0.4906620000000  0.5543370000000 1.0
C      1  0.5743480000000  0.4938610000000  0.5148030000000 1.0
C      1  0.4637470000000  0.4659800000000  0.4836820000000 1.0
C      1  0.4940020000000  0.4647590000000  0.5433500000000 1.0
C      1  0.5423920000000  0.4670440000000  0.4814430000000 1.0
C      1  0.5173790000000  0.5278080000000  0.5338920000000 1.0
C      1  0.5214220000000  0.5287850000000  0.4665950000000 1.0
C      1  0.4640400000000  0.5280130000000  0.4999680000000 1.0
C      1  0.5621730000000  0.4643100000000  0.5064900000000 1.0
C      1  0.4760920000000  0.4597910000000  0.4557710000000 1.0
C      1  0.4617740000000  0.4616410000000  0.5463040000000 1.0
C      1  0.4191520000000  0.4591380000000  0.5203790000000 1.0
C      1  0.5550650000000  0.4577230000000  0.5568080000000 1.0
C      1  0.5180150000000  0.4544680000000  0.4254770000000 1.0
C      1  0.5022750000000  0.5738280000000  0.5375960000000 1.0
C      1  0.5308750000000  0.5753380000000  0.4768300000000 1.0
C      1  0.4718670000000  0.5750260000000  0.4908060000000 1.0
C      1  0.4612040000000  0.4760920000000  0.5160570000000 1.0
C      1  0.5361190000000  0.4778310000000  0.5221700000000 1.0
C      1  0.5045190000000  0.4767260000000  0.4557880000000 1.0
C      1  0.4415600000000  0.4431290000000  0.5261850000000 1.0
C      1  0.5524050000000  0.4430490000000  0.5313730000000 1.0
C      1  0.5010530000000  0.4389950000000  0.4449830000000 1.0
C      1  0.5217810000000  0.5013560000000  0.5684040000000 1.0
C      1  0.5469760000000  0.5029940000000  0.4440840000000 1.0
C      1  0.4296320000000  0.5011870000000  0.4803010000000 1.0
C      1  0.5231580000000  0.4873610000000  0.4311920000000 1.0
C      1  0.4299840000000  0.4874290000000  0.5086930000000 1.0
C      1  0.5446050000000  0.4877870000000  0.5535720000000 1.0
C      1  0.5567490000000  0.5385680000000  0.4986990000000 1.0
C      1  0.4719970000000  0.5412590000000  0.4553340000000 1.0
C      1  0.4731950000000  0.5356200000000  0.5508920000000 1.0
END
