TITL C-1154803-8277-42 0.000852082710561635 125000 -322.356319158456 0 0 60 (C1) n - 1
REM
REM in /home/nfs/bkarasulu/CARBON/AIRSS/Generating-Clusters/AIREBO/Higher-Symm/Only-C60
REM
REM
REM
REM
REM
REM ./C.cell (28575a23ae977d3b5fae324c64b13b57)
REM
REM compiler GCC version 9.2.1 20190827 (Red Hat 9.2.1-1)
REM options -cpp -mtune=generic -march=x86-64 -g -O0 -fpre-include=/usr/include/finclude/math-vector-fortran.h
REM seed 1804570184 -1372836070 -831863192 392825806 -1571828651 -533119886 640541317 -1717168597 -189985273 -581264367 315028707 2068104890 -137086304 -19921865 -1491887048 2049708892 749899112 98736835 2014016092 2032828192 72650805 -547141671 -1868858119 1418135438 -261545303 -1706556010 124492820 -428153993 2023675492 156673366 259596102 1573149945 1115846356
REM
CELL 1.54180   50.00000   50.00000   50.00000   90.00000   90.00000   90.00000
LATT -1
SFAC C  
C      1  0.4499520000000  0.4861980000000  0.4808470000000 1.0
C      1  0.5489420000000  0.4907040000000  0.4868420000000 1.0
C      1  0.5730780000000  0.4675480000000  0.4930070000000 1.0
C      1  0.4368800000000  0.4687570000000  0.5016730000000 1.0
C      1  0.5102110000000  0.5248060000000  0.5182790000000 1.0
C      1  0.4834050000000  0.5109770000000  0.5075600000000 1.0
C      1  0.5098010000000  0.4396400000000  0.5293700000000 1.0
C      1  0.4819360000000  0.4411950000000  0.5378200000000 1.0
C      1  0.4728990000000  0.4549300000000  0.4919680000000 1.0
C      1  0.5253750000000  0.4488580000000  0.5022240000000 1.0
C      1  0.4645840000000  0.5245040000000  0.5590660000000 1.0
C      1  0.5332340000000  0.5343690000000  0.5656340000000 1.0
C      1  0.5156750000000  0.4922450000000  0.4602980000000 1.0
C      1  0.4879630000000  0.4970280000000  0.4581070000000 1.0
C      1  0.5239360000000  0.4620390000000  0.5701410000000 1.0
C      1  0.5000730000000  0.4582570000000  0.5845230000000 1.0
C      1  0.4486970000000  0.5200270000000  0.4776760000000 1.0
C      1  0.5481640000000  0.5205700000000  0.4882350000000 1.0
C      1  0.4414430000000  0.5048330000000  0.4471400000000 1.0
C      1  0.5482490000000  0.4841890000000  0.4385680000000 1.0
C      1  0.5486970000000  0.4698950000000  0.4617300000000 1.0
C      1  0.4435440000000  0.4740000000000  0.4503320000000 1.0
C      1  0.4468700000000  0.5307240000000  0.5080320000000 1.0
C      1  0.5494180000000  0.5332540000000  0.5139700000000 1.0
C      1  0.5370850000000  0.5613060000000  0.5152690000000 1.0
C      1  0.4551420000000  0.5565020000000  0.5132760000000 1.0
C      1  0.4843420000000  0.5650290000000  0.5129280000000 1.0
C      1  0.5097520000000  0.5735120000000  0.5210710000000 1.0
C      1  0.5260870000000  0.5301870000000  0.4659560000000 1.0
C      1  0.4711820000000  0.5414880000000  0.4638120000000 1.0
C      1  0.4424860000000  0.4804110000000  0.5305800000000 1.0
C      1  0.5520390000000  0.4853980000000  0.5297690000000 1.0
C      1  0.4888730000000  0.5632410000000  0.4526300000000 1.0
C      1  0.5158420000000  0.5590180000000  0.4552880000000 1.0
C      1  0.5179460000000  0.5462270000000  0.4930330000000 1.0
C      1  0.4845170000000  0.5396090000000  0.4921620000000 1.0
C      1  0.4871300000000  0.5210900000000  0.4177480000000 1.0
C      1  0.5123240000000  0.5199860000000  0.4161610000000 1.0
C      1  0.4775720000000  0.5838340000000  0.4385550000000 1.0
C      1  0.5349760000000  0.5772300000000  0.4478000000000 1.0
C      1  0.4633020000000  0.4547280000000  0.4597270000000 1.0
C      1  0.5393550000000  0.4455830000000  0.4713860000000 1.0
C      1  0.5119530000000  0.4297550000000  0.4747840000000 1.0
C      1  0.4856530000000  0.4342040000000  0.4703270000000 1.0
C      1  0.5324760000000  0.5128910000000  0.4391370000000 1.0
C      1  0.4704460000000  0.5167590000000  0.4440390000000 1.0
C      1  0.4776190000000  0.4475940000000  0.5650010000000 1.0
C      1  0.5282730000000  0.4406340000000  0.5517130000000 1.0
C      1  0.5538620000000  0.4627060000000  0.5147410000000 1.0
C      1  0.4604400000000  0.4531200000000  0.5205660000000 1.0
C      1  0.5354500000000  0.5138740000000  0.5381650000000 1.0
C      1  0.4590570000000  0.5077870000000  0.5299790000000 1.0
C      1  0.5114470000000  0.5147270000000  0.5700840000000 1.0
C      1  0.4838730000000  0.5117910000000  0.5746160000000 1.0
C      1  0.4850630000000  0.4892900000000  0.5417160000000 1.0
C      1  0.5104450000000  0.4856280000000  0.5250490000000 1.0
C      1  0.4832320000000  0.4864400000000  0.4878520000000 1.0
C      1  0.5170070000000  0.4802280000000  0.4920870000000 1.0
C      1  0.5223650000000  0.4880870000000  0.5560640000000 1.0
C      1  0.4783610000000  0.4805600000000  0.5738870000000 1.0
END
