TITL C-1154802-8274-154 -932.317226966747 125000 -308.116864868271 0 0 60 (C3) n - 1
REM
REM in /home/nfs/bkarasulu/CARBON/AIRSS/Generating-Clusters/AIREBO/Higher-Symm/Only-C60
REM
REM
REM
REM
REM
REM ./C.cell (28575a23ae977d3b5fae324c64b13b57)
REM
REM compiler GCC version 9.2.1 20190827 (Red Hat 9.2.1-1)
REM options -cpp -mtune=generic -march=x86-64 -g -O0 -fpre-include=/usr/include/finclude/math-vector-fortran.h
REM seed 1020897244 -86561947 -946052717 1089239603 -1509818392 1664207153 255072499 -537329621 1700012429 1947816734 -897492702 -17990195 -1989502964 -1450490076 -462001504 2046399579 646121779 608295220 -612892566 179874765 -2028010431 918617110 -792246994 -348523125 -483456148 -2000994630 -517689115 2104940208 1596273537 -1560576234 1002078 -1806185774 -36385637
REM
CELL 1.54180   50.00000   50.00000   50.00000   90.00000   90.00000   90.00000
LATT -1
SFAC C  
C      1  0.4364820000000  0.5407340000000  0.5139230000000 1.0
C      1  0.5197250000000  0.5407000000000  0.4380190000000 1.0
C      1  0.5438380000000  0.5406870000000  0.5480590000000 1.0
C      1  0.4390120000000  0.5454720000000  0.4831290000000 1.0
C      1  0.5159080000000  0.5454410000000  0.5612660000000 1.0
C      1  0.5451330000000  0.5454260000000  0.4556030000000 1.0
C      1  0.4742180000000  0.5134140000000  0.4249990000000 1.0
C      1  0.5778550000000  0.5133730000000  0.5151730000000 1.0
C      1  0.4479470000000  0.5134240000000  0.5598320000000 1.0
C      1  0.4691470000000  0.5150760000000  0.5747530000000 1.0
C      1  0.5801870000000  0.5150370000000  0.4893540000000 1.0
C      1  0.4506950000000  0.5150860000000  0.4358930000000 1.0
C      1  0.4429520000000  0.4941530000000  0.4868490000000 1.0
C      1  0.5399070000000  0.4941100000000  0.4571860000000 1.0
C      1  0.5171310000000  0.4941250000000  0.5559710000000 1.0
C      1  0.4416230000000  0.4875230000000  0.5193830000000 1.0
C      1  0.5459670000000  0.4874790000000  0.5408590000000 1.0
C      1  0.5123950000000  0.4874950000000  0.4397610000000 1.0
C      1  0.4591560000000  0.4700300000000  0.4694320000000 1.0
C      1  0.5468730000000  0.4699950000000  0.4799260000000 1.0
C      1  0.4939320000000  0.4700180000000  0.5506440000000 1.0
C      1  0.4651360000000  0.4667710000000  0.5325420000000 1.0
C      1  0.5455970000000  0.4667320000000  0.5139120000000 1.0
C      1  0.4892290000000  0.4667610000000  0.4535480000000 1.0
C      1  0.5128080000000  0.4475880000000  0.4377830000000 1.0
C      1  0.5474460000000  0.4475700000000  0.5422240000000 1.0
C      1  0.4396810000000  0.4476170000000  0.5200000000000 1.0
C      1  0.5191250000000  0.4467500000000  0.5559890000000 1.0
C      1  0.5388910000000  0.4467420000000  0.4554260000000 1.0
C      1  0.4419170000000  0.4467830000000  0.4885910000000 1.0
C      1  0.4944970000000  0.5223670000000  0.4468860000000 1.0
C      1  0.5487640000000  0.5223430000000  0.5217840000000 1.0
C      1  0.4567650000000  0.5223830000000  0.5313290000000 1.0
C      1  0.4910280000000  0.5244590000000  0.5551970000000 1.0
C      1  0.5523170000000  0.5244340000000  0.4801780000000 1.0
C      1  0.4566920000000  0.5244740000000  0.4646190000000 1.0
C      1  0.4974780000000  0.4438540000000  0.5299310000000 1.0
C      1  0.4753060000000  0.4438630000000  0.4828720000000 1.0
C      1  0.5271440000000  0.4438400000000  0.4872020000000 1.0
C      1  0.5021300000000  0.4393510000000  0.4689950000000 1.0
C      1  0.4720460000000  0.4393640000000  0.5136370000000 1.0
C      1  0.5257500000000  0.4393390000000  0.5173720000000 1.0
C      1  0.4722620000000  0.5008540000000  0.5130830000000 1.0
C      1  0.5025350000000  0.5008420000000  0.4694380000000 1.0
C      1  0.5252050000000  0.5008270000000  0.5174730000000 1.0
C      1  0.4748070000000  0.5049680000000  0.4816180000000 1.0
C      1  0.4966820000000  0.5049610000000  0.5310010000000 1.0
C      1  0.5285330000000  0.5049290000000  0.4873610000000 1.0
C      1  0.5545120000000  0.5157940000000  0.4417750000000 1.0
C      1  0.5231780000000  0.5158170000000  0.5763130000000 1.0
C      1  0.4223270000000  0.5158580000000  0.4819110000000 1.0
C      1  0.5583940000000  0.5113180000000  0.5584420000000 1.0
C      1  0.5214210000000  0.5113340000000  0.4202120000000 1.0
C      1  0.4201950000000  0.5113750000000  0.5213470000000 1.0
C      1  0.4909770000000  0.5540260000000  0.4525470000000 1.0
C      1  0.5456370000000  0.5540010000000  0.5158940000000 1.0
C      1  0.4634450000000  0.5540380000000  0.5315590000000 1.0
C      1  0.4868710000000  0.5556330000000  0.5457890000000 1.0
C      1  0.5462500000000  0.5556050000000  0.4884930000000 1.0
C      1  0.4669410000000  0.5556410000000  0.4657170000000 1.0
END
