TITL C-1154810-7815-629 -0.00109751033914766 125000 -313.279015397807 0 0 60 (C1) n - 1
REM
REM in /home/nfs/bkarasulu/CARBON/AIRSS/Generating-Clusters/AIREBO/Higher-Symm/Only-C60
REM
REM
REM
REM
REM
REM ./C.cell (28575a23ae977d3b5fae324c64b13b57)
REM
REM compiler GCC version 9.2.1 20190827 (Red Hat 9.2.1-1)
REM options -cpp -mtune=generic -march=x86-64 -g -O0 -fpre-include=/usr/include/finclude/math-vector-fortran.h
REM seed 1879125855 -1001327102 -1897176062 823420160 525564455 532484453 -705920678 -1831714444 -1562054536 -405376042 1965192329 523770737 852987730 -1842484605 1105545949 653566525 -459096474 1870613462 -986663826 -1249553781 -642002545 382132316 -892287088 1288898713 -1854948259 1551951704 -1053900453 -1725069142 -452342516 578873924 352371701 -1709148811 -1293028875
REM
CELL 1.54180   50.00000   50.00000   50.00000   90.00000   90.00000   90.00000
LATT -1
SFAC C  
C      1  0.4781090000000  0.5112970000000  0.4512200000000 1.0
C      1  0.4201120000000  0.4843450000000  0.5194850000000 1.0
C      1  0.5107210000000  0.4251050000000  0.4979500000000 1.0
C      1  0.5077060000000  0.5111220000000  0.5698010000000 1.0
C      1  0.4808580000000  0.4815730000000  0.5674370000000 1.0
C      1  0.5119400000000  0.4958570000000  0.4235080000000 1.0
C      1  0.5747370000000  0.4776490000000  0.4812910000000 1.0
C      1  0.4182070000000  0.5207580000000  0.4876020000000 1.0
C      1  0.5661870000000  0.5171580000000  0.5097980000000 1.0
C      1  0.4757030000000  0.4062370000000  0.4968920000000 1.0
C      1  0.5180140000000  0.5694410000000  0.5064860000000 1.0
C      1  0.4874900000000  0.5784480000000  0.4824190000000 1.0
C      1  0.4928930000000  0.4897910000000  0.4432130000000 1.0
C      1  0.4210260000000  0.5144110000000  0.5172440000000 1.0
C      1  0.5168010000000  0.5902100000000  0.4830690000000 1.0
C      1  0.5121220000000  0.4826150000000  0.5717570000000 1.0
C      1  0.4776440000000  0.5180820000000  0.5696280000000 1.0
C      1  0.5236800000000  0.5205290000000  0.4276520000000 1.0
C      1  0.5660160000000  0.5097880000000  0.4800500000000 1.0
C      1  0.4209170000000  0.4872040000000  0.4882860000000 1.0
C      1  0.5758780000000  0.4869540000000  0.5109140000000 1.0
C      1  0.4894660000000  0.5627340000000  0.5094240000000 1.0
C      1  0.5047130000000  0.3953380000000  0.5035680000000 1.0
C      1  0.4851630000000  0.4353110000000  0.4852430000000 1.0
C      1  0.4685540000000  0.4632230000000  0.4828960000000 1.0
C      1  0.4956410000000  0.4665860000000  0.4626190000000 1.0
C      1  0.4461880000000  0.4821490000000  0.4745530000000 1.0
C      1  0.5455320000000  0.4581790000000  0.5239730000000 1.0
C      1  0.4676810000000  0.5414680000000  0.5114370000000 1.0
C      1  0.5287280000000  0.5386520000000  0.4845520000000 1.0
C      1  0.5280160000000  0.4703190000000  0.5484860000000 1.0
C      1  0.4719080000000  0.5388800000000  0.5446670000000 1.0
C      1  0.5140620000000  0.5335270000000  0.4559210000000 1.0
C      1  0.5526880000000  0.4898770000000  0.5356180000000 1.0
C      1  0.4455810000000  0.5245660000000  0.5296090000000 1.0
C      1  0.5473460000000  0.5265760000000  0.4592690000000 1.0
C      1  0.4648870000000  0.5532120000000  0.4793910000000 1.0
C      1  0.4841670000000  0.5425740000000  0.4533650000000 1.0
C      1  0.4418120000000  0.5289840000000  0.4732690000000 1.0
C      1  0.5422000000000  0.5488830000000  0.5110020000000 1.0
C      1  0.4616620000000  0.4524230000000  0.5126420000000 1.0
C      1  0.5325680000000  0.4443070000000  0.4957350000000 1.0
C      1  0.5208920000000  0.5289210000000  0.5530110000000 1.0
C      1  0.4731240000000  0.4614700000000  0.5430400000000 1.0
C      1  0.5281230000000  0.4596190000000  0.4698850000000 1.0
C      1  0.5406340000000  0.5216860000000  0.5313500000000 1.0
C      1  0.4456440000000  0.4749640000000  0.5302370000000 1.0
C      1  0.5520630000000  0.4762230000000  0.4617600000000 1.0
C      1  0.5654320000000  0.4459170000000  0.5028950000000 1.0
C      1  0.4789770000000  0.5596580000000  0.4286300000000 1.0
C      1  0.4424380000000  0.5745610000000  0.4745400000000 1.0
C      1  0.5010280000000  0.4525800000000  0.5479710000000 1.0
C      1  0.4627750000000  0.4999640000000  0.5449300000000 1.0
C      1  0.4552030000000  0.4222410000000  0.5110810000000 1.0
C      1  0.5668460000000  0.5621210000000  0.5134380000000 1.0
C      1  0.5028740000000  0.5490360000000  0.5471990000000 1.0
C      1  0.5110400000000  0.4402310000000  0.4476430000000 1.0
C      1  0.5512020000000  0.4975250000000  0.4450790000000 1.0
C      1  0.4544050000000  0.5061130000000  0.4629800000000 1.0
C      1  0.5719770000000  0.4908270000000  0.5613890000000 1.0
END
