TITL C-1154824-75-652 0.00237892662769617 125000 -319.982119308352 0 0 60 (C1) n - 1
REM
REM in /home/nfs/bkarasulu/CARBON/AIRSS/Generating-Clusters/AIREBO/Higher-Symm/Only-C60
REM
REM
REM
REM
REM
REM ./C.cell (28575a23ae977d3b5fae324c64b13b57)
REM
REM compiler GCC version 9.2.1 20190827 (Red Hat 9.2.1-1)
REM options -cpp -mtune=generic -march=x86-64 -g -O0 -fpre-include=/usr/include/finclude/math-vector-fortran.h
REM seed 1195600714 131710152 92731498 -1413583653 -1383660746 -1054327669 -1864359797 -423042277 -1087167489 1886078804 1926057662 69245860 1050696349 1474611251 705716032 -693142928 -1852221670 -396210522 -11160419 -1085560852 205009925 -1546923062 236353406 481919257 570914961 638428650 -697152552 -574109888 -1620806665 904659087 2005198656 -440170808 -1070791460
REM
CELL 1.54180   50.00000   50.00000   50.00000   90.00000   90.00000   90.00000
LATT -1
SFAC C  
C      1  0.5479820000000  0.4343960000000  0.5213110000000 1.0
C      1  0.5695450000000  0.5425900000000  0.4704320000000 1.0
C      1  0.4429240000000  0.5509700000000  0.5239460000000 1.0
C      1  0.4404140000000  0.4603820000000  0.4667720000000 1.0
C      1  0.5311260000000  0.5131480000000  0.4509270000000 1.0
C      1  0.4756840000000  0.5391320000000  0.5664740000000 1.0
C      1  0.4718850000000  0.4863830000000  0.4322500000000 1.0
C      1  0.5228420000000  0.4643240000000  0.5569340000000 1.0
C      1  0.5416650000000  0.4849000000000  0.5150960000000 1.0
C      1  0.5272710000000  0.5277600000000  0.4878220000000 1.0
C      1  0.4758480000000  0.5129330000000  0.5200960000000 1.0
C      1  0.4769810000000  0.4690050000000  0.4803190000000 1.0
C      1  0.4167150000000  0.5326320000000  0.5180880000000 1.0
C      1  0.4475230000000  0.4471980000000  0.4953170000000 1.0
C      1  0.5800270000000  0.4355960000000  0.5167200000000 1.0
C      1  0.5611890000000  0.5737140000000  0.4742920000000 1.0
C      1  0.5416640000000  0.5160320000000  0.5787700000000 1.0
C      1  0.4970340000000  0.5606880000000  0.4390120000000 1.0
C      1  0.4707380000000  0.5054680000000  0.5675470000000 1.0
C      1  0.4948370000000  0.4728710000000  0.4275960000000 1.0
C      1  0.5081190000000  0.5077960000000  0.4736550000000 1.0
C      1  0.4928100000000  0.5177530000000  0.5474860000000 1.0
C      1  0.4646380000000  0.4921380000000  0.4649670000000 1.0
C      1  0.5202650000000  0.4878690000000  0.5372150000000 1.0
C      1  0.5156000000000  0.5514720000000  0.5393130000000 1.0
C      1  0.4494920000000  0.5308740000000  0.4414110000000 1.0
C      1  0.4801310000000  0.4479570000000  0.5583240000000 1.0
C      1  0.5499270000000  0.4722390000000  0.4519210000000 1.0
C      1  0.4595730000000  0.4634160000000  0.5402600000000 1.0
C      1  0.5368300000000  0.4507560000000  0.4715660000000 1.0
C      1  0.5401390000000  0.5352920000000  0.5238610000000 1.0
C      1  0.4514520000000  0.5454480000000  0.4709330000000 1.0
C      1  0.5710280000000  0.5124530000000  0.4788050000000 1.0
C      1  0.4710570000000  0.5637570000000  0.5199640000000 1.0
C      1  0.4312510000000  0.4867710000000  0.4545280000000 1.0
C      1  0.5170990000000  0.4337960000000  0.5213780000000 1.0
C      1  0.4908410000000  0.4851290000000  0.5251060000000 1.0
C      1  0.5066020000000  0.4757780000000  0.4775780000000 1.0
C      1  0.5220990000000  0.5143240000000  0.5526300000000 1.0
C      1  0.4801860000000  0.5185190000000  0.4718730000000 1.0
C      1  0.5967290000000  0.5025360000000  0.4834260000000 1.0
C      1  0.4727800000000  0.5896260000000  0.5098290000000 1.0
C      1  0.4043080000000  0.4918750000000  0.4576190000000 1.0
C      1  0.5047240000000  0.4109730000000  0.5112350000000 1.0
C      1  0.4891680000000  0.5572170000000  0.5437930000000 1.0
C      1  0.4463020000000  0.5051290000000  0.4323810000000 1.0
C      1  0.5064370000000  0.4438230000000  0.5489480000000 1.0
C      1  0.5543610000000  0.4991470000000  0.4559060000000 1.0
C      1  0.5496030000000  0.5115530000000  0.5044150000000 1.0
C      1  0.4704430000000  0.5378790000000  0.4981210000000 1.0
C      1  0.4695170000000  0.4662430000000  0.5111110000000 1.0
C      1  0.5250340000000  0.4595040000000  0.5003880000000 1.0
C      1  0.5613450000000  0.4621620000000  0.5202980000000 1.0
C      1  0.5391060000000  0.5497460000000  0.4754780000000 1.0
C      1  0.4459910000000  0.5201280000000  0.5242310000000 1.0
C      1  0.4657670000000  0.4393320000000  0.4680500000000 1.0
C      1  0.5167890000000  0.4650050000000  0.4480740000000 1.0
C      1  0.5430920000000  0.5414370000000  0.5566330000000 1.0
C      1  0.4786110000000  0.5444960000000  0.4499800000000 1.0
C      1  0.4668580000000  0.4785280000000  0.5675870000000 1.0
END
