TITL C-1154825-9328-642 -0.00540501841910025 125000 -342.241133462056 0 0 60 (C1) n - 1
REM
REM in /home/nfs/bkarasulu/CARBON/AIRSS/Generating-Clusters/AIREBO/Higher-Symm/Only-C60
REM
REM
REM
REM
REM
REM ./C.cell (28575a23ae977d3b5fae324c64b13b57)
REM
REM compiler GCC version 9.2.1 20190827 (Red Hat 9.2.1-1)
REM options -cpp -mtune=generic -march=x86-64 -g -O0 -fpre-include=/usr/include/finclude/math-vector-fortran.h
REM seed 874573719 -1892322045 1911250171 -30314468 1784669594 69729002 1618060410 -163197563 1407841652 568104469 -1720117823 1988696606 -774129193 2127390729 -1517121149 1258362104 -372207799 -713285588 -1387357275 920144005 -609542121 1289906311 -644487096 1313778438 -1041327904 1138164343 -2000867449 963625639 1562714827 947940775 354219951 1098741967 -1072145874
REM
CELL 1.54180   50.00000   50.00000   50.00000   90.00000   90.00000   90.00000
LATT -1
SFAC C  
C      1  0.5178710000000  0.4828380000000  0.5713580000000 1.0
C      1  0.5665720000000  0.4853830000000  0.4850840000000 1.0
C      1  0.4848440000000  0.4827390000000  0.4205270000000 1.0
C      1  0.4290620000000  0.4820570000000  0.5212360000000 1.0
C      1  0.5139680000000  0.5141120000000  0.5691440000000 1.0
C      1  0.5683090000000  0.5162980000000  0.4835140000000 1.0
C      1  0.4870950000000  0.5139060000000  0.4203100000000 1.0
C      1  0.4294000000000  0.5147350000000  0.5171500000000 1.0
C      1  0.4842770000000  0.4378860000000  0.5096950000000 1.0
C      1  0.5139880000000  0.4343800000000  0.5159420000000 1.0
C      1  0.5151030000000  0.4372380000000  0.4847520000000 1.0
C      1  0.4842310000000  0.4401220000000  0.4786440000000 1.0
C      1  0.4821120000000  0.5625030000000  0.5080730000000 1.0
C      1  0.5123120000000  0.5674440000000  0.5162430000000 1.0
C      1  0.5146780000000  0.5597480000000  0.4859550000000 1.0
C      1  0.4844340000000  0.5590620000000  0.4769690000000 1.0
C      1  0.5189160000000  0.5211230000000  0.4214620000000 1.0
C      1  0.4253910000000  0.5180410000000  0.4835250000000 1.0
C      1  0.4813740000000  0.5198710000000  0.5745470000000 1.0
C      1  0.5690900000000  0.5112330000000  0.5153550000000 1.0
C      1  0.5177240000000  0.4886990000000  0.4241880000000 1.0
C      1  0.4297240000000  0.4866250000000  0.4886390000000 1.0
C      1  0.4850930000000  0.4873390000000  0.5750170000000 1.0
C      1  0.5717640000000  0.4785680000000  0.5179540000000 1.0
C      1  0.4989130000000  0.5143390000000  0.4688220000000 1.0
C      1  0.4706690000000  0.5086880000000  0.5099000000000 1.0
C      1  0.5036230000000  0.5198690000000  0.5284430000000 1.0
C      1  0.5188960000000  0.5111670000000  0.5030100000000 1.0
C      1  0.4966220000000  0.4871260000000  0.4730790000000 1.0
C      1  0.4665010000000  0.4853670000000  0.5029340000000 1.0
C      1  0.4990180000000  0.4856240000000  0.5260040000000 1.0
C      1  0.5219230000000  0.4806940000000  0.5032560000000 1.0
C      1  0.4479760000000  0.5282740000000  0.5362390000000 1.0
C      1  0.5335220000000  0.5292990000000  0.5531820000000 1.0
C      1  0.5491070000000  0.5267420000000  0.4652970000000 1.0
C      1  0.4675380000000  0.5287710000000  0.4360990000000 1.0
C      1  0.4497280000000  0.4713930000000  0.5390230000000 1.0
C      1  0.5363150000000  0.4696890000000  0.5536670000000 1.0
C      1  0.5485550000000  0.4747430000000  0.4640810000000 1.0
C      1  0.4666440000000  0.4703000000000  0.4389210000000 1.0
C      1  0.5603780000000  0.5211720000000  0.5439000000000 1.0
C      1  0.5460890000000  0.5217260000000  0.4374100000000 1.0
C      1  0.4410650000000  0.5275410000000  0.4574100000000 1.0
C      1  0.4525530000000  0.5236750000000  0.5644030000000 1.0
C      1  0.5635270000000  0.4759650000000  0.5478470000000 1.0
C      1  0.5446530000000  0.4817630000000  0.4365430000000 1.0
C      1  0.4410140000000  0.4734680000000  0.4610500000000 1.0
C      1  0.4560570000000  0.4783640000000  0.5661820000000 1.0
C      1  0.5239620000000  0.5311980000000  0.4796900000000 1.0
C      1  0.4800350000000  0.5351960000000  0.4620310000000 1.0
C      1  0.4750030000000  0.5374800000000  0.5230550000000 1.0
C      1  0.5202140000000  0.5476870000000  0.5343760000000 1.0
C      1  0.5233560000000  0.4664050000000  0.4767480000000 1.0
C      1  0.4797680000000  0.4644650000000  0.4647380000000 1.0
C      1  0.4744240000000  0.4622640000000  0.5234850000000 1.0
C      1  0.5221600000000  0.4606780000000  0.5294850000000 1.0
C      1  0.5656680000000  0.5011520000000  0.4256580000000 1.0
C      1  0.4385950000000  0.5002660000000  0.5755300000000 1.0
C      1  0.5725370000000  0.5003960000000  0.5609750000000 1.0
C      1  0.4560570000000  0.5008930000000  0.4622410000000 1.0
END
