TITL C-1154802-8274-371 -0.00350950223311195 125000 -313.515946651765 0 0 60 (C1) n - 1
REM
REM in /home/nfs/bkarasulu/CARBON/AIRSS/Generating-Clusters/AIREBO/Higher-Symm/Only-C60
REM
REM
REM
REM
REM
REM ./C.cell (28575a23ae977d3b5fae324c64b13b57)
REM
REM compiler GCC version 9.2.1 20190827 (Red Hat 9.2.1-1)
REM options -cpp -mtune=generic -march=x86-64 -g -O0 -fpre-include=/usr/include/finclude/math-vector-fortran.h
REM seed 204752200 -715140256 -1516450705 -1064140849 -284948722 910139766 -1605801465 -58316915 -490317671 597251551 1117379436 -2047679406 1661120711 1430962759 -1013609197 -1723583739 9704321 1328715094 430992210 936034679 -1369179036 1456554720 -259195296 -820521781 -1413341995 175295604 474569891 -1227141059 -2117798623 -1187126083 -1666924128 980364669 -2083779515
REM
CELL 1.54180   50.00000   50.00000   50.00000   90.00000   90.00000   90.00000
LATT -1
SFAC C  
C      1  0.4462910000000  0.4682610000000  0.4814010000000 1.0
C      1  0.4571110000000  0.5094800000000  0.4791590000000 1.0
C      1  0.4703820000000  0.5360900000000  0.4809500000000 1.0
C      1  0.5271800000000  0.5395500000000  0.4835610000000 1.0
C      1  0.5490330000000  0.5229710000000  0.4776560000000 1.0
C      1  0.5329370000000  0.4628860000000  0.4780570000000 1.0
C      1  0.5069630000000  0.4520800000000  0.4814720000000 1.0
C      1  0.5012300000000  0.4287540000000  0.5181170000000 1.0
C      1  0.4481830000000  0.4546780000000  0.5184080000000 1.0
C      1  0.4298160000000  0.5144030000000  0.5186410000000 1.0
C      1  0.4653930000000  0.5645550000000  0.5219940000000 1.0
C      1  0.5272950000000  0.5678380000000  0.5277980000000 1.0
C      1  0.5682790000000  0.5215450000000  0.5204260000000 1.0
C      1  0.5612280000000  0.4586770000000  0.5224000000000 1.0
C      1  0.5134560000000  0.5411930000000  0.5118600000000 1.0
C      1  0.5575210000000  0.5061040000000  0.4977770000000 1.0
C      1  0.5411640000000  0.4806080000000  0.5058910000000 1.0
C      1  0.4929500000000  0.4609980000000  0.5111520000000 1.0
C      1  0.4653970000000  0.4798530000000  0.5046500000000 1.0
C      1  0.4632460000000  0.5128550000000  0.5125920000000 1.0
C      1  0.4827630000000  0.5404280000000  0.5086700000000 1.0
C      1  0.5155430000000  0.5472760000000  0.4592050000000 1.0
C      1  0.5538470000000  0.5209230000000  0.4503320000000 1.0
C      1  0.5391730000000  0.4709190000000  0.4517850000000 1.0
C      1  0.4938720000000  0.4431080000000  0.4581080000000 1.0
C      1  0.4437010000000  0.4664400000000  0.4567730000000 1.0
C      1  0.4520860000000  0.5051220000000  0.4518240000000 1.0
C      1  0.4758380000000  0.5494340000000  0.4581300000000 1.0
C      1  0.4685210000000  0.4340610000000  0.5273050000000 1.0
C      1  0.4331000000000  0.4837720000000  0.5276910000000 1.0
C      1  0.4441060000000  0.5438490000000  0.5287850000000 1.0
C      1  0.4960240000000  0.5696760000000  0.5337120000000 1.0
C      1  0.5498760000000  0.5423920000000  0.5282440000000 1.0
C      1  0.5705080000000  0.4894130000000  0.5315770000000 1.0
C      1  0.5301520000000  0.4449750000000  0.5206270000000 1.0
C      1  0.4763540000000  0.5268860000000  0.5738800000000 1.0
C      1  0.5081500000000  0.5364050000000  0.5733490000000 1.0
C      1  0.5313770000000  0.5147320000000  0.5719300000000 1.0
C      1  0.5348990000000  0.4815210000000  0.5692730000000 1.0
C      1  0.5055960000000  0.4736130000000  0.5626520000000 1.0
C      1  0.4746100000000  0.4714630000000  0.5714990000000 1.0
C      1  0.4576650000000  0.5007080000000  0.5737500000000 1.0
C      1  0.4659920000000  0.4777030000000  0.4365690000000 1.0
C      1  0.4762770000000  0.5093860000000  0.4297420000000 1.0
C      1  0.4941680000000  0.5340320000000  0.4363180000000 1.0
C      1  0.5271730000000  0.5305200000000  0.4314160000000 1.0
C      1  0.5388510000000  0.4985920000000  0.4321410000000 1.0
C      1  0.5171690000000  0.4731720000000  0.4258220000000 1.0
C      1  0.4896750000000  0.4582610000000  0.4355650000000 1.0
C      1  0.5269300000000  0.4739240000000  0.5361740000000 1.0
C      1  0.4867170000000  0.4550760000000  0.5440690000000 1.0
C      1  0.4534700000000  0.4809030000000  0.5478850000000 1.0
C      1  0.4588220000000  0.5203560000000  0.5454890000000 1.0
C      1  0.4867460000000  0.5503500000000  0.5526020000000 1.0
C      1  0.5238890000000  0.5315440000000  0.5433370000000 1.0
C      1  0.5527270000000  0.5011770000000  0.5507730000000 1.0
C      1  0.5010530000000  0.4954190000000  0.4440840000000 1.0
C      1  0.5046340000000  0.4905900000000  0.4701120000000 1.0
C      1  0.5098740000000  0.4878930000000  0.4990450000000 1.0
C      1  0.4935470000000  0.4905210000000  0.5282010000000 1.0
END
