TITL C-1154825-9328-361 -0.00153296676071573 125000 -333.995367669487 0 0 60 (C1) n - 1
REM
REM in /home/nfs/bkarasulu/CARBON/AIRSS/Generating-Clusters/AIREBO/Higher-Symm/Only-C60
REM
REM
REM
REM
REM
REM ./C.cell (28575a23ae977d3b5fae324c64b13b57)
REM
REM compiler GCC version 9.2.1 20190827 (Red Hat 9.2.1-1)
REM options -cpp -mtune=generic -march=x86-64 -g -O0 -fpre-include=/usr/include/finclude/math-vector-fortran.h
REM seed -1437721362 -1893368994 903390438 -649471126 1012881650 1765973956 -2077050821 -1663943715 -1312427087 -2050419327 -1084474933 1686098913 -323717303 -865035237 1170332857 -1363852641 1693894857 718372479 1281084928 -2056892285 143384739 -1292248586 -945048772 1098462113 -1904204919 1035055623 1448129712 -162392769 -1700972659 2128362143 -101251046 1669126136 -1962836218
REM
CELL 1.54180   50.00000   50.00000   50.00000   90.00000   90.00000   90.00000
LATT -1
SFAC C  
C      1  0.5324690000000  0.4356540000000  0.4464480000000 1.0
C      1  0.4614100000000  0.5649950000000  0.4461480000000 1.0
C      1  0.4641100000000  0.4376110000000  0.5533350000000 1.0
C      1  0.5319190000000  0.5628210000000  0.5520220000000 1.0
C      1  0.5405990000000  0.4894880000000  0.5338460000000 1.0
C      1  0.4624200000000  0.5119680000000  0.5340610000000 1.0
C      1  0.4631470000000  0.4933540000000  0.4673870000000 1.0
C      1  0.5406680000000  0.5078010000000  0.4668040000000 1.0
C      1  0.4551430000000  0.4420960000000  0.4609300000000 1.0
C      1  0.5494420000000  0.5589850000000  0.4608940000000 1.0
C      1  0.5509320000000  0.4375610000000  0.5377860000000 1.0
C      1  0.4482340000000  0.5624820000000  0.5385170000000 1.0
C      1  0.4999730000000  0.5170190000000  0.4757460000000 1.0
C      1  0.5012400000000  0.4831180000000  0.4734750000000 1.0
C      1  0.5061830000000  0.5074730000000  0.5246380000000 1.0
C      1  0.4974820000000  0.4789100000000  0.5328200000000 1.0
C      1  0.5492210000000  0.4914000000000  0.4879530000000 1.0
C      1  0.4536420000000  0.5085700000000  0.4886880000000 1.0
C      1  0.4548000000000  0.4949480000000  0.5128070000000 1.0
C      1  0.5502630000000  0.5052690000000  0.5121830000000 1.0
C      1  0.4515520000000  0.5748700000000  0.4923550000000 1.0
C      1  0.5395830000000  0.4254600000000  0.4928600000000 1.0
C      1  0.5382260000000  0.5712690000000  0.5054160000000 1.0
C      1  0.4571020000000  0.4282870000000  0.5067540000000 1.0
C      1  0.4552660000000  0.5383110000000  0.5266270000000 1.0
C      1  0.5461940000000  0.4624180000000  0.5261290000000 1.0
C      1  0.5460470000000  0.5343960000000  0.4734570000000 1.0
C      1  0.4610150000000  0.4661400000000  0.4738710000000 1.0
C      1  0.5423620000000  0.5376510000000  0.5071160000000 1.0
C      1  0.4600120000000  0.4617110000000  0.5078810000000 1.0
C      1  0.4564990000000  0.5415490000000  0.4925170000000 1.0
C      1  0.5406800000000  0.4592240000000  0.4924330000000 1.0
C      1  0.5183930000000  0.5047920000000  0.5546290000000 1.0
C      1  0.4844660000000  0.4983830000000  0.5561120000000 1.0
C      1  0.4859220000000  0.5083590000000  0.4470740000000 1.0
C      1  0.5176310000000  0.4951300000000  0.4475260000000 1.0
C      1  0.4650780000000  0.4179020000000  0.5323360000000 1.0
C      1  0.5273160000000  0.5807190000000  0.5300780000000 1.0
C      1  0.5293710000000  0.4163390000000  0.4676690000000 1.0
C      1  0.4601700000000  0.5850900000000  0.4669180000000 1.0
C      1  0.4715670000000  0.4693070000000  0.5617060000000 1.0
C      1  0.5303000000000  0.5314400000000  0.5620190000000 1.0
C      1  0.5293430000000  0.4679560000000  0.4383070000000 1.0
C      1  0.4701410000000  0.5334350000000  0.4386350000000 1.0
C      1  0.5589020000000  0.4334760000000  0.5630870000000 1.0
C      1  0.4446030000000  0.5664270000000  0.5648180000000 1.0
C      1  0.4536370000000  0.4386870000000  0.4343450000000 1.0
C      1  0.5566930000000  0.5626340000000  0.4353210000000 1.0
C      1  0.4521870000000  0.4209320000000  0.4799330000000 1.0
C      1  0.5449540000000  0.5800610000000  0.4795140000000 1.0
C      1  0.5470430000000  0.4167060000000  0.5186440000000 1.0
C      1  0.4452360000000  0.5828720000000  0.5187030000000 1.0
C      1  0.4470800000000  0.5403190000000  0.4598690000000 1.0
C      1  0.5506180000000  0.4578010000000  0.4599470000000 1.0
C      1  0.5512680000000  0.5407060000000  0.5397880000000 1.0
C      1  0.4490200000000  0.4619560000000  0.5400550000000 1.0
C      1  0.4880420000000  0.5431110000000  0.4902550000000 1.0
C      1  0.5089410000000  0.4642480000000  0.4914680000000 1.0
C      1  0.5123990000000  0.5263630000000  0.5044500000000 1.0
C      1  0.4918420000000  0.4620430000000  0.5128860000000 1.0
END
