TITL C-1154802-8274-107 -0.00256849701396053 125000 -351.163891483971 0 0 60 (C1) n - 1
REM
REM in /home/nfs/bkarasulu/CARBON/AIRSS/Generating-Clusters/AIREBO/Higher-Symm/Only-C60
REM
REM
REM
REM
REM
REM ./C.cell (28575a23ae977d3b5fae324c64b13b57)
REM
REM compiler GCC version 9.2.1 20190827 (Red Hat 9.2.1-1)
REM options -cpp -mtune=generic -march=x86-64 -g -O0 -fpre-include=/usr/include/finclude/math-vector-fortran.h
REM seed 27721047 -844897271 1116615151 -171771879 -1010221085 -1442576649 -1353613448 18870638 -1802836932 -2131921172 1815310974 1529180381 618754687 2037923289 1825564980 1295725960 -1466688552 -903983646 104169001 -337490087 -1899951456 156201197 1972919143 -1360430541 -1201888009 -1696240319 1048412638 849637874 88546399 1909866725 -1374936291 -1884267506 -1648194662
REM
CELL 1.54180   50.00000   50.00000   50.00000   90.00000   90.00000   90.00000
LATT -1
SFAC C  
C      1  0.5244780000000  0.4402990000000  0.4692460000000 1.0
C      1  0.5275990000000  0.4558580000000  0.5179030000000 1.0
C      1  0.5237330000000  0.4900490000000  0.5562320000000 1.0
C      1  0.5178050000000  0.5395720000000  0.5630860000000 1.0
C      1  0.5217600000000  0.5734730000000  0.5283270000000 1.0
C      1  0.5100230000000  0.4996930000000  0.4002580000000 1.0
C      1  0.5328370000000  0.4603390000000  0.4235970000000 1.0
C      1  0.4413910000000  0.5187850000000  0.5319300000000 1.0
C      1  0.4441620000000  0.5350010000000  0.4835760000000 1.0
C      1  0.4403030000000  0.5109680000000  0.4660130000000 1.0
C      1  0.4491460000000  0.4845860000000  0.4816290000000 1.0
C      1  0.4460170000000  0.4641450000000  0.5087820000000 1.0
C      1  0.4460260000000  0.4704000000000  0.5373490000000 1.0
C      1  0.4403840000000  0.4988940000000  0.5514610000000 1.0
C      1  0.5925060000000  0.4741370000000  0.4901090000000 1.0
C      1  0.5902660000000  0.4488190000000  0.5034750000000 1.0
C      1  0.5797770000000  0.4495180000000  0.5294060000000 1.0
C      1  0.5694840000000  0.4740740000000  0.5380700000000 1.0
C      1  0.5742560000000  0.4965430000000  0.5207910000000 1.0
C      1  0.6017450000000  0.5071480000000  0.5202810000000 1.0
C      1  0.6142280000000  0.4918650000000  0.4992540000000 1.0
C      1  0.4649290000000  0.4381280000000  0.4999660000000 1.0
C      1  0.4684770000000  0.4551790000000  0.5555270000000 1.0
C      1  0.4675310000000  0.5070670000000  0.5940810000000 1.0
C      1  0.4560520000000  0.5621600000000  0.5465460000000 1.0
C      1  0.4226480000000  0.5776950000000  0.4953500000000 1.0
C      1  0.4645250000000  0.5157650000000  0.4195360000000 1.0
C      1  0.4649290000000  0.4540820000000  0.4379430000000 1.0
C      1  0.5283640000000  0.4986310000000  0.4452090000000 1.0
C      1  0.5142950000000  0.5028100000000  0.4738610000000 1.0
C      1  0.4967490000000  0.5213050000000  0.4838900000000 1.0
C      1  0.5068300000000  0.5472580000000  0.4850630000000 1.0
C      1  0.5325440000000  0.5611700000000  0.4715340000000 1.0
C      1  0.5470560000000  0.5504850000000  0.4506070000000 1.0
C      1  0.5494730000000  0.5231640000000  0.4472890000000 1.0
C      1  0.5172210000000  0.4667240000000  0.5418560000000 1.0
C      1  0.5139140000000  0.5127420000000  0.5697850000000 1.0
C      1  0.5082110000000  0.5623410000000  0.5500440000000 1.0
C      1  0.5256540000000  0.5668370000000  0.5022650000000 1.0
C      1  0.5264640000000  0.4786310000000  0.4044780000000 1.0
C      1  0.5172840000000  0.4475060000000  0.4430420000000 1.0
C      1  0.5162880000000  0.4418570000000  0.4960830000000 1.0
C      1  0.4951810000000  0.4525140000000  0.5522650000000 1.0
C      1  0.4943000000000  0.5081410000000  0.5894780000000 1.0
C      1  0.4812420000000  0.5691380000000  0.5534840000000 1.0
C      1  0.4125620000000  0.6009800000000  0.4887940000000 1.0
C      1  0.4847120000000  0.5084820000000  0.4033980000000 1.0
C      1  0.4901260000000  0.4442300000000  0.4365200000000 1.0
C      1  0.4908680000000  0.4307490000000  0.5013830000000 1.0
C      1  0.4357040000000  0.5543840000000  0.5021060000000 1.0
C      1  0.4461450000000  0.5130600000000  0.4389680000000 1.0
C      1  0.4473020000000  0.4620570000000  0.4573880000000 1.0
C      1  0.4406470000000  0.4456380000000  0.4810290000000 1.0
C      1  0.4451850000000  0.4659880000000  0.5734180000000 1.0
C      1  0.4459970000000  0.4956900000000  0.5806310000000 1.0
C      1  0.4411510000000  0.5465780000000  0.5288680000000 1.0
C      1  0.5664010000000  0.4904210000000  0.4916960000000 1.0
C      1  0.5484810000000  0.5006410000000  0.4727410000000 1.0
C      1  0.4703940000000  0.5169750000000  0.4914100000000 1.0
C      1  0.4452650000000  0.5038880000000  0.5086640000000 1.0
END
