TITL C-1154808-8168-229 0.00155159698045289 125000 -327.469426256433 0 0 60 (C1) n - 1
REM
REM in /home/nfs/bkarasulu/CARBON/AIRSS/Generating-Clusters/AIREBO/Higher-Symm/Only-C60
REM
REM
REM
REM
REM
REM ./C.cell (28575a23ae977d3b5fae324c64b13b57)
REM
REM compiler GCC version 9.2.1 20190827 (Red Hat 9.2.1-1)
REM options -cpp -mtune=generic -march=x86-64 -g -O0 -fpre-include=/usr/include/finclude/math-vector-fortran.h
REM seed 522722026 -1099502651 -1473581684 1713989062 218197927 854204427 1797884489 212990707 308964657 -1698458207 1419226834 -1055811663 920141573 305419590 383051242 -1100635564 -1390395742 -2078907885 -395086734 561132298 -263589712 -1749765869 -659119874 -1215421294 1256518648 -27702961 -1484964635 -551940869 883924369 580169171 -1965817639 1894574340 865596905
REM
CELL 1.54180   50.00000   50.00000   50.00000   90.00000   90.00000   90.00000
LATT -1
SFAC C  
C      1  0.4774710000000  0.4530430000000  0.5445290000000 1.0
C      1  0.5034620000000  0.4391180000000  0.5484300000000 1.0
C      1  0.5611280000000  0.5514940000000  0.5192610000000 1.0
C      1  0.5226070000000  0.4331100000000  0.5237390000000 1.0
C      1  0.4694560000000  0.5585590000000  0.4827860000000 1.0
C      1  0.4558700000000  0.5600290000000  0.5298090000000 1.0
C      1  0.4947570000000  0.5276060000000  0.5416140000000 1.0
C      1  0.5391330000000  0.4739830000000  0.4710260000000 1.0
C      1  0.4518000000000  0.4987650000000  0.5382690000000 1.0
C      1  0.5699630000000  0.4750990000000  0.4702040000000 1.0
C      1  0.4510830000000  0.4827750000000  0.4639460000000 1.0
C      1  0.5226170000000  0.4669000000000  0.5275260000000 1.0
C      1  0.4689530000000  0.5252330000000  0.4612660000000 1.0
C      1  0.5297960000000  0.5231130000000  0.5042370000000 1.0
C      1  0.4536450000000  0.5546020000000  0.4535730000000 1.0
C      1  0.5014700000000  0.5061480000000  0.4972720000000 1.0
C      1  0.4810320000000  0.4334170000000  0.4744850000000 1.0
C      1  0.5537620000000  0.5017350000000  0.4948840000000 1.0
C      1  0.5644920000000  0.4714200000000  0.5530560000000 1.0
C      1  0.4700050000000  0.5232380000000  0.5232420000000 1.0
C      1  0.4841260000000  0.4825110000000  0.5742430000000 1.0
C      1  0.4347290000000  0.5277890000000  0.4606380000000 1.0
C      1  0.4322860000000  0.4981710000000  0.4514360000000 1.0
C      1  0.4810170000000  0.4830980000000  0.5343700000000 1.0
C      1  0.4999060000000  0.5546510000000  0.4767710000000 1.0
C      1  0.5421890000000  0.5422660000000  0.5370600000000 1.0
C      1  0.4776160000000  0.4786170000000  0.4484100000000 1.0
C      1  0.4982080000000  0.4624590000000  0.4265310000000 1.0
C      1  0.4907160000000  0.5089970000000  0.4466780000000 1.0
C      1  0.5543160000000  0.5212050000000  0.4670140000000 1.0
C      1  0.4354430000000  0.5089660000000  0.5096380000000 1.0
C      1  0.5431570000000  0.4534250000000  0.5510430000000 1.0
C      1  0.5278130000000  0.4364710000000  0.4719420000000 1.0
C      1  0.5254040000000  0.4591100000000  0.4466840000000 1.0
C      1  0.5086620000000  0.5004380000000  0.5442520000000 1.0
C      1  0.5188830000000  0.4915870000000  0.4416380000000 1.0
C      1  0.5250060000000  0.4830090000000  0.5006310000000 1.0
C      1  0.4390770000000  0.5342480000000  0.5320960000000 1.0
C      1  0.5614470000000  0.4884820000000  0.5314670000000 1.0
C      1  0.5414800000000  0.4459370000000  0.4991900000000 1.0
C      1  0.5100540000000  0.4707800000000  0.5589320000000 1.0
C      1  0.4810160000000  0.5587060000000  0.5414750000000 1.0
C      1  0.4234000000000  0.5580030000000  0.4966030000000 1.0
C      1  0.4844050000000  0.4514940000000  0.4995980000000 1.0
C      1  0.5130610000000  0.5526460000000  0.5317840000000 1.0
C      1  0.5378480000000  0.5096820000000  0.5344230000000 1.0
C      1  0.4237540000000  0.5315020000000  0.4888730000000 1.0
C      1  0.4527970000000  0.4867460000000  0.4923090000000 1.0
C      1  0.4607040000000  0.4891920000000  0.5681720000000 1.0
C      1  0.5781870000000  0.4999990000000  0.4620900000000 1.0
C      1  0.4763880000000  0.5268290000000  0.4931510000000 1.0
C      1  0.4492970000000  0.5687860000000  0.5033690000000 1.0
C      1  0.5292350000000  0.5190180000000  0.4501730000000 1.0
C      1  0.4882370000000  0.4465820000000  0.4525310000000 1.0
C      1  0.5145160000000  0.5525400000000  0.5000750000000 1.0
C      1  0.5066220000000  0.4269960000000  0.4961180000000 1.0
C      1  0.5064290000000  0.5379280000000  0.4554080000000 1.0
C      1  0.5571780000000  0.5414110000000  0.4931660000000 1.0
C      1  0.4803250000000  0.4804370000000  0.5038810000000 1.0
C      1  0.5625610000000  0.4699010000000  0.5029820000000 1.0
END
