TITL C-1154824-75-634 -0.000294525175087086 125000 -323.471219185905 0 0 60 (C1) n - 1
REM
REM in /home/nfs/bkarasulu/CARBON/AIRSS/Generating-Clusters/AIREBO/Higher-Symm/Only-C60
REM
REM
REM
REM
REM
REM ./C.cell (28575a23ae977d3b5fae324c64b13b57)
REM
REM compiler GCC version 9.2.1 20190827 (Red Hat 9.2.1-1)
REM options -cpp -mtune=generic -march=x86-64 -g -O0 -fpre-include=/usr/include/finclude/math-vector-fortran.h
REM seed 1927690958 1512653823 1880913159 -1571019415 -595698889 -1917757440 -1614484665 -1424630854 1445223295 -1812521170 640186519 504049209 -821263677 -301047279 -696354199 -1455954307 -311228550 -192865464 1357901938 731113095 1599255729 1529141740 1411183829 -1325420439 1629902943 -1431640286 1674862907 -320983470 369753466 1277678453 -1994486762 -670464424 -204653774
REM
CELL 1.54180   50.00000   50.00000   50.00000   90.00000   90.00000   90.00000
LATT -1
SFAC C  
C      1  0.4909640000000  0.4540160000000  0.4434780000000 1.0
C      1  0.4359870000000  0.5264310000000  0.5133390000000 1.0
C      1  0.5443410000000  0.4935190000000  0.4857510000000 1.0
C      1  0.5067400000000  0.4793450000000  0.4827720000000 1.0
C      1  0.5408690000000  0.5589610000000  0.5699240000000 1.0
C      1  0.5120030000000  0.4702170000000  0.5124760000000 1.0
C      1  0.4685910000000  0.4588650000000  0.5333290000000 1.0
C      1  0.5419820000000  0.4408080000000  0.4895410000000 1.0
C      1  0.5576350000000  0.5661530000000  0.5490960000000 1.0
C      1  0.4796710000000  0.5052240000000  0.4689870000000 1.0
C      1  0.4898630000000  0.4316420000000  0.4617590000000 1.0
C      1  0.5033830000000  0.5294180000000  0.4179510000000 1.0
C      1  0.5198230000000  0.4560160000000  0.4343280000000 1.0
C      1  0.5347400000000  0.4744940000000  0.5556970000000 1.0
C      1  0.5073910000000  0.5376000000000  0.5413040000000 1.0
C      1  0.4495160000000  0.4829440000000  0.4325760000000 1.0
C      1  0.5328270000000  0.5611550000000  0.5073960000000 1.0
C      1  0.4043720000000  0.4862480000000  0.4523630000000 1.0
C      1  0.5349890000000  0.4579820000000  0.4122680000000 1.0
C      1  0.4884350000000  0.4406150000000  0.5330800000000 1.0
C      1  0.4988350000000  0.4101110000000  0.5334270000000 1.0
C      1  0.4782360000000  0.5133980000000  0.5020790000000 1.0
C      1  0.4472890000000  0.4989600000000  0.4752630000000 1.0
C      1  0.5757160000000  0.5149520000000  0.4976010000000 1.0
C      1  0.5312180000000  0.5533160000000  0.4763350000000 1.0
C      1  0.5076290000000  0.5564810000000  0.5198490000000 1.0
C      1  0.4487940000000  0.5069350000000  0.5332050000000 1.0
C      1  0.5007940000000  0.5307890000000  0.4499750000000 1.0
C      1  0.5597920000000  0.5270140000000  0.5222280000000 1.0
C      1  0.5510100000000  0.4665010000000  0.5052870000000 1.0
C      1  0.5236230000000  0.4550340000000  0.4661600000000 1.0
C      1  0.5035040000000  0.5117040000000  0.5249320000000 1.0
C      1  0.5403660000000  0.4533960000000  0.5348840000000 1.0
C      1  0.5227120000000  0.4970990000000  0.4585540000000 1.0
C      1  0.5034990000000  0.5682810000000  0.4633670000000 1.0
C      1  0.5023560000000  0.5005380000000  0.4357860000000 1.0
C      1  0.5307430000000  0.4915970000000  0.5289380000000 1.0
C      1  0.4679900000000  0.4846730000000  0.5171520000000 1.0
C      1  0.5257210000000  0.4850440000000  0.5793730000000 1.0
C      1  0.5151850000000  0.4247570000000  0.4777510000000 1.0
C      1  0.4785110000000  0.5597940000000  0.4741560000000 1.0
C      1  0.4459180000000  0.4587160000000  0.5504860000000 1.0
C      1  0.4427520000000  0.5275950000000  0.4868840000000 1.0
C      1  0.5434270000000  0.5224550000000  0.4678930000000 1.0
C      1  0.4313750000000  0.4894930000000  0.4519990000000 1.0
C      1  0.5168450000000  0.5459000000000  0.5660360000000 1.0
C      1  0.4728340000000  0.4777200000000  0.4856430000000 1.0
C      1  0.4369390000000  0.4849430000000  0.5562660000000 1.0
C      1  0.4514110000000  0.5503740000000  0.4703670000000 1.0
C      1  0.5554090000000  0.5540120000000  0.5235590000000 1.0
C      1  0.4786240000000  0.5072110000000  0.5836790000000 1.0
C      1  0.5068350000000  0.5322180000000  0.4800170000000 1.0
C      1  0.4342770000000  0.5624110000000  0.4533570000000 1.0
C      1  0.5636750000000  0.4935620000000  0.5206840000000 1.0
C      1  0.4580930000000  0.5060680000000  0.5659050000000 1.0
C      1  0.5169780000000  0.5090170000000  0.4958540000000 1.0
C      1  0.4782340000000  0.4820600000000  0.4440920000000 1.0
C      1  0.5207740000000  0.4338470000000  0.5338330000000 1.0
C      1  0.5018200000000  0.4939510000000  0.5889100000000 1.0
C      1  0.4861340000000  0.5464180000000  0.5008170000000 1.0
END
