TITL C-1154803-8277-31 0.000725871204965086 125000 -343.06279937242 0 0 60 (C1) n - 1
REM
REM in /home/nfs/bkarasulu/CARBON/AIRSS/Generating-Clusters/AIREBO/Higher-Symm/Only-C60
REM
REM
REM
REM
REM
REM ./C.cell (28575a23ae977d3b5fae324c64b13b57)
REM
REM compiler GCC version 9.2.1 20190827 (Red Hat 9.2.1-1)
REM options -cpp -mtune=generic -march=x86-64 -g -O0 -fpre-include=/usr/include/finclude/math-vector-fortran.h
REM seed -1117399305 -1670867407 539334828 1848175584 -1174486260 -22602165 2025504481 863204510 2141139395 1591767719 862105736 2117125085 1417489501 141263708 -1346123355 1899351969 812088770 1051381952 1842028490 -1507980209 -738753308 -440736956 1536187215 1249634098 -29040616 793957145 -1551875889 1662017980 61046240 -158195771 -1939666924 1280985874 1527101287
REM
CELL 1.54180   50.00000   50.00000   50.00000   90.00000   90.00000   90.00000
LATT -1
SFAC C  
C      1  0.5695690000000  0.4773780000000  0.5470380000000 1.0
C      1  0.5510810000000  0.4848010000000  0.4440040000000 1.0
C      1  0.4336950000000  0.4875870000000  0.4521740000000 1.0
C      1  0.4559140000000  0.4812090000000  0.5644370000000 1.0
C      1  0.4362440000000  0.4816190000000  0.5419100000000 1.0
C      1  0.4577820000000  0.4893190000000  0.4325000000000 1.0
C      1  0.5691440000000  0.4922000000000  0.4680570000000 1.0
C      1  0.5482750000000  0.4926450000000  0.5591270000000 1.0
C      1  0.5346850000000  0.4303550000000  0.4903100000000 1.0
C      1  0.4876980000000  0.4333010000000  0.4696960000000 1.0
C      1  0.4622200000000  0.4443780000000  0.5197880000000 1.0
C      1  0.5081740000000  0.4353910000000  0.5373520000000 1.0
C      1  0.4671860000000  0.4337890000000  0.4939260000000 1.0
C      1  0.5148520000000  0.4361590000000  0.4679840000000 1.0
C      1  0.5317970000000  0.4343880000000  0.5172420000000 1.0
C      1  0.4817510000000  0.4452680000000  0.5406990000000 1.0
C      1  0.4598250000000  0.5538870000000  0.4880520000000 1.0
C      1  0.4812330000000  0.5400670000000  0.5367530000000 1.0
C      1  0.5399610000000  0.5402730000000  0.5114140000000 1.0
C      1  0.5126030000000  0.5439150000000  0.4611660000000 1.0
C      1  0.5398060000000  0.5468710000000  0.4800730000000 1.0
C      1  0.5105750000000  0.5526340000000  0.5298540000000 1.0
C      1  0.4555360000000  0.5391990000000  0.5165510000000 1.0
C      1  0.4832200000000  0.5563000000000  0.4634340000000 1.0
C      1  0.4796670000000  0.5284120000000  0.4469240000000 1.0
C      1  0.4476520000000  0.5074650000000  0.5079010000000 1.0
C      1  0.5175840000000  0.5263520000000  0.5444890000000 1.0
C      1  0.5548320000000  0.5180750000000  0.4819380000000 1.0
C      1  0.5078560000000  0.5118980000000  0.4506190000000 1.0
C      1  0.5536860000000  0.5092100000000  0.5133460000000 1.0
C      1  0.4905990000000  0.5109320000000  0.5515720000000 1.0
C      1  0.4451400000000  0.5262740000000  0.4811680000000 1.0
C      1  0.5259310000000  0.4753580000000  0.5641190000000 1.0
C      1  0.5681650000000  0.4701610000000  0.4853860000000 1.0
C      1  0.4788870000000  0.4715130000000  0.4371650000000 1.0
C      1  0.4373730000000  0.4802970000000  0.4991550000000 1.0
C      1  0.5000100000000  0.4841260000000  0.5622120000000 1.0
C      1  0.4360490000000  0.4698120000000  0.4737380000000 1.0
C      1  0.5028960000000  0.4818680000000  0.4459500000000 1.0
C      1  0.5643060000000  0.4777990000000  0.5139500000000 1.0
C      1  0.4801180000000  0.5898230000000  0.4606940000000 1.0
C      1  0.4340510000000  0.5550090000000  0.5378440000000 1.0
C      1  0.5272080000000  0.5785680000000  0.5389340000000 1.0
C      1  0.5553010000000  0.5698580000000  0.4603810000000 1.0
C      1  0.5333970000000  0.5631870000000  0.4443570000000 1.0
C      1  0.5487150000000  0.5641980000000  0.5283940000000 1.0
C      1  0.4579640000000  0.5571270000000  0.5520000000000 1.0
C      1  0.4621330000000  0.5851320000000  0.4811880000000 1.0
C      1  0.4791370000000  0.4654480000000  0.5612020000000 1.0
C      1  0.5561200000000  0.4503090000000  0.5325190000000 1.0
C      1  0.5273850000000  0.4639970000000  0.4532570000000 1.0
C      1  0.4499350000000  0.4455300000000  0.4696900000000 1.0
C      1  0.5305170000000  0.4496240000000  0.5536880000000 1.0
C      1  0.4398760000000  0.4624430000000  0.5211380000000 1.0
C      1  0.4711590000000  0.4458080000000  0.4467020000000 1.0
C      1  0.5505120000000  0.4515390000000  0.4753820000000 1.0
C      1  0.5391290000000  0.5125680000000  0.4524680000000 1.0
C      1  0.4586650000000  0.5071420000000  0.5404120000000 1.0
C      1  0.4531530000000  0.5147290000000  0.4543410000000 1.0
C      1  0.5420630000000  0.5143920000000  0.5422360000000 1.0
END
