TITL C-1154802-8274-516 -0.00147422393552011 125000 -327.222860766301 0 0 60 (C1) n - 1
REM
REM in /home/nfs/bkarasulu/CARBON/AIRSS/Generating-Clusters/AIREBO/Higher-Symm/Only-C60
REM
REM
REM
REM
REM
REM ./C.cell (28575a23ae977d3b5fae324c64b13b57)
REM
REM compiler GCC version 9.2.1 20190827 (Red Hat 9.2.1-1)
REM options -cpp -mtune=generic -march=x86-64 -g -O0 -fpre-include=/usr/include/finclude/math-vector-fortran.h
REM seed -1653155554 74843997 1147413569 640216974 -110554832 -677557804 -2033821026 1884260305 1522221893 1534193892 1711277044 878835619 1665711013 2086713500 -1173424297 984481779 -2017327446 -2091782884 2000548255 -623835020 1270696246 1697546391 1004419016 325828376 781003301 -1374107942 728297442 1215160839 32779911 -969886060 1364265279 -1889050101 716733364
REM
CELL 1.54180   50.00000   50.00000   50.00000   90.00000   90.00000   90.00000
LATT -1
SFAC C  
C      1  0.4632300000000  0.4295500000000  0.5320180000000 1.0
C      1  0.4283660000000  0.4478180000000  0.4755950000000 1.0
C      1  0.4434970000000  0.4818900000000  0.4409850000000 1.0
C      1  0.4674710000000  0.5325560000000  0.4475110000000 1.0
C      1  0.4922020000000  0.5669100000000  0.4985500000000 1.0
C      1  0.4651810000000  0.5397920000000  0.5511010000000 1.0
C      1  0.4601280000000  0.4841720000000  0.5615330000000 1.0
C      1  0.5978770000000  0.4680890000000  0.5052780000000 1.0
C      1  0.6162460000000  0.4808040000000  0.4809560000000 1.0
C      1  0.6163120000000  0.5142870000000  0.4750450000000 1.0
C      1  0.5933940000000  0.5336280000000  0.4894010000000 1.0
C      1  0.5811390000000  0.5362670000000  0.5198670000000 1.0
C      1  0.5930650000000  0.5140530000000  0.5397250000000 1.0
C      1  0.5848960000000  0.4833100000000  0.5303300000000 1.0
C      1  0.4673990000000  0.4605170000000  0.5182060000000 1.0
C      1  0.4888790000000  0.4635980000000  0.4670040000000 1.0
C      1  0.5095890000000  0.5114100000000  0.4496600000000 1.0
C      1  0.4822290000000  0.5128230000000  0.4787800000000 1.0
C      1  0.4832430000000  0.5366150000000  0.5113890000000 1.0
C      1  0.4922600000000  0.5140580000000  0.5329550000000 1.0
C      1  0.4929700000000  0.4829040000000  0.5193300000000 1.0
C      1  0.4362200000000  0.4736890000000  0.5170820000000 1.0
C      1  0.4256050000000  0.4751830000000  0.4848020000000 1.0
C      1  0.4344420000000  0.4939080000000  0.4645080000000 1.0
C      1  0.4500320000000  0.5200430000000  0.4705740000000 1.0
C      1  0.4547200000000  0.5296830000000  0.5022390000000 1.0
C      1  0.4517170000000  0.5223480000000  0.5345300000000 1.0
C      1  0.4448710000000  0.4956410000000  0.5412890000000 1.0
C      1  0.5240680000000  0.4916990000000  0.5209290000000 1.0
C      1  0.5413860000000  0.4841310000000  0.4996000000000 1.0
C      1  0.5139010000000  0.4621900000000  0.4564680000000 1.0
C      1  0.5275420000000  0.4863940000000  0.4515410000000 1.0
C      1  0.5123620000000  0.5240660000000  0.4811380000000 1.0
C      1  0.5171720000000  0.5379220000000  0.5095600000000 1.0
C      1  0.5315720000000  0.5185480000000  0.5272460000000 1.0
C      1  0.4913570000000  0.5583330000000  0.5489960000000 1.0
C      1  0.4903210000000  0.4967520000000  0.5620250000000 1.0
C      1  0.4892920000000  0.4428440000000  0.5466350000000 1.0
C      1  0.4709880000000  0.4372850000000  0.4936400000000 1.0
C      1  0.4658890000000  0.4581360000000  0.4463020000000 1.0
C      1  0.4846740000000  0.5123910000000  0.4370950000000 1.0
C      1  0.4846860000000  0.5730310000000  0.4727540000000 1.0
C      1  0.4724240000000  0.4877730000000  0.4300750000000 1.0
C      1  0.4735200000000  0.5596830000000  0.4514710000000 1.0
C      1  0.5062750000000  0.5650250000000  0.5268990000000 1.0
C      1  0.4939710000000  0.5285460000000  0.5649170000000 1.0
C      1  0.4856280000000  0.4645870000000  0.5621310000000 1.0
C      1  0.4928700000000  0.4298810000000  0.5160920000000 1.0
C      1  0.4558020000000  0.4410020000000  0.4709290000000 1.0
C      1  0.5979760000000  0.5355940000000  0.4558830000000 1.0
C      1  0.5925830000000  0.5630680000000  0.5065280000000 1.0
C      1  0.5577610000000  0.5218410000000  0.5386570000000 1.0
C      1  0.5699760000000  0.4964770000000  0.5577230000000 1.0
C      1  0.5653400000000  0.4727820000000  0.5053000000000 1.0
C      1  0.6200970000000  0.4481770000000  0.4898180000000 1.0
C      1  0.6374470000000  0.4934760000000  0.4584080000000 1.0
C      1  0.4814780000000  0.4833430000000  0.4886530000000 1.0
C      1  0.4235550000000  0.5090690000000  0.5102520000000 1.0
C      1  0.4542210000000  0.4965510000000  0.5024820000000 1.0
C      1  0.5358330000000  0.4999060000000  0.4770070000000 1.0
END
