TITL C-1154829-9094-136 -0.00048228842241465 125000 -342.019189401844 0 0 60 (C1) n - 1
REM
REM in /home/nfs/bkarasulu/CARBON/AIRSS/Generating-Clusters/AIREBO/Higher-Symm/Only-C60
REM
REM
REM
REM
REM
REM ./C.cell (28575a23ae977d3b5fae324c64b13b57)
REM
REM compiler GCC version 9.2.1 20190827 (Red Hat 9.2.1-1)
REM options -cpp -mtune=generic -march=x86-64 -g -O0 -fpre-include=/usr/include/finclude/math-vector-fortran.h
REM seed -627200832 1767448057 -1799083173 -1462509521 1325996452 -1211628221 -1622042798 -714643002 384984462 1600094854 1043274407 739415956 460864057 2019142225 1221803089 -1021041520 -439940565 345239264 -69944162 789394667 493970895 -267198329 546641417 927252227 88363648 1235248213 -1993551526 2039058559 -73797809 1358275853 -28452597 1420347792 412234113
REM
CELL 1.54180   50.00000   50.00000   50.00000   90.00000   90.00000   90.00000
LATT -1
SFAC C  
C      1  0.5524540000000  0.5116220000000  0.4553410000000 1.0
C      1  0.4822230000000  0.5549570000000  0.5279720000000 1.0
C      1  0.5518730000000  0.5419730000000  0.5484060000000 1.0
C      1  0.5035330000000  0.5002280000000  0.5628830000000 1.0
C      1  0.4740620000000  0.5218650000000  0.5696350000000 1.0
C      1  0.5292050000000  0.3867650000000  0.5325320000000 1.0
C      1  0.5041550000000  0.4845790000000  0.4747970000000 1.0
C      1  0.5087490000000  0.4334830000000  0.5555040000000 1.0
C      1  0.4613420000000  0.4856890000000  0.4412980000000 1.0
C      1  0.4498590000000  0.5316920000000  0.4995760000000 1.0
C      1  0.4332420000000  0.4858490000000  0.4762190000000 1.0
C      1  0.4206850000000  0.4828130000000  0.5394360000000 1.0
C      1  0.5164280000000  0.4726640000000  0.4211230000000 1.0
C      1  0.4395000000000  0.4576250000000  0.4700380000000 1.0
C      1  0.4403830000000  0.5288690000000  0.4509520000000 1.0
C      1  0.5204170000000  0.4434730000000  0.5265190000000 1.0
C      1  0.5388770000000  0.4781880000000  0.5201850000000 1.0
C      1  0.5075080000000  0.4993600000000  0.4261110000000 1.0
C      1  0.4272800000000  0.4360780000000  0.4802300000000 1.0
C      1  0.4595740000000  0.4577050000000  0.4483040000000 1.0
C      1  0.4919830000000  0.4507660000000  0.5686000000000 1.0
C      1  0.5453610000000  0.5289100000000  0.5731960000000 1.0
C      1  0.4483440000000  0.5328840000000  0.5503930000000 1.0
C      1  0.4668180000000  0.4975520000000  0.5473060000000 1.0
C      1  0.4619560000000  0.5408370000000  0.4702820000000 1.0
C      1  0.5225790000000  0.4120540000000  0.5372470000000 1.0
C      1  0.5162130000000  0.5129880000000  0.4891180000000 1.0
C      1  0.5478290000000  0.5720890000000  0.4947380000000 1.0
C      1  0.5535680000000  0.4679490000000  0.4752860000000 1.0
C      1  0.5003700000000  0.5457120000000  0.4337430000000 1.0
C      1  0.4539400000000  0.5449680000000  0.5240510000000 1.0
C      1  0.5183170000000  0.5252710000000  0.4252790000000 1.0
C      1  0.4876980000000  0.5555010000000  0.4569360000000 1.0
C      1  0.4875880000000  0.4975660000000  0.4480970000000 1.0
C      1  0.5456380000000  0.5264420000000  0.4335080000000 1.0
C      1  0.5213410000000  0.4606280000000  0.4688070000000 1.0
C      1  0.5491310000000  0.4957700000000  0.5430550000000 1.0
C      1  0.5101720000000  0.4531060000000  0.4415220000000 1.0
C      1  0.5923920000000  0.5253860000000  0.5215970000000 1.0
C      1  0.4837730000000  0.4760730000000  0.5664060000000 1.0
C      1  0.5091220000000  0.5032380000000  0.5294750000000 1.0
C      1  0.4434410000000  0.4915100000000  0.5299510000000 1.0
C      1  0.4854550000000  0.5248840000000  0.5378870000000 1.0
C      1  0.5171270000000  0.5327070000000  0.5144840000000 1.0
C      1  0.5456380000000  0.5064130000000  0.5049030000000 1.0
C      1  0.5053740000000  0.5689980000000  0.5259340000000 1.0
C      1  0.4863040000000  0.5194920000000  0.4739170000000 1.0
C      1  0.5659440000000  0.5211050000000  0.5280720000000 1.0
C      1  0.4833170000000  0.4679680000000  0.5043090000000 1.0
C      1  0.4391750000000  0.5005970000000  0.4517550000000 1.0
C      1  0.5306910000000  0.5537670000000  0.5360370000000 1.0
C      1  0.5580180000000  0.4961650000000  0.4776060000000 1.0
C      1  0.5218430000000  0.5626620000000  0.4982420000000 1.0
C      1  0.5340080000000  0.5035730000000  0.5656960000000 1.0
C      1  0.5028860000000  0.5684340000000  0.4748650000000 1.0
C      1  0.5348000000000  0.4528090000000  0.4987590000000 1.0
C      1  0.4466650000000  0.5003300000000  0.5012440000000 1.0
C      1  0.5063810000000  0.4719260000000  0.5197110000000 1.0
C      1  0.4832720000000  0.4432740000000  0.4418580000000 1.0
C      1  0.4741800000000  0.4922180000000  0.4890690000000 1.0
END
