TITL C-1154827-9204-213 0.000624983398367637 125000 -307.948413818997 0 0 60 (C1) n - 1
REM
REM in /home/nfs/bkarasulu/CARBON/AIRSS/Generating-Clusters/AIREBO/Higher-Symm/Only-C60
REM
REM
REM
REM
REM
REM ./C.cell (28575a23ae977d3b5fae324c64b13b57)
REM
REM compiler GCC version 9.2.1 20190827 (Red Hat 9.2.1-1)
REM options -cpp -mtune=generic -march=x86-64 -g -O0 -fpre-include=/usr/include/finclude/math-vector-fortran.h
REM seed -592284958 -771865443 1724410287 -1407172838 899653294 298102370 760324775 -1796151211 -993810903 1784001169 -666446156 1451443144 -882851998 -1875697725 -1366896572 1408255710 -1371327530 -846760808 838026360 -1987573500 1152173609 744097210 1000393347 -38864349 -962072835 -1404322268 698433874 2075863750 1021053857 668771491 -1139241303 -819453336 1075490515
REM
CELL 1.54180   50.00000   50.00000   50.00000   90.00000   90.00000   90.00000
LATT -1
SFAC C  
C      1  0.4726440000000  0.5265460000000  0.4627660000000 1.0
C      1  0.5447970000000  0.5249300000000  0.4946050000000 1.0
C      1  0.4808760000000  0.5260140000000  0.5415240000000 1.0
C      1  0.5032920000000  0.5227540000000  0.4565600000000 1.0
C      1  0.5348780000000  0.5204840000000  0.5240140000000 1.0
C      1  0.4606760000000  0.5215950000000  0.5179470000000 1.0
C      1  0.4325780000000  0.4578510000000  0.4980850000000 1.0
C      1  0.5371850000000  0.4620210000000  0.4372610000000 1.0
C      1  0.5324050000000  0.4616080000000  0.5641910000000 1.0
C      1  0.4445810000000  0.4583280000000  0.5252570000000 1.0
C      1  0.5072700000000  0.4617750000000  0.4347670000000 1.0
C      1  0.5480590000000  0.4569670000000  0.5388620000000 1.0
C      1  0.4841130000000  0.5535800000000  0.5582470000000 1.0
C      1  0.4564740000000  0.5540080000000  0.4579300000000 1.0
C      1  0.5580700000000  0.5524910000000  0.4837320000000 1.0
C      1  0.5217910000000  0.5375110000000  0.4755140000000 1.0
C      1  0.5098140000000  0.5363910000000  0.5310610000000 1.0
C      1  0.4676660000000  0.5374120000000  0.4928870000000 1.0
C      1  0.5049550000000  0.4429520000000  0.5265450000000 1.0
C      1  0.4854480000000  0.4471160000000  0.4989940000000 1.0
C      1  0.5125190000000  0.4447070000000  0.4785530000000 1.0
C      1  0.4796040000000  0.4795300000000  0.4924210000000 1.0
C      1  0.5196720000000  0.4765130000000  0.4823590000000 1.0
C      1  0.5033210000000  0.4755710000000  0.5278470000000 1.0
C      1  0.5062610000000  0.5660390000000  0.5181770000000 1.0
C      1  0.4816320000000  0.5666420000000  0.4964750000000 1.0
C      1  0.5127410000000  0.5667020000000  0.4862240000000 1.0
C      1  0.4575800000000  0.4487400000000  0.4795390000000 1.0
C      1  0.5439360000000  0.4496170000000  0.4663240000000 1.0
C      1  0.5020130000000  0.4514470000000  0.5593860000000 1.0
C      1  0.4480850000000  0.4980630000000  0.5476260000000 1.0
C      1  0.4836860000000  0.4981520000000  0.4319080000000 1.0
C      1  0.5672350000000  0.4937000000000  0.5193300000000 1.0
C      1  0.4552490000000  0.5012280000000  0.4492130000000 1.0
C      1  0.5662130000000  0.5010060000000  0.4869360000000 1.0
C      1  0.4763590000000  0.5029570000000  0.5652070000000 1.0
C      1  0.4820700000000  0.4879190000000  0.4644680000000 1.0
C      1  0.5395470000000  0.4858740000000  0.5008510000000 1.0
C      1  0.4779630000000  0.4866910000000  0.5356910000000 1.0
C      1  0.5339070000000  0.4880760000000  0.5343170000000 1.0
C      1  0.4535210000000  0.4888450000000  0.5121450000000 1.0
C      1  0.5136830000000  0.4906520000000  0.4522260000000 1.0
C      1  0.4438820000000  0.4766300000000  0.4653750000000 1.0
C      1  0.5581460000000  0.4791900000000  0.4661040000000 1.0
C      1  0.4984640000000  0.4814150000000  0.5695860000000 1.0
C      1  0.5270640000000  0.4932380000000  0.5672230000000 1.0
C      1  0.4275370000000  0.4881280000000  0.4902220000000 1.0
C      1  0.5455350000000  0.4926390000000  0.4404870000000 1.0
C      1  0.5625830000000  0.5153900000000  0.5419800000000 1.0
C      1  0.4305100000000  0.5189780000000  0.5318300000000 1.0
C      1  0.5053280000000  0.5196510000000  0.4233800000000 1.0
C      1  0.5766690000000  0.5272310000000  0.5600540000000 1.0
C      1  0.4077310000000  0.5309230000000  0.5329640000000 1.0
C      1  0.5140100000000  0.5317690000000  0.4024200000000 1.0
C      1  0.4983340000000  0.5716840000000  0.5477930000000 1.0
C      1  0.4594360000000  0.5722940000000  0.4751420000000 1.0
C      1  0.5425150000000  0.5716020000000  0.4780640000000 1.0
C      1  0.4966750000000  0.4413670000000  0.4504930000000 1.0
C      1  0.5360580000000  0.4367550000000  0.5235420000000 1.0
C      1  0.4651540000000  0.4401130000000  0.5253700000000 1.0
END
