TITL C-1154829-9094-530 0.000966675297449497 125000 -301.081617296962 0 0 60 (C1) n - 1
REM
REM in /home/nfs/bkarasulu/CARBON/AIRSS/Generating-Clusters/AIREBO/Higher-Symm/Only-C60
REM
REM
REM
REM
REM
REM ./C.cell (28575a23ae977d3b5fae324c64b13b57)
REM
REM compiler GCC version 9.2.1 20190827 (Red Hat 9.2.1-1)
REM options -cpp -mtune=generic -march=x86-64 -g -O0 -fpre-include=/usr/include/finclude/math-vector-fortran.h
REM seed -2015147441 1801941889 -1687237564 175617883 917450589 -1626891417 446171141 -355941606 -1053932934 -921852767 1665039800 -1881064324 583164653 302065713 707662625 -1695286724 -290495412 770024524 168213807 2125875945 -1552791004 -748737789 46940660 -310884714 -1629427269 982814382 -329538832 -254599318 -1134709510 778607718 -1894881383 1166683578 -87220177
REM
CELL 1.54180   50.00000   50.00000   50.00000   90.00000   90.00000   90.00000
LATT -1
SFAC C  
C      1  0.5265860000000  0.4959450000000  0.4289320000000 1.0
C      1  0.5227250000000  0.5700160000000  0.5352320000000 1.0
C      1  0.5273970000000  0.4391650000000  0.5377020000000 1.0
C      1  0.5191440000000  0.5550240000000  0.4984980000000 1.0
C      1  0.5238990000000  0.4764670000000  0.5530190000000 1.0
C      1  0.5182220000000  0.4738680000000  0.4611290000000 1.0
C      1  0.5060380000000  0.5087260000000  0.4810480000000 1.0
C      1  0.5131630000000  0.5178770000000  0.5118200000000 1.0
C      1  0.5106200000000  0.4720950000000  0.4954490000000 1.0
C      1  0.5566390000000  0.4469910000000  0.4821950000000 1.0
C      1  0.5513810000000  0.5346740000000  0.4729370000000 1.0
C      1  0.5682820000000  0.4993680000000  0.5401080000000 1.0
C      1  0.4919950000000  0.4911980000000  0.4481430000000 1.0
C      1  0.4920080000000  0.5509140000000  0.5185810000000 1.0
C      1  0.4990890000000  0.4669230000000  0.5339360000000 1.0
C      1  0.4839440000000  0.4828970000000  0.4794840000000 1.0
C      1  0.4859910000000  0.5292570000000  0.4947280000000 1.0
C      1  0.4957370000000  0.4926990000000  0.5163310000000 1.0
C      1  0.4452110000000  0.4943180000000  0.5176870000000 1.0
C      1  0.4454420000000  0.4926410000000  0.4837210000000 1.0
C      1  0.4403890000000  0.5225510000000  0.4991240000000 1.0
C      1  0.5518810000000  0.5184480000000  0.5199940000000 1.0
C      1  0.5475510000000  0.4861450000000  0.5086820000000 1.0
C      1  0.5497360000000  0.4931260000000  0.4761280000000 1.0
C      1  0.4597330000000  0.4629120000000  0.4864270000000 1.0
C      1  0.4612420000000  0.5353400000000  0.4778470000000 1.0
C      1  0.4713220000000  0.4985700000000  0.5352290000000 1.0
C      1  0.4681110000000  0.5697870000000  0.5057530000000 1.0
C      1  0.4710920000000  0.4609890000000  0.5515330000000 1.0
C      1  0.4722310000000  0.4671210000000  0.4345130000000 1.0
C      1  0.4997960000000  0.4379620000000  0.5517390000000 1.0
C      1  0.5032950000000  0.4783870000000  0.4188770000000 1.0
C      1  0.4967230000000  0.5835860000000  0.5243880000000 1.0
C      1  0.4912670000000  0.4419260000000  0.5130640000000 1.0
C      1  0.4891580000000  0.5199390000000  0.4443470000000 1.0
C      1  0.4882930000000  0.5389740000000  0.5445340000000 1.0
C      1  0.5508010000000  0.4663870000000  0.4628690000000 1.0
C      1  0.5430150000000  0.5408590000000  0.4984340000000 1.0
C      1  0.5483300000000  0.4775000000000  0.5415550000000 1.0
C      1  0.5153860000000  0.4326790000000  0.4918120000000 1.0
C      1  0.5140720000000  0.5425560000000  0.4492360000000 1.0
C      1  0.5131210000000  0.5251120000000  0.5631810000000 1.0
C      1  0.4465770000000  0.4673000000000  0.5354500000000 1.0
C      1  0.4488470000000  0.4825720000000  0.4535350000000 1.0
C      1  0.4426550000000  0.5535090000000  0.5081020000000 1.0
C      1  0.4774850000000  0.5664040000000  0.4747740000000 1.0
C      1  0.4796840000000  0.4888240000000  0.5667160000000 1.0
C      1  0.4764190000000  0.4485050000000  0.4605030000000 1.0
C      1  0.4927640000000  0.5466080000000  0.4230510000000 1.0
C      1  0.4875040000000  0.5418640000000  0.5785560000000 1.0
C      1  0.4925870000000  0.4095420000000  0.5018600000000 1.0
C      1  0.4681860000000  0.5188640000000  0.5626200000000 1.0
C      1  0.4698850000000  0.4312140000000  0.4887790000000 1.0
C      1  0.4697950000000  0.5476230000000  0.4482020000000 1.0
C      1  0.5293320000000  0.5134780000000  0.4580790000000 1.0
C      1  0.5268480000000  0.5362070000000  0.5346620000000 1.0
C      1  0.5360330000000  0.4541160000000  0.5082880000000 1.0
C      1  0.5071280000000  0.4447290000000  0.4651620000000 1.0
C      1  0.5081950000000  0.5613480000000  0.4726970000000 1.0
C      1  0.5100210000000  0.4953750000000  0.5690150000000 1.0
END
