TITL C-1154828-9214-176 0.000458972695987225 125000 -331.961250443 0 0 60 (C1) n - 1
REM
REM in /home/nfs/bkarasulu/CARBON/AIRSS/Generating-Clusters/AIREBO/Higher-Symm/Only-C60
REM
REM
REM
REM
REM
REM ./C.cell (28575a23ae977d3b5fae324c64b13b57)
REM
REM compiler GCC version 9.2.1 20190827 (Red Hat 9.2.1-1)
REM options -cpp -mtune=generic -march=x86-64 -g -O0 -fpre-include=/usr/include/finclude/math-vector-fortran.h
REM seed 706524483 160537344 -1721072404 -2067545806 -1662070019 1365825866 1852961133 1154022733 -2137783514 1314489097 1290105829 1854232504 -934216171 2059398843 -1256557841 -1704529495 1666968053 -392518171 1371736442 -1620425483 -807148321 599318389 -970088870 -601690969 -1406531100 608830931 -1796834209 1544915397 507916395 1753362130 1532968574 641995222 768243293
REM
CELL 1.54180   50.00000   50.00000   50.00000   90.00000   90.00000   90.00000
LATT -1
SFAC C  
C      1  0.5311940000000  0.5217730000000  0.4655910000000 1.0
C      1  0.4701110000000  0.5034270000000  0.5359660000000 1.0
C      1  0.5388140000000  0.4906040000000  0.4543380000000 1.0
C      1  0.4718020000000  0.4707360000000  0.5451950000000 1.0
C      1  0.5579040000000  0.4780450000000  0.4790100000000 1.0
C      1  0.4349500000000  0.4585160000000  0.4985630000000 1.0
C      1  0.5699030000000  0.5284220000000  0.4985250000000 1.0
C      1  0.4376660000000  0.5317420000000  0.5092470000000 1.0
C      1  0.5285160000000  0.5771020000000  0.5151970000000 1.0
C      1  0.4772540000000  0.5825590000000  0.4820000000000 1.0
C      1  0.5293090000000  0.4236460000000  0.5244190000000 1.0
C      1  0.4779430000000  0.4218780000000  0.4878190000000 1.0
C      1  0.4793270000000  0.4484100000000  0.4378040000000 1.0
C      1  0.5230840000000  0.4486020000000  0.5646930000000 1.0
C      1  0.4745440000000  0.5526570000000  0.4419450000000 1.0
C      1  0.5225080000000  0.5530200000000  0.5566570000000 1.0
C      1  0.5115380000000  0.4340390000000  0.5441350000000 1.0
C      1  0.4842310000000  0.4362660000000  0.4647470000000 1.0
C      1  0.5127600000000  0.5681280000000  0.5355250000000 1.0
C      1  0.4878420000000  0.5647280000000  0.4633220000000 1.0
C      1  0.4445800000000  0.4417320000000  0.5189750000000 1.0
C      1  0.5462650000000  0.4481700000000  0.4800790000000 1.0
C      1  0.4478750000000  0.5570250000000  0.5214600000000 1.0
C      1  0.5573220000000  0.5477660000000  0.4811000000000 1.0
C      1  0.4504530000000  0.5147830000000  0.4710640000000 1.0
C      1  0.5467400000000  0.5137230000000  0.5314090000000 1.0
C      1  0.4504100000000  0.4864490000000  0.4574100000000 1.0
C      1  0.5510100000000  0.4843270000000  0.5365440000000 1.0
C      1  0.4650490000000  0.5357680000000  0.5379830000000 1.0
C      1  0.5564330000000  0.5408060000000  0.4530490000000 1.0
C      1  0.4450970000000  0.4542620000000  0.5449090000000 1.0
C      1  0.5267340000000  0.4616150000000  0.4612410000000 1.0
C      1  0.4625230000000  0.5095850000000  0.5029980000000 1.0
C      1  0.5375760000000  0.5178460000000  0.4988080000000 1.0
C      1  0.4547740000000  0.4795740000000  0.4890120000000 1.0
C      1  0.5389650000000  0.4845060000000  0.5053730000000 1.0
C      1  0.5100590000000  0.4673030000000  0.5074990000000 1.0
C      1  0.4886160000000  0.4828610000000  0.4889780000000 1.0
C      1  0.5118670000000  0.5358090000000  0.5119820000000 1.0
C      1  0.4937460000000  0.5164280000000  0.4907200000000 1.0
C      1  0.4693450000000  0.5220870000000  0.4507420000000 1.0
C      1  0.5274860000000  0.5219520000000  0.5492460000000 1.0
C      1  0.4712800000000  0.4795110000000  0.4414600000000 1.0
C      1  0.5321080000000  0.4786820000000  0.5562750000000 1.0
C      1  0.4819940000000  0.5139040000000  0.5662120000000 1.0
C      1  0.5156540000000  0.5167220000000  0.4350470000000 1.0
C      1  0.4850160000000  0.4849070000000  0.5695180000000 1.0
C      1  0.5196150000000  0.4879220000000  0.4265240000000 1.0
C      1  0.4708720000000  0.4326180000000  0.5127850000000 1.0
C      1  0.5324180000000  0.4423860000000  0.5036550000000 1.0
C      1  0.4683290000000  0.5734730000000  0.5064360000000 1.0
C      1  0.5315360000000  0.5567210000000  0.4911870000000 1.0
C      1  0.5060520000000  0.5431950000000  0.4737110000000 1.0
C      1  0.4875590000000  0.5544360000000  0.5242790000000 1.0
C      1  0.5005050000000  0.4609970000000  0.4691970000000 1.0
C      1  0.4910910000000  0.4509570000000  0.5282630000000 1.0
C      1  0.4967590000000  0.4720310000000  0.4233800000000 1.0
C      1  0.5093740000000  0.4734070000000  0.5785670000000 1.0
C      1  0.4913650000000  0.5292450000000  0.4286770000000 1.0
C      1  0.5043490000000  0.5302090000000  0.5695500000000 1.0
END
