TITL C-1154827-9204-217 0.00163100950864576 125000 -319.239253948081 0 0 60 (C1) n - 1
REM
REM in /home/nfs/bkarasulu/CARBON/AIRSS/Generating-Clusters/AIREBO/Higher-Symm/Only-C60
REM
REM
REM
REM
REM
REM ./C.cell (28575a23ae977d3b5fae324c64b13b57)
REM
REM compiler GCC version 9.2.1 20190827 (Red Hat 9.2.1-1)
REM options -cpp -mtune=generic -march=x86-64 -g -O0 -fpre-include=/usr/include/finclude/math-vector-fortran.h
REM seed 2092803631 -761558345 7762149 1946797268 -685506387 751932012 -1155300437 -1945820814 -1228238169 809027390 -1515516044 -7256356 1982197954 -1338360515 1226629108 1965572176 -720671524 1832559182 -998889371 -1164109733 1516419383 -584851676 -1848049288 -1937174327 1809413620 -405047194 -2066688836 1748898010 -412896492 -1817558618 -1961446790 1856817148 -1154478297
REM
CELL 1.54180   50.00000   50.00000   50.00000   90.00000   90.00000   90.00000
LATT -1
SFAC C  
C      1  0.4423920000000  0.4877890000000  0.4944870000000 1.0
C      1  0.4324220000000  0.5019630000000  0.4669510000000 1.0
C      1  0.4445120000000  0.5129050000000  0.5142540000000 1.0
C      1  0.5635740000000  0.5414160000000  0.5389040000000 1.0
C      1  0.5390980000000  0.4512080000000  0.5128870000000 1.0
C      1  0.5400890000000  0.5170110000000  0.4492590000000 1.0
C      1  0.5189470000000  0.4851020000000  0.5642170000000 1.0
C      1  0.5118080000000  0.4448250000000  0.4579830000000 1.0
C      1  0.5083040000000  0.5586910000000  0.4835550000000 1.0
C      1  0.4965920000000  0.4667770000000  0.4453840000000 1.0
C      1  0.4852740000000  0.5699810000000  0.5051870000000 1.0
C      1  0.5012660000000  0.4676810000000  0.5475210000000 1.0
C      1  0.5608230000000  0.5607830000000  0.5144000000000 1.0
C      1  0.5520460000000  0.4609850000000  0.5401000000000 1.0
C      1  0.5472720000000  0.4905870000000  0.4465180000000 1.0
C      1  0.4822320000000  0.4933920000000  0.4825470000000 1.0
C      1  0.4754390000000  0.5203580000000  0.5022430000000 1.0
C      1  0.4655810000000  0.4793350000000  0.5180610000000 1.0
C      1  0.5070260000000  0.5077470000000  0.5734240000000 1.0
C      1  0.5062310000000  0.4276490000000  0.4780770000000 1.0
C      1  0.5069210000000  0.5538050000000  0.4512560000000 1.0
C      1  0.4461630000000  0.4953170000000  0.5409870000000 1.0
C      1  0.4371980000000  0.4631670000000  0.4749460000000 1.0
C      1  0.4336950000000  0.5304790000000  0.4690870000000 1.0
C      1  0.5005570000000  0.5126490000000  0.5222610000000 1.0
C      1  0.4993330000000  0.4831590000000  0.5198650000000 1.0
C      1  0.5077040000000  0.4952920000000  0.4601980000000 1.0
C      1  0.4864920000000  0.4604090000000  0.4897730000000 1.0
C      1  0.4804650000000  0.5411430000000  0.4782640000000 1.0
C      1  0.4853230000000  0.5247060000000  0.5571780000000 1.0
C      1  0.5357500000000  0.5314420000000  0.5220290000000 1.0
C      1  0.5213150000000  0.4770050000000  0.5000770000000 1.0
C      1  0.5505700000000  0.5301490000000  0.4715240000000 1.0
C      1  0.5109140000000  0.5241180000000  0.4424330000000 1.0
C      1  0.5115510000000  0.5372120000000  0.5395170000000 1.0
C      1  0.5074900000000  0.4404870000000  0.5077020000000 1.0
C      1  0.4720900000000  0.4632270000000  0.4328940000000 1.0
C      1  0.4569840000000  0.5637090000000  0.5013550000000 1.0
C      1  0.4720650000000  0.4540410000000  0.5558230000000 1.0
C      1  0.5702820000000  0.5121630000000  0.4852470000000 1.0
C      1  0.5607270000000  0.5096120000000  0.5154140000000 1.0
C      1  0.5539370000000  0.4846280000000  0.4967040000000 1.0
C      1  0.4478880000000  0.4658100000000  0.5532090000000 1.0
C      1  0.4443880000000  0.4772590000000  0.4467980000000 1.0
C      1  0.4406310000000  0.5402630000000  0.4977460000000 1.0
C      1  0.5301480000000  0.4706530000000  0.4676140000000 1.0
C      1  0.5367390000000  0.5490380000000  0.4930740000000 1.0
C      1  0.5456890000000  0.4848090000000  0.5553210000000 1.0
C      1  0.4733770000000  0.5406210000000  0.5294930000000 1.0
C      1  0.4688880000000  0.4468180000000  0.5155200000000 1.0
C      1  0.4688360000000  0.4977860000000  0.4522220000000 1.0
C      1  0.4575270000000  0.4435410000000  0.4840730000000 1.0
C      1  0.4586640000000  0.5466630000000  0.4627160000000 1.0
C      1  0.4557710000000  0.5156320000000  0.5622380000000 1.0
C      1  0.4924470000000  0.4363890000000  0.5362290000000 1.0
C      1  0.4833090000000  0.5110250000000  0.4328320000000 1.0
C      1  0.4948500000000  0.5651940000000  0.5329340000000 1.0
C      1  0.5575500000000  0.5088730000000  0.5467000000000 1.0
C      1  0.5556350000000  0.4544300000000  0.4832180000000 1.0
C      1  0.5992080000000  0.5110900000000  0.4775690000000 1.0
END
