TITL C-1154830-9999-73 0.00131296786551854 125000 -327.594273283735 0 0 60 (C2) n - 1
REM
REM in /home/nfs/bkarasulu/CARBON/AIRSS/Generating-Clusters/AIREBO/Higher-Symm/Only-C60
REM
REM
REM
REM
REM
REM ./C.cell (28575a23ae977d3b5fae324c64b13b57)
REM
REM compiler GCC version 9.2.1 20190827 (Red Hat 9.2.1-1)
REM options -cpp -mtune=generic -march=x86-64 -g -O0 -fpre-include=/usr/include/finclude/math-vector-fortran.h
REM seed -1640852015 1331758700 1567019033 -986765478 2027897049 1997081424 867478762 1895753625 -783740340 -1849039491 -704272386 261649052 1669911709 97027385 -1035682922 -183366489 -1097023539 8100527 1886246477 319035096 503594330 245394377 781115756 1170862708 1535732034 -20603549 -1867073937 -1163564139 384075129 1498035671 -1698254789 1957502911 1823815006
REM
CELL 1.54180   50.00000   50.00000   50.00000   90.00000   90.00000   90.00000
LATT -1
SFAC C  
C      1  0.5638340000000  0.5566520000000  0.5144110000000 1.0
C      1  0.5636250000000  0.4441350000000  0.4796100000000 1.0
C      1  0.4336800000000  0.5563920000000  0.5071150000000 1.0
C      1  0.4346160000000  0.4455050000000  0.4870430000000 1.0
C      1  0.5663200000000  0.4436070000000  0.5071140000000 1.0
C      1  0.5653840000000  0.5544950000000  0.4870430000000 1.0
C      1  0.4361660000000  0.4433480000000  0.5144110000000 1.0
C      1  0.4363750000000  0.5558660000000  0.4796100000000 1.0
C      1  0.4444570000000  0.5143960000000  0.5302240000000 1.0
C      1  0.4396830000000  0.4832670000000  0.4577190000000 1.0
C      1  0.5625950000000  0.5158340000000  0.5391460000000 1.0
C      1  0.5538770000000  0.4858690000000  0.4530170000000 1.0
C      1  0.4374060000000  0.4841650000000  0.5391460000000 1.0
C      1  0.4461230000000  0.5141310000000  0.4530170000000 1.0
C      1  0.5555430000000  0.4856040000000  0.5302230000000 1.0
C      1  0.5603170000000  0.5167340000000  0.4577190000000 1.0
C      1  0.5233440000000  0.5758850000000  0.4849250000000 1.0
C      1  0.5086680000000  0.4230180000000  0.5230470000000 1.0
C      1  0.4928590000000  0.5734390000000  0.4906220000000 1.0
C      1  0.4771340000000  0.4241900000000  0.5164550000000 1.0
C      1  0.5071410000000  0.4265610000000  0.4906210000000 1.0
C      1  0.5228660000000  0.5758100000000  0.5164560000000 1.0
C      1  0.4766560000000  0.4241150000000  0.4849250000000 1.0
C      1  0.4913320000000  0.5769820000000  0.5230480000000 1.0
C      1  0.4722190000000  0.5029890000000  0.5362190000000 1.0
C      1  0.4776470000000  0.4831340000000  0.4896080000000 1.0
C      1  0.5217520000000  0.5169020000000  0.5149390000000 1.0
C      1  0.5277040000000  0.4968930000000  0.4695760000000 1.0
C      1  0.4782480000000  0.4830980000000  0.5149390000000 1.0
C      1  0.4722950000000  0.5031070000000  0.4695760000000 1.0
C      1  0.5277810000000  0.4970110000000  0.5362190000000 1.0
C      1  0.5223530000000  0.5168660000000  0.4896080000000 1.0
C      1  0.5178450000000  0.4777190000000  0.4432840000000 1.0
C      1  0.5077430000000  0.5313260000000  0.5601550000000 1.0
C      1  0.4912530000000  0.4693470000000  0.4435530000000 1.0
C      1  0.4824830000000  0.5204020000000  0.5620140000000 1.0
C      1  0.5087470000000  0.5306540000000  0.4435530000000 1.0
C      1  0.5175170000000  0.4795970000000  0.5620140000000 1.0
C      1  0.4821550000000  0.5222820000000  0.4432840000000 1.0
C      1  0.4922570000000  0.4686730000000  0.5601550000000 1.0
C      1  0.5498750000000  0.5399860000000  0.4685290000000 1.0
C      1  0.5490460000000  0.4598460000000  0.5221750000000 1.0
C      1  0.4561350000000  0.5396260000000  0.4687730000000 1.0
C      1  0.4512380000000  0.4593210000000  0.5322930000000 1.0
C      1  0.5438650000000  0.4603740000000  0.4687720000000 1.0
C      1  0.5487620000000  0.5406790000000  0.5322930000000 1.0
C      1  0.4501240000000  0.4600140000000  0.4685290000000 1.0
C      1  0.4509540000000  0.5401540000000  0.5221750000000 1.0
C      1  0.4829820000000  0.5451050000000  0.5167310000000 1.0
C      1  0.4835460000000  0.4548950000000  0.4722220000000 1.0
C      1  0.5151680000000  0.5456960000000  0.5302490000000 1.0
C      1  0.5162120000000  0.4564850000000  0.4824560000000 1.0
C      1  0.4848320000000  0.4543040000000  0.5302480000000 1.0
C      1  0.4837880000000  0.5435150000000  0.4824570000000 1.0
C      1  0.5170190000000  0.4548950000000  0.5167310000000 1.0
C      1  0.5164540000000  0.5451050000000  0.4722230000000 1.0
C      1  0.4732080000000  0.4895190000000  0.5663910000000 1.0
C      1  0.4729860000000  0.4916870000000  0.4375020000000 1.0
C      1  0.5267930000000  0.5104810000000  0.5663910000000 1.0
C      1  0.5270130000000  0.5083140000000  0.4375020000000 1.0
END
