TITL C-1154821-8623-490 0.00369769242732647 125000 -334.387490323752 0 0 60 (C1) n - 1
REM
REM in /home/nfs/bkarasulu/CARBON/AIRSS/Generating-Clusters/AIREBO/Higher-Symm/Only-C60
REM
REM
REM
REM
REM
REM ./C.cell (28575a23ae977d3b5fae324c64b13b57)
REM
REM compiler GCC version 9.2.1 20190827 (Red Hat 9.2.1-1)
REM options -cpp -mtune=generic -march=x86-64 -g -O0 -fpre-include=/usr/include/finclude/math-vector-fortran.h
REM seed -1159746721 -1214332708 1163457994 -1285115698 879831983 1108289019 1218558735 -1688702596 902532879 115202872 195896585 2137541819 1071734653 1386349552 -1649541743 525322332 1660083835 1027816006 -1194681784 -1651285490 924593283 1268459711 1108039645 -387585881 -1760694482 1271844834 -1367964327 -789963676 -162111106 -1130994436 -942157687 1702869479 -760818971
REM
CELL 1.54180   50.00000   50.00000   50.00000   90.00000   90.00000   90.00000
LATT -1
SFAC C  
C      1  0.5234330000000  0.5360330000000  0.5578770000000 1.0
C      1  0.5595410000000  0.5134430000000  0.5358360000000 1.0
C      1  0.5420240000000  0.5539150000000  0.5182770000000 1.0
C      1  0.4824850000000  0.5406200000000  0.4436880000000 1.0
C      1  0.5221430000000  0.4605860000000  0.4387410000000 1.0
C      1  0.4826880000000  0.4646020000000  0.5614570000000 1.0
C      1  0.4382310000000  0.5260820000000  0.4513050000000 1.0
C      1  0.5613920000000  0.4797480000000  0.4635590000000 1.0
C      1  0.4401770000000  0.4828120000000  0.5429800000000 1.0
C      1  0.4525840000000  0.5650880000000  0.4736570000000 1.0
C      1  0.5460080000000  0.4368360000000  0.4720330000000 1.0
C      1  0.4615000000000  0.4466080000000  0.5191970000000 1.0
C      1  0.5657180000000  0.5378210000000  0.5216710000000 1.0
C      1  0.5470820000000  0.5196540000000  0.5612580000000 1.0
C      1  0.5299800000000  0.5602510000000  0.5436620000000 1.0
C      1  0.4369720000000  0.5408190000000  0.4756240000000 1.0
C      1  0.4377840000000  0.4589630000000  0.5280730000000 1.0
C      1  0.5592750000000  0.4597190000000  0.4822770000000 1.0
C      1  0.4654520000000  0.5186490000000  0.4466310000000 1.0
C      1  0.4648070000000  0.4853630000000  0.5612670000000 1.0
C      1  0.5386380000000  0.4829630000000  0.4441280000000 1.0
C      1  0.4696560000000  0.5652530000000  0.4504520000000 1.0
C      1  0.4805900000000  0.4430520000000  0.5389700000000 1.0
C      1  0.5205580000000  0.4437440000000  0.4616920000000 1.0
C      1  0.5214920000000  0.4494040000000  0.5075400000000 1.0
C      1  0.5124380000000  0.5374500000000  0.4487890000000 1.0
C      1  0.4502730000000  0.5100030000000  0.5339270000000 1.0
C      1  0.4716610000000  0.4470190000000  0.4886790000000 1.0
C      1  0.5216590000000  0.5397200000000  0.4997040000000 1.0
C      1  0.4706510000000  0.5438490000000  0.5102400000000 1.0
C      1  0.5010950000000  0.5204470000000  0.5427440000000 1.0
C      1  0.5145710000000  0.4719950000000  0.5597230000000 1.0
C      1  0.4986230000000  0.4843070000000  0.4605950000000 1.0
C      1  0.5530850000000  0.5101590000000  0.4693100000000 1.0
C      1  0.4566730000000  0.4955950000000  0.4864110000000 1.0
C      1  0.5409250000000  0.4951040000000  0.5186380000000 1.0
C      1  0.5085800000000  0.4522350000000  0.5342780000000 1.0
C      1  0.4451420000000  0.5224880000000  0.5031270000000 1.0
C      1  0.5217980000000  0.5088160000000  0.4559770000000 1.0
C      1  0.5004560000000  0.4588190000000  0.4832420000000 1.0
C      1  0.4962400000000  0.5351560000000  0.5163540000000 1.0
C      1  0.5175320000000  0.5545800000000  0.4738870000000 1.0
C      1  0.5344120000000  0.5123660000000  0.4941090000000 1.0
C      1  0.5488040000000  0.4663100000000  0.5105410000000 1.0
C      1  0.4486130000000  0.4695050000000  0.4891760000000 1.0
C      1  0.4740690000000  0.5169170000000  0.5564790000000 1.0
C      1  0.4735780000000  0.4999120000000  0.4653120000000 1.0
C      1  0.5160970000000  0.4939610000000  0.5374540000000 1.0
C      1  0.4648020000000  0.5692200000000  0.4989430000000 1.0
C      1  0.5281270000000  0.4194150000000  0.5030800000000 1.0
C      1  0.5308930000000  0.4713050000000  0.5816490000000 1.0
C      1  0.5728170000000  0.5288850000000  0.4642130000000 1.0
C      1  0.4946940000000  0.4695220000000  0.4302180000000 1.0
C      1  0.5275810000000  0.5469360000000  0.4265620000000 1.0
C      1  0.4679390000000  0.5354520000000  0.5764070000000 1.0
C      1  0.4142610000000  0.5205890000000  0.5092270000000 1.0
C      1  0.5672260000000  0.4540900000000  0.5319430000000 1.0
C      1  0.4225740000000  0.4609980000000  0.4908610000000 1.0
C      1  0.5157030000000  0.5806860000000  0.4729980000000 1.0
C      1  0.4661980000000  0.4241630000000  0.4733500000000 1.0
END
