TITL C-1154810-7815-689 -0.000953617644866411 125000 -349.931198645555 0 0 60 (C1) n - 1
REM
REM in /home/nfs/bkarasulu/CARBON/AIRSS/Generating-Clusters/AIREBO/Higher-Symm/Only-C60
REM
REM
REM
REM
REM
REM ./C.cell (28575a23ae977d3b5fae324c64b13b57)
REM
REM compiler GCC version 9.2.1 20190827 (Red Hat 9.2.1-1)
REM options -cpp -mtune=generic -march=x86-64 -g -O0 -fpre-include=/usr/include/finclude/math-vector-fortran.h
REM seed 2011659252 -234120386 75401195 450726199 -1168823026 551681713 1700708825 998417008 1496770797 483748329 -1887175714 68569340 -943880778 1467542897 -521204594 2037890667 -682813230 1813421047 -1761897973 -1171061967 -1491665869 811992172 -1352015765 -1945478042 -1881352810 785069726 -703953723 1926674593 1254831523 -685077338 -1658057060 -288165494 -1366748785
REM
CELL 1.54180   50.00000   50.00000   50.00000   90.00000   90.00000   90.00000
LATT -1
SFAC C  
C      1  0.4632840000000  0.4774830000000  0.4307450000000 1.0
C      1  0.4607090000000  0.5080010000000  0.4386580000000 1.0
C      1  0.4934410000000  0.5454740000000  0.4319100000000 1.0
C      1  0.5358860000000  0.5188890000000  0.4203210000000 1.0
C      1  0.5159270000000  0.4724930000000  0.4260290000000 1.0
C      1  0.5306450000000  0.4492950000000  0.4792930000000 1.0
C      1  0.4639010000000  0.4443560000000  0.4823150000000 1.0
C      1  0.4548650000000  0.5232490000000  0.4778930000000 1.0
C      1  0.5088520000000  0.5614450000000  0.4805820000000 1.0
C      1  0.5548890000000  0.5132820000000  0.4787500000000 1.0
C      1  0.5114270000000  0.4339810000000  0.5391870000000 1.0
C      1  0.4358430000000  0.4670580000000  0.5297660000000 1.0
C      1  0.4526690000000  0.5430190000000  0.5239240000000 1.0
C      1  0.5335080000000  0.5602580000000  0.5343050000000 1.0
C      1  0.5664690000000  0.4887050000000  0.5379560000000 1.0
C      1  0.5541410000000  0.5120620000000  0.5186850000000 1.0
C      1  0.5293430000000  0.4517090000000  0.5189160000000 1.0
C      1  0.4673670000000  0.4604410000000  0.5267300000000 1.0
C      1  0.4394010000000  0.5158370000000  0.5138980000000 1.0
C      1  0.5025600000000  0.5521890000000  0.5260580000000 1.0
C      1  0.4379560000000  0.4964670000000  0.4888040000000 1.0
C      1  0.4899510000000  0.5613120000000  0.5015780000000 1.0
C      1  0.5543550000000  0.5345970000000  0.4992710000000 1.0
C      1  0.5530830000000  0.4555230000000  0.5001750000000 1.0
C      1  0.4745440000000  0.4391850000000  0.5075780000000 1.0
C      1  0.5006750000000  0.5276330000000  0.5696810000000 1.0
C      1  0.5200250000000  0.5066680000000  0.5712690000000 1.0
C      1  0.5065120000000  0.4815050000000  0.5687220000000 1.0
C      1  0.4769700000000  0.4853940000000  0.5694690000000 1.0
C      1  0.4753630000000  0.5141270000000  0.5628230000000 1.0
C      1  0.4873120000000  0.5205150000000  0.4789950000000 1.0
C      1  0.5140680000000  0.5342990000000  0.4641890000000 1.0
C      1  0.5270510000000  0.5027360000000  0.4647250000000 1.0
C      1  0.5104530000000  0.4751500000000  0.4752570000000 1.0
C      1  0.4804710000000  0.4650950000000  0.4644370000000 1.0
C      1  0.5306140000000  0.4948480000000  0.4343890000000 1.0
C      1  0.4901160000000  0.4646320000000  0.4325550000000 1.0
C      1  0.4538960000000  0.4864220000000  0.4626800000000 1.0
C      1  0.4790430000000  0.5266750000000  0.4465590000000 1.0
C      1  0.5227470000000  0.5407270000000  0.4323230000000 1.0
C      1  0.5275590000000  0.4911590000000  0.5222860000000 1.0
C      1  0.5072490000000  0.4741000000000  0.5059840000000 1.0
C      1  0.4800910000000  0.4868040000000  0.5177750000000 1.0
C      1  0.4966600000000  0.5125930000000  0.5076180000000 1.0
C      1  0.5182590000000  0.5225200000000  0.5315600000000 1.0
C      1  0.5443380000000  0.5117610000000  0.5512470000000 1.0
C      1  0.5174070000000  0.4672990000000  0.5453790000000 1.0
C      1  0.4574220000000  0.4693240000000  0.5561200000000 1.0
C      1  0.4663260000000  0.5135400000000  0.5336700000000 1.0
C      1  0.5105480000000  0.5513890000000  0.5578880000000 1.0
C      1  0.4988610000000  0.4269560000000  0.5117830000000 1.0
C      1  0.4284000000000  0.4703080000000  0.5017280000000 1.0
C      1  0.4618850000000  0.5600810000000  0.5030650000000 1.0
C      1  0.5469210000000  0.5595880000000  0.5083090000000 1.0
C      1  0.5693330000000  0.4768120000000  0.5075260000000 1.0
C      1  0.4484610000000  0.5498560000000  0.4799900000000 1.0
C      1  0.5331700000000  0.5743370000000  0.4880750000000 1.0
C      1  0.5748990000000  0.4942470000000  0.4856630000000 1.0
C      1  0.5161980000000  0.4258900000000  0.4887370000000 1.0
C      1  0.4356790000000  0.4487020000000  0.4841950000000 1.0
END
