TITL C-1154830-9999-478 -0.000294379232058309 125000 -354.060326234307 0 0 60 (C3h) n - 1
REM
REM in /home/nfs/bkarasulu/CARBON/AIRSS/Generating-Clusters/AIREBO/Higher-Symm/Only-C60
REM
REM
REM
REM
REM
REM ./C.cell (28575a23ae977d3b5fae324c64b13b57)
REM
REM compiler GCC version 9.2.1 20190827 (Red Hat 9.2.1-1)
REM options -cpp -mtune=generic -march=x86-64 -g -O0 -fpre-include=/usr/include/finclude/math-vector-fortran.h
REM seed 1573571777 -1630607061 -1099504708 -230079926 -1788634966 -1796030605 836873293 -391114222 -1147873372 1212159936 -2136354393 -184757003 175422872 759744730 -1187465143 429630081 1272394668 172719074 -1537668479 -1339284755 2007793514 264573327 -1595812493 -1158609775 1367925705 -60980839 909744374 -975846101 2096286947 35253279 -215454335 -1805643693 -233907391
REM
CELL 1.54180   50.00000   50.00000   50.00000   90.00000   90.00000   90.00000
LATT -1
SFAC C  
C      1  0.4655740000000  0.4451790000000  0.5578590000000 1.0
C      1  0.4696870000000  0.5571550000000  0.5579020000000 1.0
C      1  0.5646050000000  0.4976050000000  0.5579550000000 1.0
C      1  0.4656640000000  0.4452190000000  0.4420490000000 1.0
C      1  0.4697760000000  0.5571950000000  0.4420910000000 1.0
C      1  0.5646940000000  0.4976460000000  0.4421440000000 1.0
C      1  0.4661410000000  0.4960110000000  0.5455490000000 1.0
C      1  0.5134360000000  0.5312630000000  0.5455980000000 1.0
C      1  0.5203180000000  0.4726780000000  0.5455830000000 1.0
C      1  0.4662110000000  0.4960430000000  0.4543960000000 1.0
C      1  0.5135060000000  0.5312950000000  0.4544450000000 1.0
C      1  0.5203880000000  0.4727100000000  0.4544300000000 1.0
C      1  0.4986740000000  0.4608960000000  0.4671090000000 1.0
C      1  0.4668260000000  0.5207400000000  0.4671050000000 1.0
C      1  0.5345760000000  0.5183990000000  0.4671570000000 1.0
C      1  0.4986230000000  0.4608730000000  0.5328620000000 1.0
C      1  0.4667750000000  0.5207170000000  0.5328580000000 1.0
C      1  0.5345260000000  0.5183760000000  0.5329100000000 1.0
C      1  0.5341630000000  0.4915460000000  0.4720970000000 1.0
C      1  0.4756210000000  0.4746740000000  0.4720460000000 1.0
C      1  0.4902800000000  0.5338090000000  0.4720780000000 1.0
C      1  0.5341200000000  0.4915270000000  0.5279500000000 1.0
C      1  0.4755780000000  0.4746540000000  0.5278990000000 1.0
C      1  0.4902370000000  0.5337900000000  0.5279300000000 1.0
C      1  0.5717300000000  0.5041970000000  0.5315600000000 1.0
C      1  0.4677430000000  0.4357440000000  0.5314550000000 1.0
C      1  0.4604540000000  0.5600260000000  0.5314920000000 1.0
C      1  0.5717790000000  0.5042190000000  0.4685550000000 1.0
C      1  0.4677910000000  0.4357660000000  0.4684500000000 1.0
C      1  0.4605030000000  0.5600480000000  0.4684880000000 1.0
C      1  0.4876460000000  0.5632590000000  0.4855660000000 1.0
C      1  0.5609740000000  0.4790870000000  0.4855940000000 1.0
C      1  0.4514140000000  0.4576690000000  0.4855020000000 1.0
C      1  0.4876230000000  0.5632490000000  0.5144580000000 1.0
C      1  0.5609510000000  0.4790770000000  0.5144860000000 1.0
C      1  0.4513920000000  0.4576590000000  0.5143930000000 1.0
C      1  0.4978210000000  0.4325650000000  0.5158310000000 1.0
C      1  0.4426750000000  0.5355850000000  0.5158240000000 1.0
C      1  0.5594670000000  0.5318330000000  0.5159130000000 1.0
C      1  0.4978460000000  0.4325760000000  0.4841190000000 1.0
C      1  0.4426990000000  0.5355960000000  0.4841120000000 1.0
C      1  0.5594910000000  0.5318440000000  0.4842010000000 1.0
C      1  0.4301140000000  0.5067450000000  0.5253960000000 1.0
C      1  0.5407630000000  0.5571200000000  0.5254990000000 1.0
C      1  0.5290640000000  0.4361080000000  0.5254480000000 1.0
C      1  0.4301530000000  0.5067630000000  0.4745010000000 1.0
C      1  0.5408020000000  0.5571380000000  0.4746040000000 1.0
C      1  0.5291040000000  0.4361260000000  0.4745530000000 1.0
C      1  0.5176790000000  0.5658140000000  0.5259050000000 1.0
C      1  0.5481350000000  0.4517510000000  0.5258890000000 1.0
C      1  0.4341260000000  0.4824080000000  0.5258110000000 1.0
C      1  0.5177190000000  0.5658320000000  0.4741690000000 1.0
C      1  0.5481750000000  0.4517690000000  0.4741530000000 1.0
C      1  0.4341660000000  0.4824260000000  0.4740750000000 1.0
C      1  0.5438030000000  0.4796610000000  0.4352380000000 1.0
C      1  0.4605400000000  0.4723120000000  0.4351710000000 1.0
C      1  0.4958070000000  0.5480940000000  0.4352250000000 1.0
C      1  0.5437030000000  0.4796160000000  0.5648160000000 1.0
C      1  0.4604400000000  0.4722670000000  0.5647480000000 1.0
C      1  0.4957070000000  0.5480490000000  0.5648020000000 1.0
END
