TITL C-1154827-9204-537 -0.000380278884999042 125000 -325.410406132386 0 0 60 (C1) n - 1
REM
REM in /home/nfs/bkarasulu/CARBON/AIRSS/Generating-Clusters/AIREBO/Higher-Symm/Only-C60
REM
REM
REM
REM
REM
REM ./C.cell (28575a23ae977d3b5fae324c64b13b57)
REM
REM compiler GCC version 9.2.1 20190827 (Red Hat 9.2.1-1)
REM options -cpp -mtune=generic -march=x86-64 -g -O0 -fpre-include=/usr/include/finclude/math-vector-fortran.h
REM seed -1354388467 1275107156 26480023 -1585385932 991831227 1710535656 1096337170 679610480 -672708036 417139322 87539448 215489972 -1608706098 1352914062 550978323 670501241 -1220498731 1452136525 -2010797195 2064243187 -681350070 -1233992438 -1387193342 859583284 1207416809 529505324 -402131086 171328465 -837796228 -1564250651 634458483 1818770295 -802920263
REM
CELL 1.54180   50.00000   50.00000   50.00000   90.00000   90.00000   90.00000
LATT -1
SFAC C  
C      1  0.5088370000000  0.5180840000000  0.4606130000000 1.0
C      1  0.4646830000000  0.5363800000000  0.4503350000000 1.0
C      1  0.5563350000000  0.5679560000000  0.4772690000000 1.0
C      1  0.5630860000000  0.4835660000000  0.5408580000000 1.0
C      1  0.5316160000000  0.4467460000000  0.4638120000000 1.0
C      1  0.5200730000000  0.4957430000000  0.5797220000000 1.0
C      1  0.4619060000000  0.4673360000000  0.4305080000000 1.0
C      1  0.5209170000000  0.4805100000000  0.5140020000000 1.0
C      1  0.4496280000000  0.5568350000000  0.4896050000000 1.0
C      1  0.4816520000000  0.5362020000000  0.5523950000000 1.0
C      1  0.4299260000000  0.4893920000000  0.5298450000000 1.0
C      1  0.5212770000000  0.5290630000000  0.4878030000000 1.0
C      1  0.4930340000000  0.4602390000000  0.4934400000000 1.0
C      1  0.5218470000000  0.4720140000000  0.5648300000000 1.0
C      1  0.4912570000000  0.5401610000000  0.4470640000000 1.0
C      1  0.5077770000000  0.4333300000000  0.5035290000000 1.0
C      1  0.4222740000000  0.4861600000000  0.4971880000000 1.0
C      1  0.5245570000000  0.4687650000000  0.4462410000000 1.0
C      1  0.5455880000000  0.5611190000000  0.5342180000000 1.0
C      1  0.4839800000000  0.5226320000000  0.4999350000000 1.0
C      1  0.4376650000000  0.5245800000000  0.5305370000000 1.0
C      1  0.4561630000000  0.5247440000000  0.4804680000000 1.0
C      1  0.4624460000000  0.4544000000000  0.4796970000000 1.0
C      1  0.5365100000000  0.5300620000000  0.5428080000000 1.0
C      1  0.4493690000000  0.4665030000000  0.5407210000000 1.0
C      1  0.4461400000000  0.4767700000000  0.4508460000000 1.0
C      1  0.4614760000000  0.5013450000000  0.5256310000000 1.0
C      1  0.5527420000000  0.5317610000000  0.5702640000000 1.0
C      1  0.5372570000000  0.5534540000000  0.4575770000000 1.0
C      1  0.5332930000000  0.4958930000000  0.4588210000000 1.0
C      1  0.5466910000000  0.5263600000000  0.4516490000000 1.0
C      1  0.5623520000000  0.5097440000000  0.4995950000000 1.0
C      1  0.4695880000000  0.5586000000000  0.5097090000000 1.0
C      1  0.5121420000000  0.5239940000000  0.5189470000000 1.0
C      1  0.5081220000000  0.4310510000000  0.4709470000000 1.0
C      1  0.4319580000000  0.5148460000000  0.4997920000000 1.0
C      1  0.4318420000000  0.4692520000000  0.4776930000000 1.0
C      1  0.5450670000000  0.4560220000000  0.4876460000000 1.0
C      1  0.5687240000000  0.5127440000000  0.4663300000000 1.0
C      1  0.4930490000000  0.4669460000000  0.4395380000000 1.0
C      1  0.4899580000000  0.5065650000000  0.5379290000000 1.0
C      1  0.5421470000000  0.4872800000000  0.4882100000000 1.0
C      1  0.4631650000000  0.4935140000000  0.4723180000000 1.0
C      1  0.5090230000000  0.5579270000000  0.4632900000000 1.0
C      1  0.4775020000000  0.4305510000000  0.5152460000000 1.0
C      1  0.4594860000000  0.4501000000000  0.5190630000000 1.0
C      1  0.4931490000000  0.4904530000000  0.4603650000000 1.0
C      1  0.4986480000000  0.5532760000000  0.4954030000000 1.0
C      1  0.5500370000000  0.5371370000000  0.4915600000000 1.0
C      1  0.4620810000000  0.5457020000000  0.5336390000000 1.0
C      1  0.4613900000000  0.4797270000000  0.5023790000000 1.0
C      1  0.5592970000000  0.5085300000000  0.5295370000000 1.0
C      1  0.5005510000000  0.4750820000000  0.5408870000000 1.0
C      1  0.5510280000000  0.5643830000000  0.5084110000000 1.0
C      1  0.4995920000000  0.4935920000000  0.4924050000000 1.0
C      1  0.5385850000000  0.4639720000000  0.5378870000000 1.0
C      1  0.4844010000000  0.4425480000000  0.4589040000000 1.0
C      1  0.4708820000000  0.4751400000000  0.5556350000000 1.0
C      1  0.5359310000000  0.4435420000000  0.5126840000000 1.0
C      1  0.5103020000000  0.5196750000000  0.5618230000000 1.0
END
