TITL C-1154825-9328-537 0.00912476001507974 125000 -302.46202644042 0 0 60 (C1) n - 1
REM
REM in /home/nfs/bkarasulu/CARBON/AIRSS/Generating-Clusters/AIREBO/Higher-Symm/Only-C60
REM
REM
REM
REM
REM
REM ./C.cell (28575a23ae977d3b5fae324c64b13b57)
REM
REM compiler GCC version 9.2.1 20190827 (Red Hat 9.2.1-1)
REM options -cpp -mtune=generic -march=x86-64 -g -O0 -fpre-include=/usr/include/finclude/math-vector-fortran.h
REM seed 310185102 1010140415 11014517 110823262 -1364843848 360981786 -393659688 1279765547 2131297098 -701096750 622756790 934943034 690619776 -300967009 -1892491634 1994219471 834904879 1272373910 1555076312 658380075 1588223715 54445526 -2021828450 -1409443121 -1493552967 20889591 984458816 1292784871 1824455128 798161976 564077604 -773221962 -917280172
REM
CELL 1.54180   50.00000   50.00000   50.00000   90.00000   90.00000   90.00000
LATT -1
SFAC C  
C      1  0.4827080000000  0.4454740000000  0.5155680000000 1.0
C      1  0.5070110000000  0.4380790000000  0.4831110000000 1.0
C      1  0.4803510000000  0.5730450000000  0.5155000000000 1.0
C      1  0.5131810000000  0.5490130000000  0.4826830000000 1.0
C      1  0.4846620000000  0.4515270000000  0.4752640000000 1.0
C      1  0.5146740000000  0.4448280000000  0.5144870000000 1.0
C      1  0.4815140000000  0.5474830000000  0.4844660000000 1.0
C      1  0.5068550000000  0.5648850000000  0.5116110000000 1.0
C      1  0.5147600000000  0.4749290000000  0.4543130000000 1.0
C      1  0.4861370000000  0.4742510000000  0.5524410000000 1.0
C      1  0.5234400000000  0.5248520000000  0.4522290000000 1.0
C      1  0.4859360000000  0.5244480000000  0.5411310000000 1.0
C      1  0.5154130000000  0.4773340000000  0.5509300000000 1.0
C      1  0.4813920000000  0.4787010000000  0.4467640000000 1.0
C      1  0.5152780000000  0.5283150000000  0.5392670000000 1.0
C      1  0.4933190000000  0.5261140000000  0.4566670000000 1.0
C      1  0.5368830000000  0.5564070000000  0.5134460000000 1.0
C      1  0.4492470000000  0.5478050000000  0.4840700000000 1.0
C      1  0.5399600000000  0.4261100000000  0.5015270000000 1.0
C      1  0.4557430000000  0.4408570000000  0.4746750000000 1.0
C      1  0.5464090000000  0.5534960000000  0.4823920000000 1.0
C      1  0.4563150000000  0.5571770000000  0.5135710000000 1.0
C      1  0.5361230000000  0.4368790000000  0.4727590000000 1.0
C      1  0.4634580000000  0.4313390000000  0.5023870000000 1.0
C      1  0.4666350000000  0.5309020000000  0.4432350000000 1.0
C      1  0.5261800000000  0.5362300000000  0.5695890000000 1.0
C      1  0.4770250000000  0.4833690000000  0.4173770000000 1.0
C      1  0.5347990000000  0.4799470000000  0.5774610000000 1.0
C      1  0.4747000000000  0.5297400000000  0.5706350000000 1.0
C      1  0.5449220000000  0.5400120000000  0.4306640000000 1.0
C      1  0.4658960000000  0.4614560000000  0.5740080000000 1.0
C      1  0.5311060000000  0.4646610000000  0.4289580000000 1.0
C      1  0.4547090000000  0.5350750000000  0.5365170000000 1.0
C      1  0.5559390000000  0.5282720000000  0.4616730000000 1.0
C      1  0.4502400000000  0.4798650000000  0.5539290000000 1.0
C      1  0.5450330000000  0.4652320000000  0.4663920000000 1.0
C      1  0.4455270000000  0.5293840000000  0.4611740000000 1.0
C      1  0.5483230000000  0.5364990000000  0.5384370000000 1.0
C      1  0.4524580000000  0.4721430000000  0.4637900000000 1.0
C      1  0.5495420000000  0.4775540000000  0.5491220000000 1.0
C      1  0.4828240000000  0.5149320000000  0.4870250000000 1.0
C      1  0.5286780000000  0.5096800000000  0.5168420000000 1.0
C      1  0.4864710000000  0.4843670000000  0.4799060000000 1.0
C      1  0.5244460000000  0.4759650000000  0.5181510000000 1.0
C      1  0.4727320000000  0.5063510000000  0.5157080000000 1.0
C      1  0.5252460000000  0.5185040000000  0.4853150000000 1.0
C      1  0.4750040000000  0.4741750000000  0.5233970000000 1.0
C      1  0.5178540000000  0.4867700000000  0.4860750000000 1.0
C      1  0.4220270000000  0.5168440000000  0.4908910000000 1.0
C      1  0.5601610000000  0.5209280000000  0.5106250000000 1.0
C      1  0.4343540000000  0.4789860000000  0.4920800000000 1.0
C      1  0.5579720000000  0.4814460000000  0.5165550000000 1.0
C      1  0.4412450000000  0.5188610000000  0.5104880000000 1.0
C      1  0.5754480000000  0.5225730000000  0.4879150000000 1.0
C      1  0.4430020000000  0.4802990000000  0.5207050000000 1.0
C      1  0.5662050000000  0.4790220000000  0.4884240000000 1.0
C      1  0.5604350000000  0.4946620000000  0.4591730000000 1.0
C      1  0.4364060000000  0.5068440000000  0.5416920000000 1.0
C      1  0.5637170000000  0.5058390000000  0.5399290000000 1.0
C      1  0.4319690000000  0.4992610000000  0.4648860000000 1.0
END
