TITL C-1154826-9507-447 -0.0011195700996206 125000 -341.724947929568 0 0 60 (C1) n - 1
REM
REM in /home/nfs/bkarasulu/CARBON/AIRSS/Generating-Clusters/AIREBO/Higher-Symm/Only-C60
REM
REM
REM
REM
REM
REM ./C.cell (28575a23ae977d3b5fae324c64b13b57)
REM
REM compiler GCC version 9.2.1 20190827 (Red Hat 9.2.1-1)
REM options -cpp -mtune=generic -march=x86-64 -g -O0 -fpre-include=/usr/include/finclude/math-vector-fortran.h
REM seed 333568090 -638130586 -360940110 2036142399 948935853 690827407 -1838426094 1341707522 1934479737 -2124614852 -2003241884 83356019 1999913251 1723829797 67149182 -1514795336 927134673 -2125691650 -912172948 -772750343 -1302589834 38637183 1918482289 390295101 -882581285 -458067266 -536522963 1406759001 229738923 -626215106 -1857548844 2491905 -1926590960
REM
CELL 1.54180   50.00000   50.00000   50.00000   90.00000   90.00000   90.00000
LATT -1
SFAC C  
C      1  0.4581920000000  0.5289870000000  0.5527570000000 1.0
C      1  0.5255720000000  0.5439010000000  0.5385300000000 1.0
C      1  0.4735140000000  0.4839490000000  0.5232170000000 1.0
C      1  0.5292110000000  0.4757400000000  0.5231530000000 1.0
C      1  0.5195950000000  0.5095720000000  0.4869130000000 1.0
C      1  0.4610380000000  0.5499450000000  0.4328960000000 1.0
C      1  0.4690700000000  0.4583300000000  0.4782280000000 1.0
C      1  0.5301070000000  0.4587310000000  0.4758510000000 1.0
C      1  0.4426220000000  0.5463950000000  0.4602590000000 1.0
C      1  0.5576740000000  0.5374280000000  0.4620070000000 1.0
C      1  0.4717230000000  0.5297070000000  0.4191780000000 1.0
C      1  0.5337370000000  0.5094300000000  0.4286980000000 1.0
C      1  0.5295700000000  0.4856340000000  0.5618170000000 1.0
C      1  0.4659460000000  0.4968040000000  0.5749150000000 1.0
C      1  0.4559460000000  0.5634560000000  0.4893830000000 1.0
C      1  0.5490980000000  0.5652630000000  0.4809550000000 1.0
C      1  0.4859400000000  0.4741520000000  0.4979040000000 1.0
C      1  0.5154950000000  0.4788490000000  0.4951960000000 1.0
C      1  0.5051700000000  0.4999080000000  0.4366100000000 1.0
C      1  0.4788540000000  0.5060910000000  0.4332330000000 1.0
C      1  0.5744370000000  0.4937960000000  0.4843560000000 1.0
C      1  0.4276520000000  0.4891180000000  0.4863610000000 1.0
C      1  0.5775100000000  0.5213870000000  0.4779370000000 1.0
C      1  0.4414450000000  0.5163360000000  0.4698660000000 1.0
C      1  0.4254350000000  0.4947240000000  0.5143080000000 1.0
C      1  0.5749750000000  0.4913850000000  0.5127340000000 1.0
C      1  0.5114300000000  0.4537930000000  0.4515850000000 1.0
C      1  0.4876870000000  0.4459480000000  0.4549790000000 1.0
C      1  0.5165430000000  0.4250580000000  0.5134610000000 1.0
C      1  0.4880690000000  0.4228930000000  0.5115830000000 1.0
C      1  0.5659640000000  0.5443340000000  0.5003100000000 1.0
C      1  0.4471360000000  0.5330570000000  0.4975870000000 1.0
C      1  0.5250060000000  0.4350250000000  0.5388740000000 1.0
C      1  0.4749060000000  0.4316570000000  0.5353760000000 1.0
C      1  0.4572640000000  0.4764730000000  0.5587700000000 1.0
C      1  0.5560400000000  0.4796080000000  0.5569390000000 1.0
C      1  0.5301930000000  0.4951270000000  0.4593420000000 1.0
C      1  0.4591210000000  0.4971170000000  0.4501540000000 1.0
C      1  0.5615910000000  0.4726490000000  0.5283530000000 1.0
C      1  0.4421690000000  0.4800230000000  0.5311920000000 1.0
C      1  0.4896240000000  0.5602320000000  0.4841810000000 1.0
C      1  0.5179480000000  0.5601950000000  0.4788370000000 1.0
C      1  0.4483330000000  0.4770450000000  0.4683540000000 1.0
C      1  0.5555880000000  0.4788610000000  0.4699450000000 1.0
C      1  0.5336970000000  0.5065890000000  0.5280790000000 1.0
C      1  0.4773110000000  0.5136530000000  0.5301510000000 1.0
C      1  0.4737580000000  0.4274320000000  0.4874720000000 1.0
C      1  0.5327950000000  0.4316070000000  0.4911900000000 1.0
C      1  0.4799070000000  0.5362340000000  0.5060310000000 1.0
C      1  0.5107800000000  0.5267840000000  0.5131360000000 1.0
C      1  0.5544910000000  0.5479720000000  0.5322300000000 1.0
C      1  0.4329960000000  0.5323750000000  0.5446560000000 1.0
C      1  0.5184240000000  0.5165230000000  0.5573910000000 1.0
C      1  0.4886820000000  0.5167070000000  0.5613960000000 1.0
C      1  0.4279710000000  0.5229830000000  0.5185580000000 1.0
C      1  0.5636870000000  0.5180430000000  0.5217490000000 1.0
C      1  0.4817700000000  0.4604140000000  0.5451680000000 1.0
C      1  0.5114950000000  0.4628010000000  0.5482640000000 1.0
C      1  0.4697720000000  0.5678770000000  0.4587720000000 1.0
C      1  0.5283270000000  0.5338950000000  0.4686730000000 1.0
END
