TITL C-1154816-9297-196 0.00149239652937982 125000 -338.675657524454 0 0 60 (C1) n - 1
REM
REM in /home/nfs/bkarasulu/CARBON/AIRSS/Generating-Clusters/AIREBO/Higher-Symm/Only-C60
REM
REM
REM
REM
REM
REM ./C.cell (28575a23ae977d3b5fae324c64b13b57)
REM
REM compiler GCC version 9.2.1 20190827 (Red Hat 9.2.1-1)
REM options -cpp -mtune=generic -march=x86-64 -g -O0 -fpre-include=/usr/include/finclude/math-vector-fortran.h
REM seed -1528735680 1793067791 -1668088867 -1244835222 1998253502 1506806900 852034085 -152642447 1791259398 1971358264 1131587742 -1205252115 -1348888764 113315370 -1272333312 -1082624698 2138756280 -1398783834 739972342 -1050181869 -364604009 1932843911 -232058581 1049471084 -204926270 69627541 -231788050 1148604567 299354733 -237953950 -413219088 1693080704 -930074256
REM
CELL 1.54180   50.00000   50.00000   50.00000   90.00000   90.00000   90.00000
LATT -1
SFAC C  
C      1  0.4327710000000  0.5254140000000  0.5173910000000 1.0
C      1  0.5151830000000  0.4221010000000  0.5271440000000 1.0
C      1  0.5614160000000  0.5518750000000  0.5233890000000 1.0
C      1  0.4582180000000  0.5138660000000  0.4120520000000 1.0
C      1  0.5170130000000  0.4663560000000  0.4259800000000 1.0
C      1  0.5273410000000  0.5172790000000  0.4226920000000 1.0
C      1  0.5237260000000  0.5053060000000  0.5535910000000 1.0
C      1  0.4941140000000  0.5181310000000  0.5565610000000 1.0
C      1  0.4816680000000  0.4867640000000  0.5523140000000 1.0
C      1  0.4898390000000  0.4259110000000  0.5138660000000 1.0
C      1  0.5699800000000  0.5281020000000  0.5092750000000 1.0
C      1  0.4420220000000  0.5523500000000  0.5082330000000 1.0
C      1  0.4899840000000  0.5628320000000  0.5287770000000 1.0
C      1  0.4491310000000  0.4569580000000  0.5266020000000 1.0
C      1  0.5624400000000  0.4767760000000  0.5243690000000 1.0
C      1  0.4732930000000  0.4434120000000  0.5302220000000 1.0
C      1  0.5662740000000  0.5043960000000  0.5276330000000 1.0
C      1  0.4638160000000  0.5507690000000  0.5294260000000 1.0
C      1  0.5343490000000  0.4551790000000  0.4885500000000 1.0
C      1  0.5202440000000  0.5518010000000  0.4854810000000 1.0
C      1  0.4428350000000  0.4889050000000  0.4874440000000 1.0
C      1  0.5149300000000  0.4899800000000  0.4910860000000 1.0
C      1  0.4985870000000  0.5191200000000  0.4923440000000 1.0
C      1  0.4820760000000  0.4901370000000  0.4942090000000 1.0
C      1  0.5247140000000  0.4472400000000  0.5383180000000 1.0
C      1  0.5366090000000  0.5510520000000  0.5415700000000 1.0
C      1  0.4290740000000  0.5049410000000  0.5376370000000 1.0
C      1  0.5030290000000  0.5145040000000  0.4446650000000 1.0
C      1  0.4730890000000  0.5066350000000  0.4418760000000 1.0
C      1  0.5231560000000  0.4885880000000  0.4500960000000 1.0
C      1  0.5046780000000  0.4430650000000  0.4338790000000 1.0
C      1  0.5527820000000  0.5239140000000  0.4299650000000 1.0
C      1  0.4514570000000  0.5322880000000  0.4363970000000 1.0
C      1  0.5070520000000  0.4608790000000  0.5051290000000 1.0
C      1  0.5309760000000  0.5251580000000  0.5010640000000 1.0
C      1  0.4586080000000  0.5055840000000  0.5107260000000 1.0
C      1  0.4715630000000  0.4624440000000  0.4811980000000 1.0
C      1  0.5429630000000  0.4926030000000  0.4775620000000 1.0
C      1  0.4812470000000  0.5455790000000  0.4824170000000 1.0
C      1  0.5373680000000  0.4842790000000  0.5634930000000 1.0
C      1  0.4875080000000  0.5234610000000  0.5849590000000 1.0
C      1  0.4610810000000  0.4780460000000  0.5762150000000 1.0
C      1  0.5057690000000  0.5409300000000  0.4597750000000 1.0
C      1  0.4601720000000  0.4876350000000  0.4610480000000 1.0
C      1  0.5312480000000  0.4577440000000  0.4619290000000 1.0
C      1  0.4989720000000  0.5660270000000  0.5022350000000 1.0
C      1  0.4430780000000  0.4606550000000  0.4995910000000 1.0
C      1  0.5575760000000  0.4697950000000  0.4980520000000 1.0
C      1  0.4486000000000  0.4819090000000  0.5448250000000 1.0
C      1  0.5459860000000  0.4646000000000  0.5446740000000 1.0
C      1  0.5074100000000  0.5481020000000  0.5457920000000 1.0
C      1  0.4418340000000  0.5487060000000  0.4561990000000 1.0
C      1  0.5004510000000  0.4293340000000  0.4570490000000 1.0
C      1  0.5660400000000  0.5304340000000  0.4528740000000 1.0
C      1  0.5377730000000  0.5206320000000  0.5314410000000 1.0
C      1  0.4684180000000  0.5231450000000  0.5351690000000 1.0
C      1  0.4971170000000  0.4646390000000  0.5368360000000 1.0
C      1  0.4911580000000  0.4388880000000  0.4845860000000 1.0
C      1  0.5575810000000  0.5205760000000  0.4803930000000 1.0
C      1  0.4526110000000  0.5522690000000  0.4817370000000 1.0
END
