TITL C-1154828-9214-355 -0.00134664354782409 125000 -274.732489480611 0 0 60 (C3i) n - 1
REM
REM in /home/nfs/bkarasulu/CARBON/AIRSS/Generating-Clusters/AIREBO/Higher-Symm/Only-C60
REM
REM
REM
REM
REM
REM ./C.cell (28575a23ae977d3b5fae324c64b13b57)
REM
REM compiler GCC version 9.2.1 20190827 (Red Hat 9.2.1-1)
REM options -cpp -mtune=generic -march=x86-64 -g -O0 -fpre-include=/usr/include/finclude/math-vector-fortran.h
REM seed -1464970965 -627025649 1549768557 449175510 -1142254170 539517068 -11838114 -1996691093 2086727235 1503285935 193620102 392828943 -1560344571 1295429800 256223861 91245459 1641597067 1079697954 -687851510 417044938 -1636188035 2066465876 -978062405 -2057940460 2057181415 -573004768 -1740238673 1518382533 -871534523 1576006230 -463779293 580635352 2138829762
REM
CELL 1.54180   50.00000   50.00000   50.00000   90.00000   90.00000   90.00000
LATT -1
SFAC C  
C      1  0.5401760000000  0.5480300000000  0.4757510000000 1.0
C      1  0.4991720000000  0.4519890000000  0.4531220000000 1.0
C      1  0.4590420000000  0.5479540000000  0.4774580000000 1.0
C      1  0.4598240000000  0.4519700000000  0.5242490000000 1.0
C      1  0.5008280000000  0.5480110000000  0.5468780000000 1.0
C      1  0.5409580000000  0.4520460000000  0.5225420000000 1.0
C      1  0.4200460000000  0.5280480000000  0.5201580000000 1.0
C      1  0.4774480000000  0.4720310000000  0.5792580000000 1.0
C      1  0.5573870000000  0.5280180000000  0.5591570000000 1.0
C      1  0.5799540000000  0.4719520000000  0.4798420000000 1.0
C      1  0.5225520000000  0.5279690000000  0.4207420000000 1.0
C      1  0.4426130000000  0.4719820000000  0.4408430000000 1.0
C      1  0.5219250000000  0.5013160000000  0.4658600000000 1.0
C      1  0.4813520000000  0.4986510000000  0.4639950000000 1.0
C      1  0.4595210000000  0.5012910000000  0.4981250000000 1.0
C      1  0.4780750000000  0.4986840000000  0.5341400000000 1.0
C      1  0.5186480000000  0.5013490000000  0.5360050000000 1.0
C      1  0.5404790000000  0.4987090000000  0.5018750000000 1.0
C      1  0.4977740000000  0.4737300000000  0.4336560000000 1.0
C      1  0.4414970000000  0.5262300000000  0.4688640000000 1.0
C      1  0.4436550000000  0.4737300000000  0.5351340000000 1.0
C      1  0.5022260000000  0.5262700000000  0.5663440000000 1.0
C      1  0.5585030000000  0.4737700000000  0.5311360000000 1.0
C      1  0.5563450000000  0.5262700000000  0.4648660000000 1.0
C      1  0.4488310000000  0.5136650000000  0.4380620000000 1.0
C      1  0.4206620000000  0.4862970000000  0.5133720000000 1.0
C      1  0.4719010000000  0.5136280000000  0.5753430000000 1.0
C      1  0.5511690000000  0.4863350000000  0.5619380000000 1.0
C      1  0.5793380000000  0.5137030000000  0.4866280000000 1.0
C      1  0.5280990000000  0.4863720000000  0.4246570000000 1.0
C      1  0.5131720000000  0.4517080000000  0.5144600000000 1.0
C      1  0.5192750000000  0.5483140000000  0.4957120000000 1.0
C      1  0.5059620000000  0.4517200000000  0.4812280000000 1.0
C      1  0.4868280000000  0.5482920000000  0.4855400000000 1.0
C      1  0.4807250000000  0.4516860000000  0.5042880000000 1.0
C      1  0.4940380000000  0.5482800000000  0.5187720000000 1.0
C      1  0.4455880000000  0.5077190000000  0.5296950000000 1.0
C      1  0.4985590000000  0.4922780000000  0.5619080000000 1.0
C      1  0.5529370000000  0.5077660000000  0.5322000000000 1.0
C      1  0.5544120000000  0.4922810000000  0.4703050000000 1.0
C      1  0.5014410000000  0.5077220000000  0.4380920000000 1.0
C      1  0.4470630000000  0.4922340000000  0.4678000000000 1.0
C      1  0.5315440000000  0.5121900000000  0.5722200000000 1.0
C      1  0.5782920000000  0.4878290000000  0.5087360000000 1.0
C      1  0.5468250000000  0.5121880000000  0.4365820000000 1.0
C      1  0.4684560000000  0.4878100000000  0.4277800000000 1.0
C      1  0.4217080000000  0.5121710000000  0.4912640000000 1.0
C      1  0.4531750000000  0.4878120000000  0.5634180000000 1.0
C      1  0.5269280000000  0.5261550000000  0.5150850000000 1.0
C      1  0.5265610000000  0.4739030000000  0.4842460000000 1.0
C      1  0.4996200000000  0.5260470000000  0.4692060000000 1.0
C      1  0.4730720000000  0.4738450000000  0.4849150000000 1.0
C      1  0.4734390000000  0.5260970000000  0.5157540000000 1.0
C      1  0.5003800000000  0.4739530000000  0.5307940000000 1.0
C      1  0.4182780000000  0.4800130000000  0.4811510000000 1.0
C      1  0.4428280000000  0.5199970000000  0.5612840000000 1.0
C      1  0.5244950000000  0.4800080000000  0.5801560000000 1.0
C      1  0.5817220000000  0.5199870000000  0.5188490000000 1.0
C      1  0.5571720000000  0.4800030000000  0.4387160000000 1.0
C      1  0.4755050000000  0.5199920000000  0.4198440000000 1.0
END
