TITL C-1154827-9204-457 0.000883136053988093 125000 -306.130557326572 0 0 60 (C1) n - 1
REM
REM in /home/nfs/bkarasulu/CARBON/AIRSS/Generating-Clusters/AIREBO/Higher-Symm/Only-C60
REM
REM
REM
REM
REM
REM ./C.cell (28575a23ae977d3b5fae324c64b13b57)
REM
REM compiler GCC version 9.2.1 20190827 (Red Hat 9.2.1-1)
REM options -cpp -mtune=generic -march=x86-64 -g -O0 -fpre-include=/usr/include/finclude/math-vector-fortran.h
REM seed -1267563287 478078979 -321985720 1808101165 -1532217698 -1295677446 -1943343150 1883946612 1624230026 -669826473 295637038 -219701547 61036387 1805119711 1253177258 1988311859 379554897 774339861 -2047164576 591822662 1586750021 1749959233 1751225272 -1429246916 1114482880 -1910731895 1187664622 20620602 2002099672 -97580539 760693553 1390370329 1672107400
REM
CELL 1.54180   50.00000   50.00000   50.00000   90.00000   90.00000   90.00000
LATT -1
SFAC C  
C      1  0.5382450000000  0.4772250000000  0.4825980000000 1.0
C      1  0.4901780000000  0.5670120000000  0.5223390000000 1.0
C      1  0.4381870000000  0.4815370000000  0.4728650000000 1.0
C      1  0.5675960000000  0.5090740000000  0.5142120000000 1.0
C      1  0.4580890000000  0.5116680000000  0.5345570000000 1.0
C      1  0.4718290000000  0.5188280000000  0.4614900000000 1.0
C      1  0.4880750000000  0.4672920000000  0.4473620000000 1.0
C      1  0.5398650000000  0.4954510000000  0.4537760000000 1.0
C      1  0.5024500000000  0.4795150000000  0.5411060000000 1.0
C      1  0.4607880000000  0.5356420000000  0.4340720000000 1.0
C      1  0.4493890000000  0.5099610000000  0.4842230000000 1.0
C      1  0.5271910000000  0.4994770000000  0.5058290000000 1.0
C      1  0.4879150000000  0.4923360000000  0.4676010000000 1.0
C      1  0.4775080000000  0.4730160000000  0.4918620000000 1.0
C      1  0.5583580000000  0.5109810000000  0.4754350000000 1.0
C      1  0.5386180000000  0.4629900000000  0.5393950000000 1.0
C      1  0.4602770000000  0.5649240000000  0.5385200000000 1.0
C      1  0.4646370000000  0.4500670000000  0.5456350000000 1.0
C      1  0.5700790000000  0.4839870000000  0.4924640000000 1.0
C      1  0.4598050000000  0.4665910000000  0.4331620000000 1.0
C      1  0.5481040000000  0.5326940000000  0.4993490000000 1.0
C      1  0.5241070000000  0.4977220000000  0.4319240000000 1.0
C      1  0.5602050000000  0.4254290000000  0.4640060000000 1.0
C      1  0.4278610000000  0.4770610000000  0.5143970000000 1.0
C      1  0.4756620000000  0.5103350000000  0.5062330000000 1.0
C      1  0.4526670000000  0.4368930000000  0.5192680000000 1.0
C      1  0.5268180000000  0.5085250000000  0.5589390000000 1.0
C      1  0.4474840000000  0.4577500000000  0.4953140000000 1.0
C      1  0.5189230000000  0.5383320000000  0.5158830000000 1.0
C      1  0.5245560000000  0.4764250000000  0.5669280000000 1.0
C      1  0.5091430000000  0.4630440000000  0.4843750000000 1.0
C      1  0.4814090000000  0.5589030000000  0.4727770000000 1.0
C      1  0.4371270000000  0.5032320000000  0.5135750000000 1.0
C      1  0.5556740000000  0.4767840000000  0.5222870000000 1.0
C      1  0.5554520000000  0.5429540000000  0.5369550000000 1.0
C      1  0.4993470000000  0.4983310000000  0.5761860000000 1.0
C      1  0.5121590000000  0.5230360000000  0.4260720000000 1.0
C      1  0.4375570000000  0.4745650000000  0.4469230000000 1.0
C      1  0.5033580000000  0.4330280000000  0.4975210000000 1.0
C      1  0.5387690000000  0.5637690000000  0.5255600000000 1.0
C      1  0.5298880000000  0.5297800000000  0.4715520000000 1.0
C      1  0.4601740000000  0.5356940000000  0.5560780000000 1.0
C      1  0.4935060000000  0.5466190000000  0.4960830000000 1.0
C      1  0.5420940000000  0.5121090000000  0.5347570000000 1.0
C      1  0.5506050000000  0.4476450000000  0.4721010000000 1.0
C      1  0.4589420000000  0.4361390000000  0.4723090000000 1.0
C      1  0.4931060000000  0.5407380000000  0.4465190000000 1.0
C      1  0.5094760000000  0.4742570000000  0.4261060000000 1.0
C      1  0.4874950000000  0.4421060000000  0.4685800000000 1.0
C      1  0.5122350000000  0.4512690000000  0.5249900000000 1.0
C      1  0.4675280000000  0.5036510000000  0.5654490000000 1.0
C      1  0.4851370000000  0.4319480000000  0.5254230000000 1.0
C      1  0.4990630000000  0.5265320000000  0.5566650000000 1.0
C      1  0.4746850000000  0.4746500000000  0.5530960000000 1.0
C      1  0.5170970000000  0.5773130000000  0.5082790000000 1.0
C      1  0.4884000000000  0.5545280000000  0.5539180000000 1.0
C      1  0.5029080000000  0.5104420000000  0.5269590000000 1.0
C      1  0.5192340000000  0.5763580000000  0.4798550000000 1.0
C      1  0.5195000000000  0.5565490000000  0.4610090000000 1.0
C      1  0.5034650000000  0.5152900000000  0.4872970000000 1.0
END
