TITL C-1154827-9204-409 0.00294181604484389 125000 -345.906658073046 0 0 60 (C1) n - 1
REM
REM in /home/nfs/bkarasulu/CARBON/AIRSS/Generating-Clusters/AIREBO/Higher-Symm/Only-C60
REM
REM
REM
REM
REM
REM ./C.cell (28575a23ae977d3b5fae324c64b13b57)
REM
REM compiler GCC version 9.2.1 20190827 (Red Hat 9.2.1-1)
REM options -cpp -mtune=generic -march=x86-64 -g -O0 -fpre-include=/usr/include/finclude/math-vector-fortran.h
REM seed -1054231221 1544650692 -78218535 492992814 -1847819515 34675597 -2091169566 1741495901 581107781 -545204368 460485028 1953397933 -658167160 706927934 -61302234 1303118708 -625111635 649771680 -1854355938 -1313178743 -1891581517 -726755016 1087736840 1626300470 -63533371 1403495229 -1093764263 -2078609328 1347777106 -857274332 317128209 -1087740060 183923060
REM
CELL 1.54180   50.00000   50.00000   50.00000   90.00000   90.00000   90.00000
LATT -1
SFAC C  
C      1  0.5398570000000  0.4762750000000  0.4696030000000 1.0
C      1  0.4806610000000  0.5471060000000  0.4823100000000 1.0
C      1  0.4785330000000  0.4748820000000  0.5287230000000 1.0
C      1  0.4608800000000  0.5284390000000  0.4702730000000 1.0
C      1  0.4559900000000  0.4934810000000  0.5132790000000 1.0
C      1  0.5382630000000  0.5160210000000  0.5078090000000 1.0
C      1  0.5236970000000  0.4603910000000  0.4895020000000 1.0
C      1  0.5178070000000  0.5334940000000  0.5200860000000 1.0
C      1  0.4796350000000  0.4494360000000  0.5116280000000 1.0
C      1  0.5023250000000  0.5213970000000  0.5445440000000 1.0
C      1  0.5336160000000  0.4694040000000  0.4415910000000 1.0
C      1  0.4610950000000  0.5281060000000  0.4406020000000 1.0
C      1  0.5493060000000  0.4902990000000  0.5227570000000 1.0
C      1  0.4851720000000  0.5405320000000  0.5139520000000 1.0
C      1  0.4773810000000  0.4761050000000  0.4684310000000 1.0
C      1  0.4640950000000  0.5241670000000  0.5254730000000 1.0
C      1  0.4595680000000  0.4962280000000  0.4811040000000 1.0
C      1  0.5406310000000  0.5096200000000  0.4752100000000 1.0
C      1  0.5298860000000  0.4678710000000  0.5223250000000 1.0
C      1  0.5101060000000  0.5475560000000  0.4702280000000 1.0
C      1  0.4930590000000  0.4611570000000  0.4859700000000 1.0
C      1  0.5224250000000  0.5263140000000  0.4581640000000 1.0
C      1  0.5077910000000  0.4761370000000  0.5413430000000 1.0
C      1  0.4740970000000  0.5025800000000  0.5474510000000 1.0
C      1  0.5329280000000  0.4282320000000  0.4921110000000 1.0
C      1  0.4883740000000  0.5245860000000  0.4242100000000 1.0
C      1  0.4257600000000  0.4888320000000  0.5201270000000 1.0
C      1  0.4812300000000  0.5813400000000  0.4855720000000 1.0
C      1  0.4801210000000  0.4159740000000  0.5059650000000 1.0
C      1  0.5219470000000  0.5644560000000  0.5129820000000 1.0
C      1  0.5043540000000  0.4686770000000  0.4290850000000 1.0
C      1  0.5037860000000  0.5259000000000  0.5782130000000 1.0
C      1  0.4795650000000  0.4729750000000  0.5852400000000 1.0
C      1  0.5884880000000  0.5162220000000  0.5194470000000 1.0
C      1  0.5707650000000  0.4834770000000  0.4737960000000 1.0
C      1  0.4328750000000  0.5252160000000  0.4863450000000 1.0
C      1  0.5265550000000  0.4357310000000  0.5205810000000 1.0
C      1  0.4796080000000  0.5207310000000  0.5906360000000 1.0
C      1  0.4256980000000  0.4969230000000  0.4760040000000 1.0
C      1  0.4826860000000  0.5717690000000  0.5136810000000 1.0
C      1  0.4928330000000  0.4011660000000  0.4856740000000 1.0
C      1  0.5210780000000  0.5698940000000  0.4849620000000 1.0
C      1  0.5045110000000  0.4698490000000  0.5741810000000 1.0
C      1  0.5148800000000  0.5183550000000  0.4325140000000 1.0
C      1  0.4798050000000  0.4771830000000  0.4406530000000 1.0
C      1  0.5739700000000  0.5135620000000  0.4710720000000 1.0
C      1  0.5774620000000  0.4884200000000  0.5202000000000 1.0
C      1  0.4143810000000  0.5141680000000  0.5324510000000 1.0
C      1  0.5001250000000  0.4282920000000  0.5270010000000 1.0
C      1  0.5246170000000  0.4933750000000  0.4227690000000 1.0
C      1  0.4347920000000  0.5273530000000  0.5142740000000 1.0
C      1  0.5053230000000  0.5834310000000  0.5302740000000 1.0
C      1  0.5198150000000  0.4063070000000  0.4803770000000 1.0
C      1  0.5065050000000  0.5950910000000  0.4766600000000 1.0
C      1  0.4678710000000  0.4996390000000  0.4274840000000 1.0
C      1  0.4678450000000  0.4978800000000  0.5773520000000 1.0
C      1  0.5180200000000  0.4987070000000  0.5646450000000 1.0
C      1  0.5841890000000  0.4733060000000  0.4967360000000 1.0
C      1  0.5689440000000  0.5252840000000  0.4986480000000 1.0
C      1  0.4124180000000  0.4807010000000  0.4957210000000 1.0
END
