TITL C-1154829-9094-133 0.000329765677815134 125000 -337.627562949316 0 0 60 (C1) n - 1
REM
REM in /home/nfs/bkarasulu/CARBON/AIRSS/Generating-Clusters/AIREBO/Higher-Symm/Only-C60
REM
REM
REM
REM
REM
REM ./C.cell (28575a23ae977d3b5fae324c64b13b57)
REM
REM compiler GCC version 9.2.1 20190827 (Red Hat 9.2.1-1)
REM options -cpp -mtune=generic -march=x86-64 -g -O0 -fpre-include=/usr/include/finclude/math-vector-fortran.h
REM seed -769947099 -421198792 -343620474 988600861 -1905399720 1512106696 -657830083 -1200042081 -334206911 350826373 -1806727040 221950989 270637533 -2131807258 -924764058 -461748401 385913444 -49866274 1270880297 -1344810748 -93108211 -674803351 -633835197 1590336129 1530083229 -1644248403 -296526929 -419092744 269412641 1283176250 677413345 1844459939 -531492153
REM
CELL 1.54180   50.00000   50.00000   50.00000   90.00000   90.00000   90.00000
LATT -1
SFAC C  
C      1  0.5243940000000  0.4829260000000  0.4076050000000 1.0
C      1  0.4403830000000  0.5314230000000  0.5804980000000 1.0
C      1  0.5471080000000  0.5707590000000  0.5430290000000 1.0
C      1  0.4716710000000  0.4110460000000  0.4742220000000 1.0
C      1  0.5460840000000  0.5503220000000  0.4850590000000 1.0
C      1  0.4529340000000  0.4481130000000  0.5230650000000 1.0
C      1  0.5216790000000  0.5540320000000  0.5045750000000 1.0
C      1  0.4804540000000  0.4437790000000  0.5126120000000 1.0
C      1  0.5099220000000  0.5647830000000  0.4763960000000 1.0
C      1  0.5001110000000  0.4378730000000  0.5351970000000 1.0
C      1  0.4717360000000  0.5707170000000  0.4947920000000 1.0
C      1  0.5333150000000  0.4491520000000  0.4919480000000 1.0
C      1  0.4958240000000  0.5536810000000  0.4538720000000 1.0
C      1  0.5013750000000  0.4539210000000  0.5581840000000 1.0
C      1  0.4902030000000  0.4692300000000  0.4922640000000 1.0
C      1  0.5091590000000  0.5231440000000  0.5113290000000 1.0
C      1  0.4585880000000  0.4665560000000  0.4882850000000 1.0
C      1  0.5406900000000  0.5196020000000  0.5097690000000 1.0
C      1  0.4509560000000  0.5137900000000  0.5639990000000 1.0
C      1  0.5245670000000  0.4993040000000  0.4289880000000 1.0
C      1  0.5038240000000  0.4724360000000  0.5834430000000 1.0
C      1  0.5016520000000  0.5420300000000  0.4295060000000 1.0
C      1  0.4411920000000  0.5165160000000  0.4490670000000 1.0
C      1  0.5591830000000  0.4866790000000  0.5343160000000 1.0
C      1  0.4736750000000  0.5479560000000  0.4778570000000 1.0
C      1  0.5285660000000  0.4418650000000  0.5215920000000 1.0
C      1  0.5261680000000  0.5280080000000  0.4263290000000 1.0
C      1  0.4846510000000  0.4818950000000  0.5576740000000 1.0
C      1  0.4554600000000  0.4838540000000  0.5617940000000 1.0
C      1  0.5507080000000  0.5403370000000  0.4326290000000 1.0
C      1  0.5033820000000  0.5888350000000  0.5339250000000 1.0
C      1  0.5143380000000  0.4360520000000  0.4759700000000 1.0
C      1  0.5232120000000  0.4898100000000  0.4556510000000 1.0
C      1  0.4640570000000  0.5130720000000  0.5360310000000 1.0
C      1  0.4404350000000  0.4781300000000  0.5128920000000 1.0
C      1  0.5540990000000  0.5171150000000  0.4807770000000 1.0
C      1  0.4451180000000  0.5075180000000  0.5158140000000 1.0
C      1  0.5465120000000  0.4902700000000  0.4709630000000 1.0
C      1  0.5293600000000  0.4846490000000  0.5856640000000 1.0
C      1  0.4798080000000  0.5314160000000  0.4150420000000 1.0
C      1  0.4463680000000  0.5377640000000  0.4735030000000 1.0
C      1  0.5488570000000  0.4274210000000  0.5335340000000 1.0
C      1  0.4719120000000  0.5084080000000  0.4608470000000 1.0
C      1  0.5267980000000  0.4918810000000  0.5339100000000 1.0
C      1  0.5103690000000  0.4704690000000  0.5181460000000 1.0
C      1  0.4919700000000  0.5209420000000  0.4854620000000 1.0
C      1  0.5522800000000  0.4693350000000  0.4883320000000 1.0
C      1  0.4316020000000  0.5236780000000  0.4986760000000 1.0
C      1  0.5675150000000  0.5674030000000  0.5591320000000 1.0
C      1  0.4546900000000  0.3949020000000  0.4624810000000 1.0
C      1  0.4883450000000  0.4299420000000  0.4850490000000 1.0
C      1  0.5244040000000  0.5723750000000  0.5275690000000 1.0
C      1  0.5690280000000  0.4754700000000  0.5107820000000 1.0
C      1  0.4163390000000  0.5166760000000  0.4712630000000 1.0
C      1  0.5603690000000  0.5404640000000  0.4584770000000 1.0
C      1  0.4404300000000  0.4682530000000  0.5446060000000 1.0
C      1  0.4975200000000  0.4908550000000  0.4713110000000 1.0
C      1  0.4962330000000  0.5019270000000  0.5345430000000 1.0
C      1  0.5434980000000  0.4860030000000  0.5618630000000 1.0
C      1  0.4649240000000  0.5132370000000  0.4278900000000 1.0
END
