TITL C-1154808-8168-68 0.000225208702681516 125000 -333.254517042238 0 0 60 (C1) n - 1
REM
REM in /home/nfs/bkarasulu/CARBON/AIRSS/Generating-Clusters/AIREBO/Higher-Symm/Only-C60
REM
REM
REM
REM
REM
REM ./C.cell (28575a23ae977d3b5fae324c64b13b57)
REM
REM compiler GCC version 9.2.1 20190827 (Red Hat 9.2.1-1)
REM options -cpp -mtune=generic -march=x86-64 -g -O0 -fpre-include=/usr/include/finclude/math-vector-fortran.h
REM seed -582756919 2116209156 -1136923302 1216902804 2034534442 -981499248 -1893949045 -1643797209 -298124048 -1506787911 325959821 -650037243 -937853812 2073231072 -651448432 -780040278 830378222 508993197 -1883908769 -855923724 1727067910 1577999628 -498819618 334700133 -817932851 767518578 -284071171 -214549836 458143747 698387480 2083865405 1198312167 1425295770
REM
CELL 1.54180   50.00000   50.00000   50.00000   90.00000   90.00000   90.00000
LATT -1
SFAC C  
C      1  0.4514260000000  0.5029960000000  0.5221730000000 1.0
C      1  0.5148870000000  0.5092990000000  0.4405080000000 1.0
C      1  0.5409060000000  0.5062500000000  0.5334230000000 1.0
C      1  0.5376320000000  0.4432670000000  0.4244070000000 1.0
C      1  0.5181510000000  0.4408500000000  0.5572110000000 1.0
C      1  0.4376440000000  0.4332990000000  0.5025480000000 1.0
C      1  0.4859320000000  0.5429870000000  0.5444260000000 1.0
C      1  0.4578240000000  0.5436850000000  0.4769060000000 1.0
C      1  0.5476430000000  0.5668640000000  0.4754610000000 1.0
C      1  0.4301420000000  0.5015630000000  0.4796310000000 1.0
C      1  0.5600140000000  0.4952390000000  0.4500380000000 1.0
C      1  0.5223140000000  0.5062310000000  0.5786930000000 1.0
C      1  0.5164720000000  0.5661100000000  0.5332900000000 1.0
C      1  0.4842110000000  0.5670020000000  0.5000150000000 1.0
C      1  0.5103010000000  0.5608580000000  0.4867960000000 1.0
C      1  0.4640910000000  0.4716630000000  0.5259390000000 1.0
C      1  0.5054640000000  0.4805720000000  0.4468020000000 1.0
C      1  0.5351140000000  0.4752880000000  0.5205790000000 1.0
C      1  0.4973190000000  0.5238590000000  0.5703480000000 1.0
C      1  0.4571400000000  0.5144590000000  0.4650980000000 1.0
C      1  0.5485180000000  0.5186520000000  0.4696640000000 1.0
C      1  0.5684750000000  0.4732830000000  0.5268760000000 1.0
C      1  0.4411420000000  0.4767550000000  0.5505260000000 1.0
C      1  0.4856400000000  0.4693070000000  0.4227970000000 1.0
C      1  0.5075220000000  0.4697700000000  0.4759170000000 1.0
C      1  0.5020340000000  0.4832430000000  0.5211000000000 1.0
C      1  0.4819930000000  0.4722400000000  0.4964290000000 1.0
C      1  0.4829280000000  0.5603190000000  0.4666330000000 1.0
C      1  0.5359640000000  0.5645010000000  0.5059290000000 1.0
C      1  0.4859950000000  0.5714330000000  0.5271800000000 1.0
C      1  0.5362000000000  0.4713550000000  0.4867620000000 1.0
C      1  0.4881390000000  0.4780630000000  0.5491180000000 1.0
C      1  0.4592470000000  0.4669520000000  0.4752110000000 1.0
C      1  0.5186010000000  0.5370260000000  0.5478260000000 1.0
C      1  0.4528620000000  0.5427270000000  0.5043950000000 1.0
C      1  0.5363960000000  0.5456470000000  0.4606110000000 1.0
C      1  0.5317240000000  0.4447610000000  0.5337980000000 1.0
C      1  0.4531300000000  0.4402520000000  0.5241950000000 1.0
C      1  0.5132890000000  0.4556600000000  0.4250280000000 1.0
C      1  0.4561860000000  0.4853100000000  0.4541990000000 1.0
C      1  0.5577940000000  0.4965690000000  0.4898680000000 1.0
C      1  0.4759620000000  0.5018810000000  0.5651600000000 1.0
C      1  0.4730730000000  0.5254070000000  0.5232810000000 1.0
C      1  0.5056550000000  0.5377830000000  0.4550070000000 1.0
C      1  0.5322950000000  0.5328330000000  0.5177640000000 1.0
C      1  0.4946920000000  0.5100550000000  0.5070580000000 1.0
C      1  0.4889020000000  0.5187670000000  0.4764530000000 1.0
C      1  0.5207650000000  0.5222840000000  0.4889760000000 1.0
C      1  0.5048860000000  0.4626280000000  0.5684550000000 1.0
C      1  0.4351890000000  0.4517940000000  0.4819080000000 1.0
C      1  0.5565850000000  0.4470540000000  0.4441090000000 1.0
C      1  0.4203820000000  0.4759350000000  0.4723070000000 1.0
C      1  0.5562210000000  0.4695730000000  0.4606720000000 1.0
C      1  0.5159740000000  0.4801180000000  0.5877590000000 1.0
C      1  0.5778830000000  0.4906530000000  0.5069180000000 1.0
C      1  0.4495420000000  0.4962100000000  0.5685860000000 1.0
C      1  0.4596110000000  0.4761550000000  0.4281030000000 1.0
C      1  0.4295530000000  0.5075290000000  0.5070530000000 1.0
C      1  0.5408790000000  0.5087680000000  0.4316880000000 1.0
C      1  0.5435460000000  0.5084070000000  0.5603890000000 1.0
END
