TITL C-1154825-9328-89 0.000383373389376375 125000 -336.094661622899 0 0 60 (C1) n - 1
REM
REM in /home/nfs/bkarasulu/CARBON/AIRSS/Generating-Clusters/AIREBO/Higher-Symm/Only-C60
REM
REM
REM
REM
REM
REM ./C.cell (28575a23ae977d3b5fae324c64b13b57)
REM
REM compiler GCC version 9.2.1 20190827 (Red Hat 9.2.1-1)
REM options -cpp -mtune=generic -march=x86-64 -g -O0 -fpre-include=/usr/include/finclude/math-vector-fortran.h
REM seed 471647495 -32164532 -2005153507 -475548912 1803973081 -766588696 -812364011 -999678096 1942899351 828425718 -1835060610 455960023 2022809653 -1550172107 -1160679705 -1593458575 1803427108 880952921 -1600104523 1704411698 -754130562 -41811139 1809639064 -1066137211 -320446990 1874345776 1163001840 -1947873189 1342412204 -262442142 -413995252 -575828220 1166398419
REM
CELL 1.54180   50.00000   50.00000   50.00000   90.00000   90.00000   90.00000
LATT -1
SFAC C  
C      1  0.5756730000000  0.5376240000000  0.5109370000000 1.0
C      1  0.5060180000000  0.5826350000000  0.5178920000000 1.0
C      1  0.4332150000000  0.5459340000000  0.5129660000000 1.0
C      1  0.4255280000000  0.4648030000000  0.5105030000000 1.0
C      1  0.4939580000000  0.4171260000000  0.5187570000000 1.0
C      1  0.5655210000000  0.4537080000000  0.5109100000000 1.0
C      1  0.5295520000000  0.4479240000000  0.5438670000000 1.0
C      1  0.5542300000000  0.5089130000000  0.5442650000000 1.0
C      1  0.5344730000000  0.5568760000000  0.5509630000000 1.0
C      1  0.4730080000000  0.5449190000000  0.5449610000000 1.0
C      1  0.4400520000000  0.4971920000000  0.5437480000000 1.0
C      1  0.4644290000000  0.4487110000000  0.5511340000000 1.0
C      1  0.5073510000000  0.5583500000000  0.4957140000000 1.0
C      1  0.4569770000000  0.5321940000000  0.4933240000000 1.0
C      1  0.4490830000000  0.4749850000000  0.4895480000000 1.0
C      1  0.4930600000000  0.4406520000000  0.4961150000000 1.0
C      1  0.5432510000000  0.4669710000000  0.4904280000000 1.0
C      1  0.5523860000000  0.5272150000000  0.4896320000000 1.0
C      1  0.4984690000000  0.5254480000000  0.5370570000000 1.0
C      1  0.4718750000000  0.5056670000000  0.5384880000000 1.0
C      1  0.4615290000000  0.4761080000000  0.5519220000000 1.0
C      1  0.5134100000000  0.4684270000000  0.5365360000000 1.0
C      1  0.5258550000000  0.4963440000000  0.5365220000000 1.0
C      1  0.5263550000000  0.5271490000000  0.5510870000000 1.0
C      1  0.4738560000000  0.5550700000000  0.4432580000000 1.0
C      1  0.4400950000000  0.5009910000000  0.4404610000000 1.0
C      1  0.4697080000000  0.4517920000000  0.4544990000000 1.0
C      1  0.5245520000000  0.4439730000000  0.4425400000000 1.0
C      1  0.5617850000000  0.4982340000000  0.4413830000000 1.0
C      1  0.5308210000000  0.5482820000000  0.4536760000000 1.0
C      1  0.5153880000000  0.4717240000000  0.4570360000000 1.0
C      1  0.5319250000000  0.4957670000000  0.4541130000000 1.0
C      1  0.5146470000000  0.5219940000000  0.4578530000000 1.0
C      1  0.4850850000000  0.5275880000000  0.4566480000000 1.0
C      1  0.4687440000000  0.5032790000000  0.4558940000000 1.0
C      1  0.4859560000000  0.4775650000000  0.4598860000000 1.0
C      1  0.4591950000000  0.5569090000000  0.5246880000000 1.0
C      1  0.4250490000000  0.4930850000000  0.5208950000000 1.0
C      1  0.4683250000000  0.4336010000000  0.5275130000000 1.0
C      1  0.5438940000000  0.4362760000000  0.5225090000000 1.0
C      1  0.5715590000000  0.5096960000000  0.5222770000000 1.0
C      1  0.5326500000000  0.5699050000000  0.5270690000000 1.0
C      1  0.4780640000000  0.4868840000000  0.4912680000000 1.0
C      1  0.4974370000000  0.4686670000000  0.5067740000000 1.0
C      1  0.5242640000000  0.4878050000000  0.5036010000000 1.0
C      1  0.5239330000000  0.5139180000000  0.4887500000000 1.0
C      1  0.5044050000000  0.5297280000000  0.5053030000000 1.0
C      1  0.4769300000000  0.5132080000000  0.5058940000000 1.0
C      1  0.5228980000000  0.4262310000000  0.5027080000000 1.0
C      1  0.5681970000000  0.4867020000000  0.5024630000000 1.0
C      1  0.5492740000000  0.5580200000000  0.5043560000000 1.0
C      1  0.4771820000000  0.5700220000000  0.5045440000000 1.0
C      1  0.4283430000000  0.5148290000000  0.5001490000000 1.0
C      1  0.4516650000000  0.4440480000000  0.5039990000000 1.0
C      1  0.4392540000000  0.5015100000000  0.4727290000000 1.0
C      1  0.4681430000000  0.4367440000000  0.4772920000000 1.0
C      1  0.5265710000000  0.4444290000000  0.4746970000000 1.0
C      1  0.5594320000000  0.4993660000000  0.4735730000000 1.0
C      1  0.5323030000000  0.5624730000000  0.4770020000000 1.0
C      1  0.4732100000000  0.5538110000000  0.4754240000000 1.0
END
