TITL C-1154802-8274-492 0.000494259594455366 125000 -305.911742852749 0 0 60 (C1) n - 1
REM
REM in /home/nfs/bkarasulu/CARBON/AIRSS/Generating-Clusters/AIREBO/Higher-Symm/Only-C60
REM
REM
REM
REM
REM
REM ./C.cell (28575a23ae977d3b5fae324c64b13b57)
REM
REM compiler GCC version 9.2.1 20190827 (Red Hat 9.2.1-1)
REM options -cpp -mtune=generic -march=x86-64 -g -O0 -fpre-include=/usr/include/finclude/math-vector-fortran.h
REM seed 876507463 1279176686 1188416421 1693590373 163266358 -2062398832 -1219347977 -299211623 -202205233 1024402982 1450889901 726690657 2030699160 -1994381286 1237833372 1421484001 1832370965 -1710320601 -460334329 -229413028 -1705017872 1903282613 -1358250184 652838624 -884299105 969960304 742769196 1681046600 1862166881 -633886003 1627152378 1170717644 -480739446
REM
CELL 1.54180   50.00000   50.00000   50.00000   90.00000   90.00000   90.00000
LATT -1
SFAC C  
C      1  0.4515360000000  0.4774050000000  0.5105320000000 1.0
C      1  0.5515010000000  0.4749940000000  0.4921360000000 1.0
C      1  0.4492760000000  0.5248650000000  0.4935400000000 1.0
C      1  0.5507740000000  0.5246370000000  0.5068890000000 1.0
C      1  0.5645520000000  0.5347970000000  0.4792360000000 1.0
C      1  0.4354960000000  0.5360970000000  0.5217100000000 1.0
C      1  0.5641500000000  0.4650330000000  0.5204320000000 1.0
C      1  0.4362950000000  0.4671920000000  0.4820890000000 1.0
C      1  0.4827380000000  0.4639210000000  0.5116630000000 1.0
C      1  0.5192790000000  0.4669250000000  0.4848310000000 1.0
C      1  0.4817360000000  0.5319680000000  0.4862900000000 1.0
C      1  0.5180300000000  0.5315190000000  0.5129870000000 1.0
C      1  0.4496740000000  0.4762460000000  0.4524930000000 1.0
C      1  0.5486510000000  0.4758260000000  0.5481170000000 1.0
C      1  0.4443100000000  0.5246390000000  0.5524850000000 1.0
C      1  0.5519230000000  0.5233860000000  0.4504560000000 1.0
C      1  0.5227040000000  0.5481300000000  0.5426180000000 1.0
C      1  0.4764460000000  0.5488990000000  0.4571450000000 1.0
C      1  0.5255750000000  0.4502390000000  0.4557310000000 1.0
C      1  0.4774170000000  0.4457160000000  0.5403290000000 1.0
C      1  0.5692410000000  0.5593030000000  0.5023930000000 1.0
C      1  0.4302890000000  0.5593780000000  0.4975340000000 1.0
C      1  0.5710260000000  0.4409960000000  0.4973400000000 1.0
C      1  0.4293350000000  0.4448450000000  0.5052290000000 1.0
C      1  0.5149270000000  0.4408250000000  0.5062200000000 1.0
C      1  0.4891040000000  0.4386180000000  0.4898420000000 1.0
C      1  0.5129560000000  0.5577870000000  0.4919670000000 1.0
C      1  0.4867490000000  0.5578400000000  0.5077970000000 1.0
C      1  0.5094800000000  0.4436260000000  0.5334070000000 1.0
C      1  0.4941370000000  0.4394940000000  0.4626590000000 1.0
C      1  0.5079920000000  0.5584100000000  0.4647770000000 1.0
C      1  0.4916010000000  0.5583590000000  0.5349610000000 1.0
C      1  0.4728910000000  0.4820400000000  0.4369270000000 1.0
C      1  0.5252470000000  0.4824350000000  0.5625530000000 1.0
C      1  0.4682720000000  0.5208810000000  0.5684500000000 1.0
C      1  0.5283180000000  0.5177960000000  0.4358100000000 1.0
C      1  0.4869690000000  0.5182600000000  0.5169650000000 1.0
C      1  0.5127740000000  0.5188790000000  0.4816300000000 1.0
C      1  0.4877470000000  0.4792230000000  0.4815100000000 1.0
C      1  0.5127410000000  0.4793880000000  0.5157880000000 1.0
C      1  0.4733380000000  0.5025180000000  0.4711390000000 1.0
C      1  0.5261020000000  0.5018770000000  0.5278180000000 1.0
C      1  0.4717780000000  0.5032610000000  0.5329870000000 1.0
C      1  0.5272310000000  0.4967820000000  0.4696600000000 1.0
C      1  0.5493870000000  0.5528290000000  0.5253910000000 1.0
C      1  0.4499400000000  0.5530880000000  0.4747640000000 1.0
C      1  0.5519010000000  0.4468730000000  0.4736150000000 1.0
C      1  0.4494210000000  0.4484560000000  0.5273140000000 1.0
C      1  0.4979280000000  0.4670160000000  0.4449800000000 1.0
C      1  0.4993940000000  0.4651800000000  0.5576980000000 1.0
C      1  0.4950280000000  0.5326370000000  0.5553490000000 1.0
C      1  0.5037520000000  0.5324300000000  0.4451110000000 1.0
C      1  0.5593110000000  0.4985510000000  0.5251770000000 1.0
C      1  0.4401520000000  0.5000780000000  0.4750870000000 1.0
C      1  0.5601790000000  0.5012340000000  0.4748970000000 1.0
C      1  0.4402710000000  0.5026920000000  0.5268260000000 1.0
C      1  0.4794460000000  0.5121610000000  0.4404630000000 1.0
C      1  0.5184400000000  0.5116060000000  0.5581320000000 1.0
C      1  0.4812010000000  0.4921950000000  0.5597120000000 1.0
C      1  0.5219410000000  0.4877190000000  0.4384080000000 1.0
END
