TITL C-1154803-8277-443 0.000146009229024801 125000 -318.685703389418 0 0 60 (C1) n - 1
REM
REM in /home/nfs/bkarasulu/CARBON/AIRSS/Generating-Clusters/AIREBO/Higher-Symm/Only-C60
REM
REM
REM
REM
REM
REM ./C.cell (28575a23ae977d3b5fae324c64b13b57)
REM
REM compiler GCC version 9.2.1 20190827 (Red Hat 9.2.1-1)
REM options -cpp -mtune=generic -march=x86-64 -g -O0 -fpre-include=/usr/include/finclude/math-vector-fortran.h
REM seed -841725310 -1709050495 -670245731 1328210073 252476148 1202377259 -366084473 1730824430 1091278412 375420204 18386964 -1335067428 -306109103 -562837908 -24342161 -1213239978 1645784605 1507186145 815488731 -19194553 -1617764965 -223031477 -1263711398 -1318854131 -126225312 2024330639 -2143010949 1040706327 -909919462 -918829348 -743687499 1214018317 1227175703
REM
CELL 1.54180   50.00000   50.00000   50.00000   90.00000   90.00000   90.00000
LATT -1
SFAC C  
C      1  0.5222740000000  0.5014230000000  0.4941670000000 1.0
C      1  0.5021900000000  0.4786310000000  0.5081850000000 1.0
C      1  0.4749110000000  0.4933810000000  0.4942320000000 1.0
C      1  0.4950740000000  0.5177430000000  0.5044160000000 1.0
C      1  0.4344420000000  0.5217410000000  0.5625040000000 1.0
C      1  0.5159890000000  0.5649050000000  0.4358080000000 1.0
C      1  0.5544860000000  0.4903320000000  0.5670970000000 1.0
C      1  0.4913280000000  0.4419510000000  0.4340090000000 1.0
C      1  0.5011850000000  0.5756220000000  0.4568780000000 1.0
C      1  0.5672020000000  0.5095740000000  0.5516820000000 1.0
C      1  0.5118900000000  0.4319780000000  0.4494810000000 1.0
C      1  0.4303860000000  0.5062500000000  0.5393190000000 1.0
C      1  0.5673150000000  0.5200420000000  0.4388250000000 1.0
C      1  0.5217970000000  0.4262970000000  0.5487130000000 1.0
C      1  0.4243860000000  0.4640730000000  0.4534410000000 1.0
C      1  0.4827650000000  0.5708160000000  0.5556890000000 1.0
C      1  0.4589120000000  0.5048840000000  0.5208600000000 1.0
C      1  0.5048930000000  0.5343130000000  0.4796230000000 1.0
C      1  0.5380570000000  0.4923270000000  0.5191580000000 1.0
C      1  0.4949790000000  0.4605680000000  0.4835370000000 1.0
C      1  0.5630350000000  0.4621820000000  0.4690440000000 1.0
C      1  0.4543090000000  0.4352970000000  0.5330760000000 1.0
C      1  0.4415190000000  0.5596960000000  0.4744400000000 1.0
C      1  0.5426760000000  0.5618030000000  0.5250810000000 1.0
C      1  0.5283200000000  0.4988890000000  0.4655540000000 1.0
C      1  0.5044620000000  0.4812720000000  0.5377960000000 1.0
C      1  0.4769530000000  0.4903010000000  0.4639090000000 1.0
C      1  0.4989170000000  0.5275920000000  0.5321090000000 1.0
C      1  0.4659460000000  0.4528110000000  0.4832250000000 1.0
C      1  0.4630240000000  0.5375500000000  0.5177950000000 1.0
C      1  0.5365690000000  0.5355520000000  0.4791090000000 1.0
C      1  0.5423070000000  0.4619600000000  0.5186570000000 1.0
C      1  0.4906470000000  0.5607800000000  0.4770320000000 1.0
C      1  0.5577380000000  0.5150250000000  0.5266310000000 1.0
C      1  0.5184640000000  0.4428200000000  0.4735640000000 1.0
C      1  0.4359710000000  0.4787510000000  0.5201140000000 1.0
C      1  0.5261970000000  0.4751470000000  0.5633690000000 1.0
C      1  0.4738530000000  0.4683390000000  0.4381250000000 1.0
C      1  0.4619970000000  0.5270290000000  0.5683780000000 1.0
C      1  0.5209590000000  0.5373470000000  0.4310640000000 1.0
C      1  0.5416700000000  0.5230940000000  0.4489890000000 1.0
C      1  0.5292770000000  0.4507340000000  0.5442020000000 1.0
C      1  0.4498560000000  0.4619450000000  0.4573020000000 1.0
C      1  0.4769000000000  0.5448200000000  0.5479750000000 1.0
C      1  0.5222870000000  0.5095610000000  0.5439670000000 1.0
C      1  0.5077370000000  0.4774500000000  0.4568230000000 1.0
C      1  0.4763540000000  0.4894540000000  0.5456790000000 1.0
C      1  0.4878250000000  0.5187680000000  0.4570520000000 1.0
C      1  0.4774240000000  0.5034290000000  0.5709980000000 1.0
C      1  0.4979860000000  0.5209770000000  0.4297610000000 1.0
C      1  0.5062240000000  0.5007490000000  0.5726100000000 1.0
C      1  0.4956400000000  0.4917530000000  0.4286870000000 1.0
C      1  0.5610080000000  0.4344250000000  0.5117000000000 1.0
C      1  0.4357640000000  0.4365470000000  0.4847790000000 1.0
C      1  0.4606810000000  0.5708300000000  0.5224040000000 1.0
C      1  0.5672020000000  0.5477500000000  0.4817500000000 1.0
C      1  0.5511780000000  0.5396460000000  0.5100270000000 1.0
C      1  0.5447390000000  0.4498280000000  0.4866390000000 1.0
C      1  0.4478930000000  0.4526140000000  0.5120420000000 1.0
C      1  0.4640310000000  0.5586320000000  0.4909150000000 1.0
END
