TITL C-1154829-9094-210 -0.000216973075397551 125000 -348.476066530853 0 0 60 (C1) n - 1
REM
REM in /home/nfs/bkarasulu/CARBON/AIRSS/Generating-Clusters/AIREBO/Higher-Symm/Only-C60
REM
REM
REM
REM
REM
REM ./C.cell (28575a23ae977d3b5fae324c64b13b57)
REM
REM compiler GCC version 9.2.1 20190827 (Red Hat 9.2.1-1)
REM options -cpp -mtune=generic -march=x86-64 -g -O0 -fpre-include=/usr/include/finclude/math-vector-fortran.h
REM seed -1241705692 -1754809221 -1324622150 2097737105 373667317 -1677616644 -488075888 -1539235567 1354153 -1034259209 -1909849566 -387544156 1172899661 -802364086 2122423491 911628909 1510789193 1578760597 1110229379 499314522 1827825871 -1156657244 -659030283 683240794 802680818 1889940488 -1542058770 -901494796 -319483663 1772442759 1794108805 -1340305358 -474311246
REM
CELL 1.54180   50.00000   50.00000   50.00000   90.00000   90.00000   90.00000
LATT -1
SFAC C  
C      1  0.4849780000000  0.5062320000000  0.5780330000000 1.0
C      1  0.5795660000000  0.5096300000000  0.5110980000000 1.0
C      1  0.5131240000000  0.5073980000000  0.4228830000000 1.0
C      1  0.4208460000000  0.5099110000000  0.4850990000000 1.0
C      1  0.5127290000000  0.5063610000000  0.5781170000000 1.0
C      1  0.4207820000000  0.5105400000000  0.5126750000000 1.0
C      1  0.4856760000000  0.5060830000000  0.4249930000000 1.0
C      1  0.5754270000000  0.5076980000000  0.4840380000000 1.0
C      1  0.5134830000000  0.5454770000000  0.4671410000000 1.0
C      1  0.4664230000000  0.5448900000000  0.4851520000000 1.0
C      1  0.4861890000000  0.5432580000000  0.5314030000000 1.0
C      1  0.5340350000000  0.5461670000000  0.5145610000000 1.0
C      1  0.4863570000000  0.5479760000000  0.4655870000000 1.0
C      1  0.5334670000000  0.5484920000000  0.4870210000000 1.0
C      1  0.5135590000000  0.5472990000000  0.5336400000000 1.0
C      1  0.4663470000000  0.5451690000000  0.5121740000000 1.0
C      1  0.4727520000000  0.4819870000000  0.5781660000000 1.0
C      1  0.5806290000000  0.4858370000000  0.5250530000000 1.0
C      1  0.5262380000000  0.4832410000000  0.4232280000000 1.0
C      1  0.4212950000000  0.4850300000000  0.4734700000000 1.0
C      1  0.5272030000000  0.4823450000000  0.5730690000000 1.0
C      1  0.4226550000000  0.4864340000000  0.5256950000000 1.0
C      1  0.4733670000000  0.4808880000000  0.4281190000000 1.0
C      1  0.5729460000000  0.4822940000000  0.4721840000000 1.0
C      1  0.4883520000000  0.4441250000000  0.4656830000000 1.0
C      1  0.4692200000000  0.4522700000000  0.5142600000000 1.0
C      1  0.5162360000000  0.4419450000000  0.5379610000000 1.0
C      1  0.5376560000000  0.4437130000000  0.4890050000000 1.0
C      1  0.5153960000000  0.4486020000000  0.4683300000000 1.0
C      1  0.5365460000000  0.4478880000000  0.5162620000000 1.0
C      1  0.4889920000000  0.4439230000000  0.5352730000000 1.0
C      1  0.4679390000000  0.4509290000000  0.4872820000000 1.0
C      1  0.4732870000000  0.5265740000000  0.5564300000000 1.0
C      1  0.5610870000000  0.5307310000000  0.5247060000000 1.0
C      1  0.5257460000000  0.5275280000000  0.4437760000000 1.0
C      1  0.4421530000000  0.5288800000000  0.4721280000000 1.0
C      1  0.5217230000000  0.5317480000000  0.5606800000000 1.0
C      1  0.4407390000000  0.5313080000000  0.5245710000000 1.0
C      1  0.4742690000000  0.5299680000000  0.4414260000000 1.0
C      1  0.5574990000000  0.5308550000000  0.4734370000000 1.0
C      1  0.5327770000000  0.4639900000000  0.5524840000000 1.0
C      1  0.5519860000000  0.4640180000000  0.4701370000000 1.0
C      1  0.4697160000000  0.4633230000000  0.4495610000000 1.0
C      1  0.4523570000000  0.4763600000000  0.5273600000000 1.0
C      1  0.4745580000000  0.4684630000000  0.5501760000000 1.0
C      1  0.4503920000000  0.4738470000000  0.4730580000000 1.0
C      1  0.5269430000000  0.4736900000000  0.4525620000000 1.0
C      1  0.5522160000000  0.4729040000000  0.5277420000000 1.0
C      1  0.5356010000000  0.5087250000000  0.4871330000000 1.0
C      1  0.4857760000000  0.5081800000000  0.4648830000000 1.0
C      1  0.4604440000000  0.5056900000000  0.5138900000000 1.0
C      1  0.5129960000000  0.5077090000000  0.5382620000000 1.0
C      1  0.4607770000000  0.5026140000000  0.4830920000000 1.0
C      1  0.5163400000000  0.5015750000000  0.4636440000000 1.0
C      1  0.5400710000000  0.5024970000000  0.5171150000000 1.0
C      1  0.4830420000000  0.4993750000000  0.5384980000000 1.0
C      1  0.5573460000000  0.5344240000000  0.4411470000000 1.0
C      1  0.4421280000000  0.5342320000000  0.4401950000000 1.0
C      1  0.4418950000000  0.5344790000000  0.5566840000000 1.0
C      1  0.5457280000000  0.5141290000000  0.5485700000000 1.0
END
