TITL C-1154804-8633-555 0.00182358372828541 125000 -327.092122373371 0 0 60 (C1) n - 1
REM
REM in /home/nfs/bkarasulu/CARBON/AIRSS/Generating-Clusters/AIREBO/Higher-Symm/Only-C60
REM
REM
REM
REM
REM
REM ./C.cell (28575a23ae977d3b5fae324c64b13b57)
REM
REM compiler GCC version 9.2.1 20190827 (Red Hat 9.2.1-1)
REM options -cpp -mtune=generic -march=x86-64 -g -O0 -fpre-include=/usr/include/finclude/math-vector-fortran.h
REM seed 1333070308 806356991 -2046788688 79557049 -1100226696 -974553516 -1294579609 2130581924 -601233391 -1630151037 -1391491553 1095782459 -572846350 -1203126541 -1158220194 -1041005395 769347243 1562573806 694821903 -167894522 228016794 -1943573825 605878057 -893722346 1307340905 523206266 -1661794369 -909743438 1933355026 -285992641 1007382418 1378416214 -736424944
REM
CELL 1.54180   50.00000   50.00000   50.00000   90.00000   90.00000   90.00000
LATT -1
SFAC C  
C      1  0.5643610000000  0.5305520000000  0.4569490000000 1.0
C      1  0.4404680000000  0.5220560000000  0.5452130000000 1.0
C      1  0.4356980000000  0.4733100000000  0.4608620000000 1.0
C      1  0.5608470000000  0.4765480000000  0.5487230000000 1.0
C      1  0.4599190000000  0.5213320000000  0.5659350000000 1.0
C      1  0.5425090000000  0.5293410000000  0.4369980000000 1.0
C      1  0.4539740000000  0.4739010000000  0.4381650000000 1.0
C      1  0.5381090000000  0.4768310000000  0.5657960000000 1.0
C      1  0.4579130000000  0.5128110000000  0.4756980000000 1.0
C      1  0.5578770000000  0.5230550000000  0.5364630000000 1.0
C      1  0.5454320000000  0.4898930000000  0.4750880000000 1.0
C      1  0.4430870000000  0.4735900000000  0.5334100000000 1.0
C      1  0.4671080000000  0.5202480000000  0.4438150000000 1.0
C      1  0.5269100000000  0.5236820000000  0.5463400000000 1.0
C      1  0.4718010000000  0.4768630000000  0.5444240000000 1.0
C      1  0.5344780000000  0.4836010000000  0.4435210000000 1.0
C      1  0.5625680000000  0.5452410000000  0.4812100000000 1.0
C      1  0.4458290000000  0.5389870000000  0.5248030000000 1.0
C      1  0.4472090000000  0.4656350000000  0.4867530000000 1.0
C      1  0.5580050000000  0.4621860000000  0.5255930000000 1.0
C      1  0.4788540000000  0.5418420000000  0.5696950000000 1.0
C      1  0.5159060000000  0.5365820000000  0.4455670000000 1.0
C      1  0.4778140000000  0.4608690000000  0.4419360000000 1.0
C      1  0.5188730000000  0.4581420000000  0.5610080000000 1.0
C      1  0.5733830000000  0.5036310000000  0.4639490000000 1.0
C      1  0.4278720000000  0.4968020000000  0.5396770000000 1.0
C      1  0.4273720000000  0.5011600000000  0.4663360000000 1.0
C      1  0.5732690000000  0.5020230000000  0.5475060000000 1.0
C      1  0.4697560000000  0.4952780000000  0.5697460000000 1.0
C      1  0.5420250000000  0.5029420000000  0.4257250000000 1.0
C      1  0.4569120000000  0.5000520000000  0.4266840000000 1.0
C      1  0.5292950000000  0.5032770000000  0.5709560000000 1.0
C      1  0.5103280000000  0.5250680000000  0.4712870000000 1.0
C      1  0.5002650000000  0.5434110000000  0.5241530000000 1.0
C      1  0.4939160000000  0.4667850000000  0.4713030000000 1.0
C      1  0.5039640000000  0.4587680000000  0.5290840000000 1.0
C      1  0.4747900000000  0.5463870000000  0.5065880000000 1.0
C      1  0.5347880000000  0.5179400000000  0.4911360000000 1.0
C      1  0.4720450000000  0.4846060000000  0.4889320000000 1.0
C      1  0.5283470000000  0.4556280000000  0.5102850000000 1.0
C      1  0.4451150000000  0.5404700000000  0.4910650000000 1.0
C      1  0.5610880000000  0.5286060000000  0.5098650000000 1.0
C      1  0.5560140000000  0.4614660000000  0.4913870000000 1.0
C      1  0.4422170000000  0.4544870000000  0.5121110000000 1.0
C      1  0.4857560000000  0.5424690000000  0.4427140000000 1.0
C      1  0.5013590000000  0.5439830000000  0.5554690000000 1.0
C      1  0.4862880000000  0.4504400000000  0.5569200000000 1.0
C      1  0.5116330000000  0.4664070000000  0.4422720000000 1.0
C      1  0.5334710000000  0.4355660000000  0.4833110000000 1.0
C      1  0.4568610000000  0.4306590000000  0.5176520000000 1.0
C      1  0.4651850000000  0.5662790000000  0.4807260000000 1.0
C      1  0.5346440000000  0.5523570000000  0.4917970000000 1.0
C      1  0.4815750000000  0.4331920000000  0.5278770000000 1.0
C      1  0.5117090000000  0.4382880000000  0.4659820000000 1.0
C      1  0.4759750000000  0.5660420000000  0.4559160000000 1.0
C      1  0.5200110000000  0.5633430000000  0.5110360000000 1.0
C      1  0.5179620000000  0.4781510000000  0.4886880000000 1.0
C      1  0.4862500000000  0.5265970000000  0.4831090000000 1.0
C      1  0.4899650000000  0.4876820000000  0.5177740000000 1.0
C      1  0.5130450000000  0.5126570000000  0.5170150000000 1.0
END
