TITL C-1154810-7815-587 -0.000574749597768912 125000 -317.22689460845 0 0 60 (C1) n - 1
REM
REM in /home/nfs/bkarasulu/CARBON/AIRSS/Generating-Clusters/AIREBO/Higher-Symm/Only-C60
REM
REM
REM
REM
REM
REM ./C.cell (28575a23ae977d3b5fae324c64b13b57)
REM
REM compiler GCC version 9.2.1 20190827 (Red Hat 9.2.1-1)
REM options -cpp -mtune=generic -march=x86-64 -g -O0 -fpre-include=/usr/include/finclude/math-vector-fortran.h
REM seed 1358221346 -1224308764 -420352901 -1340907300 1127011527 1669445597 -159037299 1590750342 -340580344 -1590218713 1183614694 1716575630 -2052133038 1600562055 857422916 -300930899 1616800152 202978380 -1327376239 1987968723 -791594978 -1841098971 -1505503519 -2086709404 -670305888 843338210 -1321816099 1246738969 -627005247 -1336870481 1436449964 -645540433 -821331403
REM
CELL 1.54180   50.00000   50.00000   50.00000   90.00000   90.00000   90.00000
LATT -1
SFAC C  
C      1  0.4803810000000  0.4962100000000  0.5536010000000 1.0
C      1  0.5124170000000  0.4848620000000  0.5546690000000 1.0
C      1  0.5071610000000  0.5176920000000  0.5540770000000 1.0
C      1  0.4854440000000  0.4987700000000  0.4463480000000 1.0
C      1  0.5159190000000  0.4856550000000  0.4500560000000 1.0
C      1  0.5062460000000  0.5242280000000  0.4458920000000 1.0
C      1  0.5393480000000  0.4593130000000  0.4864220000000 1.0
C      1  0.5152390000000  0.5543800000000  0.4880110000000 1.0
C      1  0.4391120000000  0.4852620000000  0.4847760000000 1.0
C      1  0.5472630000000  0.4536770000000  0.5133350000000 1.0
C      1  0.5169070000000  0.5618080000000  0.5154250000000 1.0
C      1  0.4395120000000  0.4827940000000  0.5134390000000 1.0
C      1  0.4631150000000  0.4472370000000  0.5372740000000 1.0
C      1  0.5630530000000  0.4947220000000  0.5341100000000 1.0
C      1  0.4718890000000  0.5541810000000  0.5340480000000 1.0
C      1  0.4650750000000  0.4486710000000  0.4645710000000 1.0
C      1  0.5681110000000  0.4972180000000  0.4624510000000 1.0
C      1  0.4702920000000  0.5589260000000  0.4665910000000 1.0
C      1  0.4871200000000  0.5299350000000  0.4727440000000 1.0
C      1  0.4833600000000  0.4749030000000  0.4704800000000 1.0
C      1  0.5347820000000  0.5032340000000  0.4655060000000 1.0
C      1  0.4872220000000  0.5257820000000  0.5277480000000 1.0
C      1  0.4841830000000  0.4726490000000  0.5293750000000 1.0
C      1  0.5304750000000  0.4974740000000  0.5287610000000 1.0
C      1  0.4677880000000  0.5034630000000  0.4817950000000 1.0
C      1  0.5093080000000  0.4687470000000  0.4856250000000 1.0
C      1  0.5185590000000  0.5232840000000  0.4838950000000 1.0
C      1  0.4688400000000  0.4998680000000  0.5155960000000 1.0
C      1  0.5163160000000  0.4682600000000  0.5186440000000 1.0
C      1  0.5196090000000  0.5277770000000  0.5175850000000 1.0
C      1  0.5645760000000  0.5195510000000  0.5149380000000 1.0
C      1  0.4480590000000  0.5492430000000  0.5120520000000 1.0
C      1  0.4836850000000  0.4344250000000  0.5176620000000 1.0
C      1  0.5641260000000  0.5182180000000  0.4881000000000 1.0
C      1  0.4497090000000  0.5448150000000  0.4853040000000 1.0
C      1  0.4806320000000  0.4342560000000  0.4907780000000 1.0
C      1  0.4958340000000  0.5732180000000  0.5275960000000 1.0
C      1  0.4368110000000  0.4609980000000  0.5286020000000 1.0
C      1  0.5682750000000  0.4656830000000  0.5250340000000 1.0
C      1  0.5002990000000  0.5676160000000  0.4704680000000 1.0
C      1  0.4377970000000  0.4631940000000  0.4693380000000 1.0
C      1  0.5560910000000  0.4685990000000  0.4680350000000 1.0
C      1  0.5153090000000  0.4559290000000  0.4547070000000 1.0
C      1  0.5303710000000  0.5341270000000  0.4405640000000 1.0
C      1  0.4532680000000  0.5077230000000  0.4513380000000 1.0
C      1  0.5191200000000  0.4531310000000  0.5490830000000 1.0
C      1  0.5310830000000  0.5389570000000  0.5476950000000 1.0
C      1  0.4520710000000  0.5109350000000  0.5430260000000 1.0
C      1  0.4611520000000  0.4339350000000  0.5617500000000 1.0
C      1  0.5741260000000  0.5000100000000  0.5594260000000 1.0
C      1  0.4612440000000  0.5611160000000  0.5594390000000 1.0
C      1  0.4651820000000  0.4327330000000  0.4415500000000 1.0
C      1  0.5890260000000  0.5000250000000  0.4450110000000 1.0
C      1  0.4576310000000  0.5727720000000  0.4460070000000 1.0
C      1  0.5016760000000  0.4332720000000  0.4688700000000 1.0
C      1  0.5509570000000  0.5330390000000  0.4625800000000 1.0
C      1  0.4369600000000  0.5252150000000  0.4686720000000 1.0
C      1  0.5080760000000  0.4316100000000  0.5323240000000 1.0
C      1  0.5548390000000  0.5414460000000  0.5306890000000 1.0
C      1  0.4379690000000  0.5332300000000  0.5365120000000 1.0
END
