TITL C-1154821-8623-416 30.0111221354314 125000 -320.1241576925 0 0 60 (C6v) n - 1
REM
REM in /home/nfs/bkarasulu/CARBON/AIRSS/Generating-Clusters/AIREBO/Higher-Symm/Only-C60
REM
REM
REM
REM
REM
REM ./C.cell (28575a23ae977d3b5fae324c64b13b57)
REM
REM compiler GCC version 9.2.1 20190827 (Red Hat 9.2.1-1)
REM options -cpp -mtune=generic -march=x86-64 -g -O0 -fpre-include=/usr/include/finclude/math-vector-fortran.h
REM seed -1358678214 1332980389 -1292459059 -918355406 -674538098 108718025 -1540117203 236604173 -1074119882 458779803 -2085766043 -338574267 1046481437 -90680567 208817166 1018003105 498620736 1925925947 -30797750 -1370533386 -480500345 856258229 284418714 1220993646 -2089297470 2003268900 228045001 2143788600 -740111126 -1379527256 -1962104500 -764927584 -938071207
REM
CELL 1.54180   50.00000   50.00000   50.00000   90.00000   90.00000   90.00000
LATT -1
SFAC C  
C      1  0.4746880000000  0.5438040000000  0.5438080000000 1.0
C      1  0.4746900000000  0.4839610000000  0.5598400000000 1.0
C      1  0.4746930000000  0.4401570000000  0.5160300000000 1.0
C      1  0.4746950000000  0.4561950000000  0.4561900000000 1.0
C      1  0.4746930000000  0.5160370000000  0.4401590000000 1.0
C      1  0.4746900000000  0.5598410000000  0.4839680000000 1.0
C      1  0.4662860000000  0.5445370000000  0.4554660000000 1.0
C      1  0.4662890000000  0.4837010000000  0.4391620000000 1.0
C      1  0.4662890000000  0.4391630000000  0.4836950000000 1.0
C      1  0.4662870000000  0.4554610000000  0.5445320000000 1.0
C      1  0.4662840000000  0.5162960000000  0.5608360000000 1.0
C      1  0.4662840000000  0.5608340000000  0.5163030000000 1.0
C      1  0.4418530000000  0.5519290000000  0.4860860000000 1.0
C      1  0.4418520000000  0.5380120000000  0.5380160000000 1.0
C      1  0.4418530000000  0.4860800000000  0.5519280000000 1.0
C      1  0.4418560000000  0.4480660000000  0.5139100000000 1.0
C      1  0.4418570000000  0.4619840000000  0.4619800000000 1.0
C      1  0.4418560000000  0.5139150000000  0.4480680000000 1.0
C      1  0.4332560000000  0.5538370000000  0.5144270000000 1.0
C      1  0.4332580000000  0.5394140000000  0.4605860000000 1.0
C      1  0.4332610000000  0.4855740000000  0.4461570000000 1.0
C      1  0.4332610000000  0.4461580000000  0.4855680000000 1.0
C      1  0.4332590000000  0.4605810000000  0.5394100000000 1.0
C      1  0.4332570000000  0.5144210000000  0.5538390000000 1.0
C      1  0.5365130000000  0.5547600000000  0.5547660000000 1.0
C      1  0.5365150000000  0.4799530000000  0.5748060000000 1.0
C      1  0.5365190000000  0.4251940000000  0.5200410000000 1.0
C      1  0.5365200000000  0.4452430000000  0.4452360000000 1.0
C      1  0.5365180000000  0.5200500000000  0.4251960000000 1.0
C      1  0.5365140000000  0.5748080000000  0.4799610000000 1.0
C      1  0.5291590000000  0.5513190000000  0.4486890000000 1.0
C      1  0.5291620000000  0.4812220000000  0.4299020000000 1.0
C      1  0.5291630000000  0.4299040000000  0.4812140000000 1.0
C      1  0.5291600000000  0.4486830000000  0.5513130000000 1.0
C      1  0.5291570000000  0.5187800000000  0.5701000000000 1.0
C      1  0.5291560000000  0.5700980000000  0.5187870000000 1.0
C      1  0.5528440000000  0.4603940000000  0.5396050000000 1.0
C      1  0.5528460000000  0.4459000000000  0.4855020000000 1.0
C      1  0.5528460000000  0.4855080000000  0.4458980000000 1.0
C      1  0.5528430000000  0.5396100000000  0.4603980000000 1.0
C      1  0.5528410000000  0.5541040000000  0.5145010000000 1.0
C      1  0.5528410000000  0.5144960000000  0.5541050000000 1.0
C      1  0.5589910000000  0.4604400000000  0.4604350000000 1.0
C      1  0.5589900000000  0.4459550000000  0.5144800000000 1.0
C      1  0.5589880000000  0.4855180000000  0.5540470000000 1.0
C      1  0.5589860000000  0.5395650000000  0.5395690000000 1.0
C      1  0.5589870000000  0.5540490000000  0.4855230000000 1.0
C      1  0.5589900000000  0.5144870000000  0.4459560000000 1.0
C      1  0.4987310000000  0.5158210000000  0.5590590000000 1.0
C      1  0.4987340000000  0.4567640000000  0.5432310000000 1.0
C      1  0.4987360000000  0.4409430000000  0.4841720000000 1.0
C      1  0.4987360000000  0.4841790000000  0.4409410000000 1.0
C      1  0.4987330000000  0.5432360000000  0.4567690000000 1.0
C      1  0.4987310000000  0.5590570000000  0.5158280000000 1.0
C      1  0.5076680000000  0.5168060000000  0.4372930000000 1.0
C      1  0.5076700000000  0.4540970000000  0.4540920000000 1.0
C      1  0.5076690000000  0.4372910000000  0.5168000000000 1.0
C      1  0.5076660000000  0.4831940000000  0.5627080000000 1.0
C      1  0.5076640000000  0.5459040000000  0.5459090000000 1.0
C      1  0.5076650000000  0.5627100000000  0.4832010000000 1.0
END
