TITL C-1154803-8277-158 0.00112696019783854 125000 -305.575005577231 0 0 60 (C1) n - 1
REM
REM in /home/nfs/bkarasulu/CARBON/AIRSS/Generating-Clusters/AIREBO/Higher-Symm/Only-C60
REM
REM
REM
REM
REM
REM ./C.cell (28575a23ae977d3b5fae324c64b13b57)
REM
REM compiler GCC version 9.2.1 20190827 (Red Hat 9.2.1-1)
REM options -cpp -mtune=generic -march=x86-64 -g -O0 -fpre-include=/usr/include/finclude/math-vector-fortran.h
REM seed 277107784 1590784408 -1664539392 1336250919 -1173412706 -1236787518 -388732108 1427947414 -262667440 -1218479174 626999802 -364449841 2010080005 -505084460 -612819336 -635002863 996073417 1084838670 1020929503 -746316813 2070168398 -1970807513 1921142041 1485206015 621945409 1397720159 -287540909 1045890214 -1409986022 -312283412 -1668146249 1747651832 -2129006393
REM
CELL 1.54180   50.00000   50.00000   50.00000   90.00000   90.00000   90.00000
LATT -1
SFAC C  
C      1  0.5501300000000  0.5387340000000  0.5584230000000 1.0
C      1  0.4434570000000  0.5258540000000  0.5574640000000 1.0
C      1  0.5063120000000  0.4346350000000  0.5564820000000 1.0
C      1  0.4593530000000  0.4761850000000  0.4705600000000 1.0
C      1  0.5398520000000  0.4812570000000  0.4722310000000 1.0
C      1  0.4954530000000  0.5396780000000  0.4742010000000 1.0
C      1  0.5619690000000  0.4673940000000  0.4859450000000 1.0
C      1  0.4969280000000  0.5650690000000  0.4845000000000 1.0
C      1  0.4387050000000  0.4627170000000  0.4860350000000 1.0
C      1  0.5273030000000  0.4368080000000  0.4884210000000 1.0
C      1  0.5401250000000  0.5513080000000  0.4866230000000 1.0
C      1  0.4343480000000  0.5089690000000  0.4889090000000 1.0
C      1  0.4747140000000  0.5690720000000  0.5014850000000 1.0
C      1  0.4511920000000  0.4439760000000  0.5028280000000 1.0
C      1  0.5725650000000  0.4871160000000  0.5030360000000 1.0
C      1  0.4552120000000  0.5424000000000  0.4954110000000 1.0
C      1  0.4840010000000  0.4400930000000  0.4947860000000 1.0
C      1  0.5596780000000  0.5175300000000  0.4948980000000 1.0
C      1  0.5255650000000  0.4697560000000  0.4439570000000 1.0
C      1  0.5154270000000  0.5380130000000  0.4396140000000 1.0
C      1  0.4635480000000  0.4951370000000  0.4438280000000 1.0
C      1  0.5469320000000  0.4526360000000  0.5309900000000 1.0
C      1  0.5177150000000  0.5648250000000  0.5290350000000 1.0
C      1  0.4361720000000  0.4831810000000  0.5313720000000 1.0
C      1  0.5505050000000  0.4456510000000  0.5003590000000 1.0
C      1  0.5215910000000  0.5678670000000  0.4980240000000 1.0
C      1  0.4281790000000  0.4847650000000  0.5010570000000 1.0
C      1  0.4842040000000  0.5320520000000  0.5461840000000 1.0
C      1  0.4820970000000  0.4713470000000  0.5473910000000 1.0
C      1  0.5348030000000  0.4994240000000  0.5474210000000 1.0
C      1  0.4543650000000  0.5275270000000  0.4434250000000 1.0
C      1  0.5041820000000  0.4485810000000  0.4432880000000 1.0
C      1  0.5446580000000  0.5303250000000  0.4438830000000 1.0
C      1  0.4424680000000  0.5432250000000  0.4638810000000 1.0
C      1  0.4841910000000  0.4350940000000  0.4611410000000 1.0
C      1  0.5650840000000  0.5303970000000  0.4638730000000 1.0
C      1  0.5715300000000  0.4760930000000  0.5286640000000 1.0
C      1  0.4859370000000  0.5766880000000  0.5258220000000 1.0
C      1  0.4429610000000  0.4499400000000  0.5286690000000 1.0
C      1  0.4653920000000  0.5143500000000  0.4790810000000 1.0
C      1  0.5066880000000  0.4613700000000  0.4810110000000 1.0
C      1  0.5296570000000  0.5198500000000  0.4790740000000 1.0
C      1  0.4804760000000  0.4880220000000  0.4944410000000 1.0
C      1  0.5201980000000  0.4869160000000  0.4989670000000 1.0
C      1  0.5010790000000  0.5149690000000  0.4968700000000 1.0
C      1  0.5297030000000  0.5023730000000  0.4497030000000 1.0
C      1  0.4853710000000  0.5256740000000  0.4496510000000 1.0
C      1  0.4879670000000  0.4745580000000  0.4558770000000 1.0
C      1  0.5403060000000  0.4758260000000  0.5535690000000 1.0
C      1  0.4996470000000  0.5505850000000  0.5526900000000 1.0
C      1  0.4585410000000  0.4758850000000  0.5546660000000 1.0
C      1  0.5343290000000  0.5380630000000  0.5374220000000 1.0
C      1  0.4515370000000  0.5110750000000  0.5371990000000 1.0
C      1  0.5143980000000  0.4503840000000  0.5369730000000 1.0
C      1  0.5765650000000  0.5372170000000  0.5101840000000 1.0
C      1  0.4302150000000  0.5459820000000  0.5111400000000 1.0
C      1  0.4940000000000  0.4150650000000  0.5062090000000 1.0
C      1  0.4747440000000  0.5241080000000  0.5164090000000 1.0
C      1  0.4907610000000  0.4647820000000  0.5171820000000 1.0
C      1  0.5350140000000  0.5116220000000  0.5175630000000 1.0
END
