TITL C-1154802-8274-617 0.000420403763654843 125000 -337.231367296336 0 0 60 (C1) n - 1
REM
REM in /home/nfs/bkarasulu/CARBON/AIRSS/Generating-Clusters/AIREBO/Higher-Symm/Only-C60
REM
REM
REM
REM
REM
REM ./C.cell (28575a23ae977d3b5fae324c64b13b57)
REM
REM compiler GCC version 9.2.1 20190827 (Red Hat 9.2.1-1)
REM options -cpp -mtune=generic -march=x86-64 -g -O0 -fpre-include=/usr/include/finclude/math-vector-fortran.h
REM seed 2075373279 868969132 500204400 -936482784 -974073596 1919513110 -657143770 -22385999 28486689 -1586984308 -501907627 343745639 -1961714027 910287146 244209811 -1208379938 376664054 -1299972859 -1220227797 1443297929 431452053 1880833539 1520179065 937329724 1811486735 -279561685 -187959233 263815218 615150447 1506419735 1897448250 115723373 1895228437
REM
CELL 1.54180   50.00000   50.00000   50.00000   90.00000   90.00000   90.00000
LATT -1
SFAC C  
C      1  0.5619740000000  0.4678200000000  0.5330780000000 1.0
C      1  0.5709000000000  0.4499720000000  0.4684630000000 1.0
C      1  0.4895940000000  0.4504940000000  0.4226400000000 1.0
C      1  0.4314030000000  0.4705600000000  0.5144260000000 1.0
C      1  0.4616660000000  0.4477980000000  0.5663400000000 1.0
C      1  0.5089130000000  0.4844470000000  0.4725000000000 1.0
C      1  0.4763780000000  0.4815100000000  0.4757500000000 1.0
C      1  0.4749230000000  0.4892090000000  0.5147430000000 1.0
C      1  0.4968190000000  0.4773830000000  0.5297880000000 1.0
C      1  0.5303920000000  0.4899250000000  0.4990710000000 1.0
C      1  0.4763630000000  0.5386770000000  0.4512620000000 1.0
C      1  0.4522700000000  0.5369900000000  0.5091850000000 1.0
C      1  0.4918640000000  0.5376290000000  0.5557180000000 1.0
C      1  0.5505110000000  0.5405800000000  0.5231490000000 1.0
C      1  0.5375810000000  0.5400190000000  0.4597220000000 1.0
C      1  0.5000910000000  0.4397620000000  0.4453120000000 1.0
C      1  0.4460220000000  0.4485780000000  0.5075360000000 1.0
C      1  0.4697530000000  0.4363470000000  0.5428410000000 1.0
C      1  0.5446080000000  0.4471530000000  0.5290510000000 1.0
C      1  0.5517080000000  0.4406110000000  0.4855040000000 1.0
C      1  0.4708670000000  0.5493120000000  0.5323630000000 1.0
C      1  0.5194320000000  0.5441840000000  0.5364880000000 1.0
C      1  0.5488840000000  0.5504620000000  0.4903030000000 1.0
C      1  0.5068130000000  0.5508930000000  0.4522770000000 1.0
C      1  0.4643420000000  0.5425430000000  0.4806530000000 1.0
C      1  0.5031080000000  0.5318340000000  0.4796950000000 1.0
C      1  0.4771540000000  0.5124060000000  0.4899560000000 1.0
C      1  0.4892030000000  0.5251610000000  0.5186540000000 1.0
C      1  0.5210360000000  0.5135880000000  0.5216890000000 1.0
C      1  0.5226560000000  0.5325310000000  0.4958770000000 1.0
C      1  0.4583340000000  0.4965540000000  0.5593600000000 1.0
C      1  0.5343960000000  0.5025140000000  0.5509420000000 1.0
C      1  0.5551350000000  0.4972890000000  0.4769160000000 1.0
C      1  0.4937710000000  0.4989660000000  0.4292670000000 1.0
C      1  0.4326650000000  0.5029620000000  0.4785960000000 1.0
C      1  0.4163450000000  0.4829060000000  0.4938500000000 1.0
C      1  0.4542960000000  0.4730100000000  0.5747840000000 1.0
C      1  0.5582350000000  0.4821570000000  0.5564640000000 1.0
C      1  0.5771630000000  0.4766440000000  0.4676840000000 1.0
C      1  0.4899070000000  0.4762010000000  0.4128890000000 1.0
C      1  0.5129600000000  0.4509210000000  0.5227880000000 1.0
C      1  0.5267320000000  0.4564190000000  0.4945240000000 1.0
C      1  0.5019350000000  0.4511890000000  0.4736940000000 1.0
C      1  0.4734910000000  0.4517450000000  0.4906940000000 1.0
C      1  0.4832140000000  0.4410850000000  0.5201160000000 1.0
C      1  0.5404810000000  0.5122990000000  0.4547980000000 1.0
C      1  0.4707930000000  0.5131180000000  0.4412730000000 1.0
C      1  0.4377100000000  0.5134540000000  0.5082960000000 1.0
C      1  0.4847130000000  0.5099590000000  0.5609670000000 1.0
C      1  0.5597110000000  0.5137680000000  0.5312180000000 1.0
C      1  0.4544680000000  0.4979770000000  0.4604510000000 1.0
C      1  0.4478650000000  0.4923100000000  0.5304260000000 1.0
C      1  0.5048600000000  0.4926090000000  0.5515780000000 1.0
C      1  0.5624360000000  0.4890890000000  0.5104290000000 1.0
C      1  0.5172120000000  0.4976340000000  0.4463530000000 1.0
C      1  0.5247970000000  0.5724550000000  0.4952040000000 1.0
C      1  0.5041340000000  0.5727040000000  0.4754990000000 1.0
C      1  0.4788790000000  0.5702400000000  0.4888150000000 1.0
C      1  0.4838040000000  0.5727620000000  0.5172010000000 1.0
C      1  0.5123320000000  0.5706800000000  0.5208890000000 1.0
END
