TITL C-1154825-9328-670 -0.000125619821327636 125000 -339.914268094099 0 0 60 (C1) n - 1
REM
REM in /home/nfs/bkarasulu/CARBON/AIRSS/Generating-Clusters/AIREBO/Higher-Symm/Only-C60
REM
REM
REM
REM
REM
REM ./C.cell (28575a23ae977d3b5fae324c64b13b57)
REM
REM compiler GCC version 9.2.1 20190827 (Red Hat 9.2.1-1)
REM options -cpp -mtune=generic -march=x86-64 -g -O0 -fpre-include=/usr/include/finclude/math-vector-fortran.h
REM seed -1902161198 -95474700 -2038936648 7434054 -35234127 -1274647109 -67912760 -854385114 1494686480 299374315 435774128 1460001659 646243547 -1343558788 -742953329 -1427700484 -2129280873 406095931 963621487 -1841719335 -577988298 -436787189 774355355 -815688364 65089807 -1685668850 -1505118793 -44686264 -1312844607 -543617864 -2003884817 674462975 1112567474
REM
CELL 1.54180   50.00000   50.00000   50.00000   90.00000   90.00000   90.00000
LATT -1
SFAC C  
C      1  0.4471420000000  0.4819670000000  0.5603150000000 1.0
C      1  0.5453490000000  0.4614940000000  0.5555860000000 1.0
C      1  0.5112470000000  0.5592700000000  0.5553380000000 1.0
C      1  0.5636890000000  0.5233600000000  0.4484740000000 1.0
C      1  0.4533080000000  0.5364910000000  0.4450110000000 1.0
C      1  0.4818330000000  0.4376430000000  0.4488430000000 1.0
C      1  0.4748030000000  0.5649220000000  0.4876060000000 1.0
C      1  0.4484750000000  0.4480930000000  0.4919790000000 1.0
C      1  0.5717490000000  0.4853540000000  0.4880810000000 1.0
C      1  0.4760040000000  0.4483760000000  0.4800700000000 1.0
C      1  0.5570770000000  0.5109390000000  0.4789360000000 1.0
C      1  0.4619530000000  0.5385110000000  0.4771940000000 1.0
C      1  0.5038200000000  0.5344400000000  0.4633950000000 1.0
C      1  0.4711640000000  0.4836060000000  0.4578660000000 1.0
C      1  0.5299200000000  0.4829380000000  0.4609500000000 1.0
C      1  0.4495230000000  0.4412580000000  0.5195220000000 1.0
C      1  0.5775620000000  0.4851850000000  0.5159760000000 1.0
C      1  0.4705430000000  0.5707580000000  0.5149870000000 1.0
C      1  0.4869990000000  0.5190250000000  0.4859770000000 1.0
C      1  0.4858590000000  0.4790740000000  0.4852330000000 1.0
C      1  0.5260480000000  0.5027830000000  0.4862850000000 1.0
C      1  0.5337980000000  0.5196340000000  0.5336020000000 1.0
C      1  0.4642240000000  0.5187620000000  0.5338500000000 1.0
C      1  0.5025850000000  0.4592890000000  0.5313760000000 1.0
C      1  0.4898700000000  0.5274780000000  0.5744090000000 1.0
C      1  0.4851410000000  0.4782830000000  0.5717680000000 1.0
C      1  0.5311980000000  0.4972000000000  0.5665160000000 1.0
C      1  0.5338040000000  0.4899100000000  0.5233030000000 1.0
C      1  0.4879970000000  0.5355620000000  0.5223420000000 1.0
C      1  0.4749140000000  0.4719470000000  0.5229660000000 1.0
C      1  0.4502420000000  0.4649710000000  0.5381140000000 1.0
C      1  0.5559390000000  0.4737480000000  0.5317810000000 1.0
C      1  0.4932110000000  0.5622690000000  0.5336910000000 1.0
C      1  0.5290160000000  0.5539940000000  0.4719070000000 1.0
C      1  0.4427620000000  0.4895900000000  0.4651350000000 1.0
C      1  0.5293520000000  0.4508140000000  0.4698240000000 1.0
C      1  0.4394970000000  0.5376140000000  0.5318100000000 1.0
C      1  0.4957830000000  0.4286110000000  0.5302660000000 1.0
C      1  0.5639080000000  0.5289870000000  0.5320010000000 1.0
C      1  0.5197310000000  0.5277390000000  0.5613660000000 1.0
C      1  0.4697080000000  0.5063930000000  0.5620860000000 1.0
C      1  0.5130700000000  0.4702300000000  0.5587440000000 1.0
C      1  0.5245400000000  0.4988870000000  0.4344240000000 1.0
C      1  0.4991320000000  0.5215020000000  0.4362720000000 1.0
C      1  0.4931200000000  0.4893260000000  0.4337890000000 1.0
C      1  0.5571000000000  0.4660960000000  0.4724580000000 1.0
C      1  0.4999710000000  0.5661440000000  0.4742550000000 1.0
C      1  0.4313530000000  0.4667210000000  0.4782200000000 1.0
C      1  0.5099580000000  0.4799090000000  0.5056450000000 1.0
C      1  0.5110960000000  0.5195930000000  0.5099700000000 1.0
C      1  0.4755890000000  0.4998330000000  0.5101440000000 1.0
C      1  0.5514570000000  0.5117550000000  0.4274020000000 1.0
C      1  0.4730980000000  0.5357430000000  0.4266270000000 1.0
C      1  0.4771820000000  0.4611190000000  0.4330590000000 1.0
C      1  0.5845180000000  0.5109940000000  0.5267870000000 1.0
C      1  0.4447120000000  0.5641110000000  0.5254660000000 1.0
C      1  0.4690770000000  0.4215420000000  0.5270130000000 1.0
C      1  0.5533830000000  0.5433800000000  0.4703490000000 1.0
C      1  0.4385920000000  0.5168300000000  0.4651680000000 1.0
C      1  0.5063100000000  0.4380060000000  0.4684720000000 1.0
END
