TITL C-1154826-9507-350 7.24030005581818e-05 125000 -333.427753670075 0 0 60 (C1) n - 1
REM
REM in /home/nfs/bkarasulu/CARBON/AIRSS/Generating-Clusters/AIREBO/Higher-Symm/Only-C60
REM
REM
REM
REM
REM
REM ./C.cell (28575a23ae977d3b5fae324c64b13b57)
REM
REM compiler GCC version 9.2.1 20190827 (Red Hat 9.2.1-1)
REM options -cpp -mtune=generic -march=x86-64 -g -O0 -fpre-include=/usr/include/finclude/math-vector-fortran.h
REM seed -1183531103 -1761874028 1997590578 289022977 -1584251109 -586009248 -456649802 -121082724 1652954118 422421367 -593943902 -1536537984 33658862 748954530 207205342 1063669392 254739009 484674829 -1875028522 -242991858 -699785416 -1080334470 950449299 895752134 -1277870265 1014815344 -1418277884 -901412032 509516992 -107981256 411819437 1952880542 -2033925128
REM
CELL 1.54180   50.00000   50.00000   50.00000   90.00000   90.00000   90.00000
LATT -1
SFAC C  
C      1  0.5346900000000  0.5814370000000  0.4817640000000 1.0
C      1  0.5755360000000  0.4904900000000  0.5271070000000 1.0
C      1  0.4738580000000  0.5297660000000  0.5673320000000 1.0
C      1  0.5182040000000  0.4340990000000  0.5231330000000 1.0
C      1  0.4770140000000  0.5653700000000  0.5252880000000 1.0
C      1  0.4669090000000  0.4225400000000  0.4838850000000 1.0
C      1  0.5603360000000  0.5276700000000  0.4616480000000 1.0
C      1  0.4337600000000  0.4754400000000  0.4613350000000 1.0
C      1  0.4326710000000  0.5152630000000  0.5295260000000 1.0
C      1  0.4767340000000  0.4805530000000  0.4299110000000 1.0
C      1  0.5266950000000  0.5230130000000  0.4402390000000 1.0
C      1  0.5283330000000  0.4629580000000  0.5621900000000 1.0
C      1  0.4717600000000  0.5706700000000  0.4779180000000 1.0
C      1  0.4278840000000  0.4715640000000  0.5161360000000 1.0
C      1  0.5196110000000  0.5220990000000  0.5699160000000 1.0
C      1  0.4622670000000  0.4348190000000  0.5306850000000 1.0
C      1  0.5474000000000  0.5582280000000  0.5201030000000 1.0
C      1  0.5221200000000  0.4271190000000  0.4763600000000 1.0
C      1  0.4325020000000  0.5221410000000  0.4735990000000 1.0
C      1  0.5697460000000  0.4815570000000  0.4719380000000 1.0
C      1  0.5659640000000  0.5361400000000  0.5265350000000 1.0
C      1  0.5216620000000  0.4653260000000  0.4384950000000 1.0
C      1  0.4819160000000  0.5308610000000  0.4313830000000 1.0
C      1  0.4826160000000  0.4742300000000  0.5750180000000 1.0
C      1  0.5055600000000  0.4493890000000  0.4712910000000 1.0
C      1  0.4582550000000  0.4777780000000  0.5067360000000 1.0
C      1  0.4815750000000  0.5201920000000  0.4636680000000 1.0
C      1  0.5183440000000  0.5438900000000  0.5119460000000 1.0
C      1  0.4765480000000  0.4627160000000  0.5277370000000 1.0
C      1  0.4901090000000  0.5525050000000  0.4699180000000 1.0
C      1  0.4572110000000  0.5228260000000  0.4851240000000 1.0
C      1  0.5467690000000  0.4771310000000  0.4859330000000 1.0
C      1  0.5423530000000  0.5202090000000  0.5096440000000 1.0
C      1  0.4745220000000  0.4832240000000  0.5508160000000 1.0
C      1  0.5132700000000  0.5070610000000  0.5476630000000 1.0
C      1  0.5212820000000  0.4777100000000  0.4690400000000 1.0
C      1  0.4786360000000  0.4461470000000  0.4743730000000 1.0
C      1  0.5458080000000  0.4894360000000  0.5140700000000 1.0
C      1  0.5130850000000  0.5073190000000  0.4664740000000 1.0
C      1  0.4929410000000  0.5436770000000  0.5268590000000 1.0
C      1  0.5069870000000  0.4577230000000  0.5288570000000 1.0
C      1  0.5175310000000  0.5552050000000  0.4807950000000 1.0
C      1  0.5344830000000  0.5279100000000  0.4791540000000 1.0
C      1  0.4619630000000  0.4706110000000  0.4771650000000 1.0
C      1  0.4598710000000  0.5098600000000  0.5124640000000 1.0
C      1  0.5258230000000  0.4821400000000  0.5355570000000 1.0
C      1  0.4813790000000  0.5140230000000  0.5381450000000 1.0
C      1  0.4698660000000  0.4907850000000  0.4539290000000 1.0
C      1  0.4647770000000  0.5772800000000  0.5037440000000 1.0
C      1  0.5762410000000  0.5054230000000  0.4598210000000 1.0
C      1  0.5069600000000  0.4619740000000  0.5795380000000 1.0
C      1  0.5290670000000  0.4203570000000  0.5021630000000 1.0
C      1  0.5843510000000  0.5160800000000  0.5336950000000 1.0
C      1  0.4162240000000  0.4929190000000  0.5294380000000 1.0
C      1  0.4217710000000  0.5001090000000  0.4610490000000 1.0
C      1  0.5080520000000  0.5327620000000  0.4221500000000 1.0
C      1  0.4995540000000  0.4672630000000  0.4223890000000 1.0
C      1  0.4973570000000  0.5341110000000  0.5820370000000 1.0
C      1  0.4612160000000  0.4167910000000  0.5101470000000 1.0
C      1  0.5500680000000  0.5821110000000  0.5050330000000 1.0
END
