TITL C-1154816-9297-254 -0.000710491826071926 125000 -305.155725004768 0 0 60 (C1) n - 1
REM
REM in /home/nfs/bkarasulu/CARBON/AIRSS/Generating-Clusters/AIREBO/Higher-Symm/Only-C60
REM
REM
REM
REM
REM
REM ./C.cell (28575a23ae977d3b5fae324c64b13b57)
REM
REM compiler GCC version 9.2.1 20190827 (Red Hat 9.2.1-1)
REM options -cpp -mtune=generic -march=x86-64 -g -O0 -fpre-include=/usr/include/finclude/math-vector-fortran.h
REM seed 1788568229 1032825082 59840960 -560635668 -207481201 54702044 591391022 1958436442 979951345 -700848505 1641720187 1902898089 1110370182 -501808702 -1363305173 -1887882969 14951598 -1023782098 1276488044 -1160115566 26464100 1008794147 537446070 -2093962028 -984469291 -11432342 1838711282 907742177 1783071166 400289538 1019693452 -1129672580 1925374740
REM
CELL 1.54180   50.00000   50.00000   50.00000   90.00000   90.00000   90.00000
LATT -1
SFAC C  
C      1  0.4578230000000  0.4581790000000  0.4809640000000 1.0
C      1  0.4546370000000  0.5428490000000  0.5045970000000 1.0
C      1  0.4671610000000  0.4571460000000  0.5352490000000 1.0
C      1  0.4923530000000  0.5428170000000  0.5439040000000 1.0
C      1  0.5216460000000  0.4547370000000  0.5421300000000 1.0
C      1  0.5399020000000  0.5416410000000  0.5199760000000 1.0
C      1  0.5444140000000  0.4587620000000  0.4916480000000 1.0
C      1  0.5327060000000  0.5435860000000  0.4658800000000 1.0
C      1  0.5051910000000  0.4555680000000  0.4540090000000 1.0
C      1  0.4791740000000  0.5453490000000  0.4555220000000 1.0
C      1  0.5231980000000  0.4325460000000  0.4959840000000 1.0
C      1  0.5167010000000  0.5691490000000  0.4815770000000 1.0
C      1  0.5021600000000  0.4326370000000  0.4766360000000 1.0
C      1  0.4884100000000  0.5684610000000  0.4767490000000 1.0
C      1  0.4769490000000  0.4320400000000  0.4903060000000 1.0
C      1  0.4743270000000  0.5684920000000  0.5021620000000 1.0
C      1  0.4824410000000  0.4316260000000  0.5187760000000 1.0
C      1  0.4945440000000  0.5680920000000  0.5232230000000 1.0
C      1  0.5110630000000  0.4315660000000  0.5223070000000 1.0
C      1  0.5206620000000  0.5679970000000  0.5104000000000 1.0
C      1  0.4665540000000  0.4894900000000  0.4535370000000 1.0
C      1  0.4461320000000  0.5126660000000  0.4799710000000 1.0
C      1  0.4455440000000  0.4887020000000  0.5182930000000 1.0
C      1  0.4639840000000  0.5120580000000  0.5450200000000 1.0
C      1  0.5004710000000  0.4868620000000  0.5566840000000 1.0
C      1  0.5330490000000  0.5086350000000  0.5486510000000 1.0
C      1  0.5544940000000  0.4882890000000  0.5181760000000 1.0
C      1  0.5569030000000  0.5126430000000  0.4838860000000 1.0
C      1  0.5412040000000  0.4893270000000  0.4556610000000 1.0
C      1  0.5002790000000  0.5129840000000  0.4453300000000 1.0
C      1  0.5516040000000  0.5195390000000  0.4510170000000 1.0
C      1  0.5121620000000  0.4851830000000  0.4421360000000 1.0
C      1  0.4683730000000  0.5174220000000  0.4392150000000 1.0
C      1  0.4377320000000  0.4828270000000  0.4689130000000 1.0
C      1  0.4335970000000  0.5166900000000  0.5101860000000 1.0
C      1  0.4513010000000  0.4829270000000  0.5507480000000 1.0
C      1  0.4904530000000  0.5155840000000  0.5642400000000 1.0
C      1  0.5323690000000  0.4799830000000  0.5622400000000 1.0
C      1  0.5607550000000  0.5173590000000  0.5314670000000 1.0
C      1  0.5680160000000  0.4830520000000  0.4885830000000 1.0
C      1  0.5065770000000  0.5238530000000  0.4750720000000 1.0
C      1  0.4907040000000  0.4872140000000  0.4757620000000 1.0
C      1  0.4778020000000  0.5153590000000  0.4874940000000 1.0
C      1  0.4731820000000  0.4789600000000  0.5024000000000 1.0
C      1  0.4815540000000  0.5145780000000  0.5182130000000 1.0
C      1  0.4930750000000  0.4770720000000  0.5258700000000 1.0
C      1  0.5110530000000  0.5125920000000  0.5243130000000 1.0
C      1  0.5227090000000  0.4838440000000  0.5137360000000 1.0
C      1  0.5276280000000  0.5195250000000  0.4972530000000 1.0
C      1  0.5198480000000  0.4827350000000  0.4812950000000 1.0
C      1  0.5386980000000  0.4555150000000  0.4582790000000 1.0
C      1  0.5096420000000  0.5453030000000  0.4404270000000 1.0
C      1  0.4738640000000  0.4567100000000  0.4507640000000 1.0
C      1  0.4507240000000  0.5446660000000  0.4708630000000 1.0
C      1  0.4422450000000  0.4555820000000  0.5113460000000 1.0
C      1  0.4592040000000  0.5441250000000  0.5364530000000 1.0
C      1  0.4918050000000  0.4537330000000  0.5584350000000 1.0
C      1  0.5233350000000  0.5406550000000  0.5498420000000 1.0
C      1  0.5492250000000  0.4565290000000  0.5257030000000 1.0
C      1  0.5566930000000  0.5459890000000  0.4905230000000 1.0
END
