TITL C-1154810-7815-188 0.001218568982122 125000 -336.796316134242 0 0 60 (C1) n - 1
REM
REM in /home/nfs/bkarasulu/CARBON/AIRSS/Generating-Clusters/AIREBO/Higher-Symm/Only-C60
REM
REM
REM
REM
REM
REM ./C.cell (28575a23ae977d3b5fae324c64b13b57)
REM
REM compiler GCC version 9.2.1 20190827 (Red Hat 9.2.1-1)
REM options -cpp -mtune=generic -march=x86-64 -g -O0 -fpre-include=/usr/include/finclude/math-vector-fortran.h
REM seed -1853018042 104996500 1619740401 -2058198895 -178539119 -1349329716 631313089 912489025 -1833780621 -1708100926 1690720284 -1527176733 -920301522 -735737141 -1034832116 1030564615 -2075269789 -2136762359 -620053270 1975464417 -1671222455 1549181417 1133248660 -1253917289 -1391858446 2105814365 -595666110 -1505865215 1510554497 1227997107 799919398 -914617600 703017718
REM
CELL 1.54180   50.00000   50.00000   50.00000   90.00000   90.00000   90.00000
LATT -1
SFAC C  
C      1  0.5118470000000  0.5379720000000  0.4340940000000 1.0
C      1  0.4914100000000  0.5242210000000  0.5697030000000 1.0
C      1  0.4832180000000  0.4860630000000  0.5214640000000 1.0
C      1  0.4897480000000  0.4877540000000  0.4910660000000 1.0
C      1  0.4616080000000  0.5269910000000  0.4907360000000 1.0
C      1  0.4745450000000  0.5169460000000  0.5166080000000 1.0
C      1  0.5190070000000  0.4767520000000  0.4885610000000 1.0
C      1  0.5331270000000  0.4833790000000  0.5107370000000 1.0
C      1  0.5627070000000  0.5100780000000  0.5104500000000 1.0
C      1  0.5714590000000  0.5087530000000  0.4807090000000 1.0
C      1  0.5479120000000  0.4478090000000  0.5208150000000 1.0
C      1  0.5545240000000  0.4516650000000  0.4903570000000 1.0
C      1  0.4563840000000  0.5585090000000  0.4916310000000 1.0
C      1  0.4552780000000  0.5681380000000  0.5167310000000 1.0
C      1  0.4885350000000  0.4704270000000  0.4618370000000 1.0
C      1  0.4611080000000  0.4670160000000  0.5346430000000 1.0
C      1  0.4213150000000  0.5072660000000  0.5191550000000 1.0
C      1  0.4176510000000  0.5048670000000  0.4919340000000 1.0
C      1  0.5079580000000  0.5087430000000  0.4324830000000 1.0
C      1  0.5000000000000  0.4964890000000  0.5717260000000 1.0
C      1  0.4831650000000  0.4654540000000  0.5600790000000 1.0
C      1  0.4578350000000  0.4689720000000  0.4472850000000 1.0
C      1  0.4639550000000  0.5276140000000  0.5535220000000 1.0
C      1  0.4598780000000  0.5191280000000  0.4518220000000 1.0
C      1  0.5304970000000  0.4927740000000  0.4373310000000 1.0
C      1  0.5386940000000  0.4966980000000  0.5413570000000 1.0
C      1  0.5077730000000  0.4900210000000  0.5406520000000 1.0
C      1  0.4853540000000  0.4999250000000  0.4452200000000 1.0
C      1  0.5089030000000  0.5188780000000  0.5226980000000 1.0
C      1  0.5085850000000  0.5150510000000  0.4889080000000 1.0
C      1  0.4469050000000  0.4907390000000  0.4397890000000 1.0
C      1  0.4639270000000  0.4936510000000  0.5555950000000 1.0
C      1  0.5411620000000  0.5272020000000  0.5158380000000 1.0
C      1  0.5538740000000  0.5283520000000  0.4636480000000 1.0
C      1  0.4582930000000  0.4381530000000  0.5268330000000 1.0
C      1  0.4880110000000  0.4381730000000  0.4686280000000 1.0
C      1  0.5238410000000  0.4709100000000  0.4565680000000 1.0
C      1  0.5012260000000  0.4405970000000  0.5495210000000 1.0
C      1  0.4496350000000  0.4300200000000  0.5017870000000 1.0
C      1  0.4644170000000  0.4281950000000  0.4790440000000 1.0
C      1  0.5350480000000  0.4447010000000  0.4709750000000 1.0
C      1  0.5277730000000  0.4395330000000  0.5386350000000 1.0
C      1  0.5205590000000  0.5304240000000  0.4664970000000 1.0
C      1  0.5126310000000  0.5376070000000  0.5508470000000 1.0
C      1  0.5179490000000  0.5682260000000  0.4792530000000 1.0
C      1  0.5143670000000  0.5684080000000  0.5116780000000 1.0
C      1  0.4435540000000  0.5159640000000  0.5305740000000 1.0
C      1  0.4384670000000  0.5102710000000  0.4762110000000 1.0
C      1  0.5481410000000  0.5571450000000  0.4772010000000 1.0
C      1  0.5419670000000  0.5540240000000  0.5072500000000 1.0
C      1  0.5648540000000  0.4772560000000  0.5192860000000 1.0
C      1  0.5636460000000  0.4797700000000  0.4853450000000 1.0
C      1  0.5401950000000  0.5209710000000  0.5552950000000 1.0
C      1  0.5537000000000  0.5071330000000  0.4395110000000 1.0
C      1  0.4990330000000  0.5589940000000  0.5332280000000 1.0
C      1  0.4984100000000  0.5549660000000  0.4585480000000 1.0
C      1  0.4713960000000  0.5558570000000  0.5364070000000 1.0
C      1  0.4698900000000  0.5485650000000  0.4628610000000 1.0
C      1  0.4794590000000  0.4235510000000  0.5396170000000 1.0
C      1  0.5136900000000  0.4262890000000  0.4692160000000 1.0
END
