TITL C-1154801-8518-617 -0.00314243471451449 125000 -339.308821570641 0 0 60 (C1) n - 1
REM
REM in /home/nfs/bkarasulu/CARBON/AIRSS/Generating-Clusters/AIREBO/Higher-Symm/Only-C60
REM
REM
REM
REM
REM
REM ./C.cell (28575a23ae977d3b5fae324c64b13b57)
REM
REM compiler GCC version 9.2.1 20190827 (Red Hat 9.2.1-1)
REM options -cpp -mtune=generic -march=x86-64 -g -O0 -fpre-include=/usr/include/finclude/math-vector-fortran.h
REM seed -631536968 -986631489 883576691 2049358007 1355247575 784716160 1828926204 -2060833827 -1136939994 -290476334 1239896802 -1108303569 1210874444 -1541383922 -447452876 -826499559 -2088692517 2095077407 -1405456185 -886855345 1414644240 1603850221 1447712686 1269437103 1493955221 2146689847 -1756409954 2062044594 -1349017307 792617701 797439827 -1619284888 -1551854473
REM
CELL 1.54180   50.00000   50.00000   50.00000   90.00000   90.00000   90.00000
LATT -1
SFAC C  
C      1  0.4430530000000  0.5350540000000  0.5155050000000 1.0
C      1  0.5172530000000  0.4354630000000  0.5462440000000 1.0
C      1  0.5418350000000  0.5190030000000  0.4362130000000 1.0
C      1  0.5640240000000  0.5422230000000  0.4811120000000 1.0
C      1  0.4373970000000  0.4580840000000  0.4836440000000 1.0
C      1  0.5565840000000  0.4625630000000  0.5165780000000 1.0
C      1  0.4851020000000  0.4425570000000  0.4654260000000 1.0
C      1  0.5184580000000  0.5633040000000  0.4588930000000 1.0
C      1  0.4844870000000  0.5572310000000  0.5397680000000 1.0
C      1  0.4610210000000  0.5143260000000  0.5606200000000 1.0
C      1  0.5366620000000  0.4852150000000  0.5591020000000 1.0
C      1  0.4612870000000  0.4837620000000  0.4428650000000 1.0
C      1  0.5147540000000  0.5379850000000  0.4415470000000 1.0
C      1  0.5385130000000  0.4341840000000  0.5201150000000 1.0
C      1  0.4375710000000  0.5126860000000  0.5402850000000 1.0
C      1  0.4825780000000  0.5391630000000  0.5686540000000 1.0
C      1  0.4825120000000  0.4595240000000  0.4361420000000 1.0
C      1  0.5124430000000  0.4631950000000  0.5580460000000 1.0
C      1  0.4598460000000  0.4372420000000  0.4873360000000 1.0
C      1  0.4603250000000  0.5634440000000  0.5186090000000 1.0
C      1  0.5380070000000  0.5576530000000  0.4853160000000 1.0
C      1  0.5588370000000  0.5151470000000  0.4616500000000 1.0
C      1  0.5652640000000  0.4833330000000  0.5409030000000 1.0
C      1  0.4322890000000  0.4815030000000  0.4605230000000 1.0
C      1  0.4710060000000  0.5135190000000  0.4507800000000 1.0
C      1  0.4617490000000  0.4893700000000  0.4980700000000 1.0
C      1  0.5175960000000  0.4448940000000  0.4672380000000 1.0
C      1  0.5314460000000  0.5169560000000  0.5537780000000 1.0
C      1  0.4880390000000  0.5001690000000  0.5348650000000 1.0
C      1  0.5136230000000  0.4944580000000  0.4638030000000 1.0
C      1  0.5489430000000  0.4709310000000  0.4861230000000 1.0
C      1  0.4445830000000  0.5335250000000  0.4831160000000 1.0
C      1  0.5356360000000  0.5129530000000  0.5049250000000 1.0
C      1  0.4993120000000  0.4632300000000  0.5088480000000 1.0
C      1  0.5137680000000  0.5472520000000  0.5292890000000 1.0
C      1  0.4943880000000  0.5353880000000  0.4866430000000 1.0
C      1  0.4507330000000  0.5058500000000  0.4741590000000 1.0
C      1  0.5102380000000  0.4698680000000  0.4511820000000 1.0
C      1  0.4745680000000  0.4650150000000  0.4966480000000 1.0
C      1  0.5477360000000  0.5093620000000  0.5295080000000 1.0
C      1  0.5389900000000  0.4977130000000  0.4791880000000 1.0
C      1  0.4634730000000  0.5015640000000  0.5228110000000 1.0
C      1  0.5004510000000  0.4759910000000  0.5328580000000 1.0
C      1  0.4975470000000  0.5200840000000  0.4612440000000 1.0
C      1  0.5025740000000  0.5227930000000  0.5473650000000 1.0
C      1  0.5245880000000  0.4519060000000  0.4955990000000 1.0
C      1  0.5200450000000  0.5381550000000  0.5021540000000 1.0
C      1  0.4703280000000  0.5490110000000  0.4902130000000 1.0
C      1  0.4860360000000  0.5069020000000  0.5799140000000 1.0
C      1  0.5113980000000  0.5078480000000  0.4259540000000 1.0
C      1  0.5088550000000  0.4899420000000  0.5787380000000 1.0
C      1  0.4916040000000  0.5754780000000  0.5119670000000 1.0
C      1  0.5061990000000  0.4237590000000  0.5169650000000 1.0
C      1  0.5757620000000  0.4896080000000  0.5090160000000 1.0
C      1  0.5084130000000  0.5741320000000  0.4895220000000 1.0
C      1  0.4894750000000  0.4905050000000  0.4239720000000 1.0
C      1  0.4223390000000  0.4850970000000  0.4929610000000 1.0
C      1  0.5741030000000  0.5116100000000  0.4919460000000 1.0
C      1  0.4238580000000  0.5072540000000  0.5096450000000 1.0
C      1  0.4904990000000  0.4240630000000  0.4938970000000 1.0
END
