TITL C-1154825-9328-516 -0.0160110525069522 125000 -339.546726209674 0 0 60 (C1) n - 1
REM
REM in /home/nfs/bkarasulu/CARBON/AIRSS/Generating-Clusters/AIREBO/Higher-Symm/Only-C60
REM
REM
REM
REM
REM
REM ./C.cell (28575a23ae977d3b5fae324c64b13b57)
REM
REM compiler GCC version 9.2.1 20190827 (Red Hat 9.2.1-1)
REM options -cpp -mtune=generic -march=x86-64 -g -O0 -fpre-include=/usr/include/finclude/math-vector-fortran.h
REM seed -1958838815 821046386 -315106547 658486247 -843907794 -1895041080 1070303741 -1572688947 -1247167944 889254397 -25084321 298869455 -1073718303 1937554792 -1510832160 -1281491297 1659454951 1978480082 -487469586 388999965 266641307 -869815629 1504244448 -1274636659 -1330498806 1742755732 -1708063210 475149429 728705253 1697744460 1422855810 -926582676 1175980296
REM
CELL 1.54180   50.00000   50.00000   50.00000   90.00000   90.00000   90.00000
LATT -1
SFAC C  
C      1  0.4986070000000  0.5524100000000  0.4704470000000 1.0
C      1  0.5098200000000  0.4202530000000  0.5094800000000 1.0
C      1  0.4750860000000  0.5119550000000  0.4761030000000 1.0
C      1  0.4777890000000  0.4662600000000  0.4395690000000 1.0
C      1  0.4264220000000  0.4993010000000  0.5187290000000 1.0
C      1  0.5312990000000  0.5068720000000  0.4941360000000 1.0
C      1  0.5297420000000  0.4189640000000  0.4890490000000 1.0
C      1  0.5643610000000  0.5116410000000  0.4610480000000 1.0
C      1  0.4253750000000  0.5006160000000  0.4872350000000 1.0
C      1  0.4642340000000  0.4606390000000  0.4670040000000 1.0
C      1  0.4698980000000  0.5205470000000  0.5623630000000 1.0
C      1  0.4545910000000  0.5020880000000  0.5013790000000 1.0
C      1  0.4284740000000  0.4956000000000  0.4607720000000 1.0
C      1  0.4733920000000  0.5351310000000  0.4325060000000 1.0
C      1  0.5377810000000  0.4409430000000  0.4731210000000 1.0
C      1  0.5386260000000  0.5457220000000  0.5475070000000 1.0
C      1  0.5210190000000  0.4748010000000  0.5151400000000 1.0
C      1  0.5040490000000  0.5256530000000  0.4269520000000 1.0
C      1  0.4524430000000  0.5629650000000  0.5007870000000 1.0
C      1  0.4917230000000  0.5100130000000  0.5815680000000 1.0
C      1  0.4593460000000  0.4906790000000  0.4547280000000 1.0
C      1  0.5261410000000  0.4687410000000  0.4573590000000 1.0
C      1  0.5607260000000  0.4607870000000  0.4756590000000 1.0
C      1  0.5565160000000  0.4846020000000  0.4577570000000 1.0
C      1  0.4910200000000  0.4866920000000  0.5624580000000 1.0
C      1  0.4889630000000  0.5354530000000  0.4964020000000 1.0
C      1  0.5274110000000  0.5688130000000  0.5053410000000 1.0
C      1  0.5829510000000  0.5232210000000  0.4453730000000 1.0
C      1  0.4639340000000  0.5368920000000  0.4580230000000 1.0
C      1  0.4813500000000  0.4594030000000  0.4906560000000 1.0
C      1  0.4733670000000  0.4421490000000  0.5549440000000 1.0
C      1  0.5518540000000  0.5497260000000  0.4947540000000 1.0
C      1  0.5587960000000  0.5009650000000  0.5410620000000 1.0
C      1  0.4045400000000  0.4980830000000  0.5610180000000 1.0
C      1  0.5425920000000  0.3953190000000  0.4854560000000 1.0
C      1  0.4515890000000  0.5561040000000  0.4742590000000 1.0
C      1  0.4884880000000  0.4321100000000  0.5337420000000 1.0
C      1  0.5262060000000  0.5046920000000  0.4122160000000 1.0
C      1  0.5008120000000  0.4884790000000  0.5355290000000 1.0
C      1  0.4671640000000  0.4688330000000  0.5630000000000 1.0
C      1  0.5073710000000  0.5499700000000  0.4474210000000 1.0
C      1  0.5013540000000  0.5576010000000  0.5163550000000 1.0
C      1  0.5503250000000  0.5603160000000  0.5257000000000 1.0
C      1  0.5066430000000  0.5006710000000  0.4712240000000 1.0
C      1  0.5026750000000  0.4565690000000  0.4360580000000 1.0
C      1  0.4817990000000  0.4334470000000  0.5034350000000 1.0
C      1  0.5492220000000  0.4873440000000  0.5154460000000 1.0
C      1  0.4796270000000  0.5426010000000  0.5462250000000 1.0
C      1  0.5526360000000  0.5227880000000  0.5558890000000 1.0
C      1  0.4526250000000  0.4968110000000  0.5578910000000 1.0
C      1  0.5098040000000  0.4726460000000  0.4869270000000 1.0
C      1  0.5104160000000  0.5447090000000  0.5464520000000 1.0
C      1  0.4267220000000  0.4982810000000  0.5457050000000 1.0
C      1  0.4685440000000  0.5584670000000  0.5227680000000 1.0
C      1  0.5030400000000  0.5100450000000  0.5096120000000 1.0
C      1  0.5151410000000  0.4971540000000  0.4417640000000 1.0
C      1  0.4793920000000  0.4855010000000  0.5092930000000 1.0
C      1  0.5513200000000  0.5253430000000  0.4817760000000 1.0
C      1  0.5689570000000  0.4683960000000  0.5015900000000 1.0
C      1  0.5038900000000  0.5172200000000  0.6038350000000 1.0
END
