TITL C-1154826-9507-184 -9.87535434575674e-05 125000 -291.517327041942 0 0 60 (C1) n - 1
REM
REM in /home/nfs/bkarasulu/CARBON/AIRSS/Generating-Clusters/AIREBO/Higher-Symm/Only-C60
REM
REM
REM
REM
REM
REM ./C.cell (28575a23ae977d3b5fae324c64b13b57)
REM
REM compiler GCC version 9.2.1 20190827 (Red Hat 9.2.1-1)
REM options -cpp -mtune=generic -march=x86-64 -g -O0 -fpre-include=/usr/include/finclude/math-vector-fortran.h
REM seed -2025006444 2054951091 1263799240 -1876136036 -1997569843 -1823361077 -1841142940 305594938 630805872 -765690754 -271163754 1261762723 2105599765 -1779742046 2078207268 -1596590463 -1751045064 -719396645 -1285211541 -579961069 -647796782 696243333 1680319499 -34904000 603468886 1298182404 -1388284764 -1433687063 1808094121 732587201 -1389909221 -427709354 -1193158679
REM
CELL 1.54180   50.00000   50.00000   50.00000   90.00000   90.00000   90.00000
LATT -1
SFAC C  
C      1  0.5160540000000  0.5078610000000  0.5202950000000 1.0
C      1  0.5043450000000  0.4791380000000  0.4810330000000 1.0
C      1  0.5203790000000  0.5052660000000  0.4904790000000 1.0
C      1  0.4851300000000  0.4966610000000  0.5316990000000 1.0
C      1  0.4810270000000  0.4931170000000  0.4981210000000 1.0
C      1  0.4924940000000  0.5246050000000  0.4927260000000 1.0
C      1  0.5465480000000  0.5365070000000  0.5518110000000 1.0
C      1  0.5460140000000  0.4406880000000  0.5058380000000 1.0
C      1  0.5432610000000  0.5260900000000  0.4499140000000 1.0
C      1  0.4617900000000  0.5417320000000  0.5407730000000 1.0
C      1  0.4616650000000  0.4429590000000  0.5042780000000 1.0
C      1  0.4469270000000  0.5100620000000  0.4452070000000 1.0
C      1  0.5553240000000  0.4678710000000  0.4898710000000 1.0
C      1  0.5497700000000  0.5206270000000  0.4828390000000 1.0
C      1  0.5491810000000  0.5098520000000  0.5308620000000 1.0
C      1  0.4541010000000  0.4737660000000  0.4920320000000 1.0
C      1  0.4344360000000  0.5205370000000  0.4750710000000 1.0
C      1  0.4547400000000  0.5118360000000  0.5299220000000 1.0
C      1  0.5588500000000  0.5004280000000  0.4495630000000 1.0
C      1  0.5683930000000  0.5447310000000  0.5341010000000 1.0
C      1  0.5530590000000  0.4598040000000  0.5289430000000 1.0
C      1  0.4383460000000  0.4798510000000  0.4439800000000 1.0
C      1  0.4427510000000  0.5478220000000  0.5179680000000 1.0
C      1  0.4365740000000  0.4506190000000  0.5195010000000 1.0
C      1  0.5103210000000  0.4865210000000  0.4491830000000 1.0
C      1  0.5337800000000  0.5575410000000  0.5162920000000 1.0
C      1  0.5158260000000  0.4565320000000  0.5429890000000 1.0
C      1  0.4780140000000  0.4811410000000  0.4400530000000 1.0
C      1  0.4829670000000  0.5557080000000  0.5026340000000 1.0
C      1  0.4830480000000  0.4655410000000  0.5452630000000 1.0
C      1  0.5159000000000  0.5424320000000  0.5400190000000 1.0
C      1  0.5161010000000  0.4425710000000  0.5120570000000 1.0
C      1  0.5117120000000  0.5205940000000  0.4480260000000 1.0
C      1  0.4878770000000  0.5502810000000  0.5330220000000 1.0
C      1  0.4845790000000  0.4421430000000  0.5206410000000 1.0
C      1  0.4784180000000  0.5137830000000  0.4473230000000 1.0
C      1  0.5334560000000  0.5486410000000  0.4891760000000 1.0
C      1  0.5348390000000  0.4833760000000  0.5466700000000 1.0
C      1  0.5410510000000  0.4770460000000  0.4602500000000 1.0
C      1  0.4564210000000  0.5408710000000  0.4873930000000 1.0
C      1  0.4495040000000  0.4626060000000  0.5463570000000 1.0
C      1  0.4619520000000  0.4622140000000  0.4609480000000 1.0
C      1  0.5138660000000  0.5480240000000  0.4683920000000 1.0
C      1  0.5159970000000  0.5109680000000  0.5530260000000 1.0
C      1  0.5020800000000  0.4500640000000  0.4855920000000 1.0
C      1  0.4818180000000  0.5400970000000  0.4657970000000 1.0
C      1  0.4876780000000  0.5069580000000  0.5640050000000 1.0
C      1  0.4818810000000  0.4395790000000  0.4699540000000 1.0
C      1  0.4737560000000  0.4740970000000  0.4108550000000 1.0
C      1  0.4842830000000  0.5854310000000  0.4962070000000 1.0
C      1  0.4851660000000  0.4674250000000  0.5760770000000 1.0
C      1  0.5209440000000  0.4770120000000  0.4189430000000 1.0
C      1  0.5450270000000  0.5818250000000  0.5230720000000 1.0
C      1  0.5226450000000  0.4354860000000  0.5643760000000 1.0
C      1  0.5713960000000  0.4946740000000  0.4780810000000 1.0
C      1  0.5676960000000  0.5292690000000  0.5096070000000 1.0
C      1  0.5664950000000  0.4850660000000  0.5170150000000 1.0
C      1  0.4311740000000  0.4883730000000  0.4739740000000 1.0
C      1  0.4300340000000  0.5195860000000  0.5078250000000 1.0
C      1  0.4411400000000  0.4840930000000  0.5220790000000 1.0
END
