TITL C-1154804-8633-50 -8.86146374872958e-05 125000 -333.780703022049 0 0 60 (C1) n - 1
REM
REM in /home/nfs/bkarasulu/CARBON/AIRSS/Generating-Clusters/AIREBO/Higher-Symm/Only-C60
REM
REM
REM
REM
REM
REM ./C.cell (28575a23ae977d3b5fae324c64b13b57)
REM
REM compiler GCC version 9.2.1 20190827 (Red Hat 9.2.1-1)
REM options -cpp -mtune=generic -march=x86-64 -g -O0 -fpre-include=/usr/include/finclude/math-vector-fortran.h
REM seed -749131277 -93623236 1917355150 2083092055 -1433981630 1155871237 -1791364821 -2101965825 -1399330875 371133133 -2135666491 1851109964 -1329492550 -1376457574 1306723425 -2074741089 529371738 1032538477 -1871208395 988807490 1918738007 -953136966 807186298 -420121677 1003958632 -1901784920 361000226 2137584071 1985758320 -217317072 -1125928473 1416836936 1674234780
REM
CELL 1.54180   50.00000   50.00000   50.00000   90.00000   90.00000   90.00000
LATT -1
SFAC C  
C      1  0.5559750000000  0.4707960000000  0.5387390000000 1.0
C      1  0.4415210000000  0.4810270000000  0.5420710000000 1.0
C      1  0.5237170000000  0.5622340000000  0.4910830000000 1.0
C      1  0.4707020000000  0.5819300000000  0.4953890000000 1.0
C      1  0.5585170000000  0.5361880000000  0.4717130000000 1.0
C      1  0.4544510000000  0.5509440000000  0.4612910000000 1.0
C      1  0.5061870000000  0.5523220000000  0.4714390000000 1.0
C      1  0.4786260000000  0.5513950000000  0.4826220000000 1.0
C      1  0.5103980000000  0.4591560000000  0.4256400000000 1.0
C      1  0.4852740000000  0.4489040000000  0.4254810000000 1.0
C      1  0.4670990000000  0.4591330000000  0.5372780000000 1.0
C      1  0.5302730000000  0.4548810000000  0.5468430000000 1.0
C      1  0.4420250000000  0.5662480000000  0.4866680000000 1.0
C      1  0.5514290000000  0.5571890000000  0.4894530000000 1.0
C      1  0.5220780000000  0.4471470000000  0.4766770000000 1.0
C      1  0.4980630000000  0.4415190000000  0.4806490000000 1.0
C      1  0.4351300000000  0.4697620000000  0.5158610000000 1.0
C      1  0.5674220000000  0.4626480000000  0.5134030000000 1.0
C      1  0.5206720000000  0.4657030000000  0.5746870000000 1.0
C      1  0.4681240000000  0.4673190000000  0.5684700000000 1.0
C      1  0.5377940000000  0.4757610000000  0.4671700000000 1.0
C      1  0.4736830000000  0.4584420000000  0.4708660000000 1.0
C      1  0.4739640000000  0.5256920000000  0.4998480000000 1.0
C      1  0.5335450000000  0.5312430000000  0.5140230000000 1.0
C      1  0.4636180000000  0.4321640000000  0.5315730000000 1.0
C      1  0.5290820000000  0.4276040000000  0.5425840000000 1.0
C      1  0.4816640000000  0.5132530000000  0.4487460000000 1.0
C      1  0.5116390000000  0.5290820000000  0.4518300000000 1.0
C      1  0.5357820000000  0.4626460000000  0.4361300000000 1.0
C      1  0.4645360000000  0.4484500000000  0.4443010000000 1.0
C      1  0.5630370000000  0.5167800000000  0.5213740000000 1.0
C      1  0.4467310000000  0.5221430000000  0.5174150000000 1.0
C      1  0.4443880000000  0.5003690000000  0.4920510000000 1.0
C      1  0.5584970000000  0.5077130000000  0.4892450000000 1.0
C      1  0.5089900000000  0.4904490000000  0.5723390000000 1.0
C      1  0.4810470000000  0.4916560000000  0.5740180000000 1.0
C      1  0.5589140000000  0.5000230000000  0.4561550000000 1.0
C      1  0.4377540000000  0.5073490000000  0.4665190000000 1.0
C      1  0.4863100000000  0.5363840000000  0.5606600000000 1.0
C      1  0.5094220000000  0.5336840000000  0.5457510000000 1.0
C      1  0.5192640000000  0.4797500000000  0.5257630000000 1.0
C      1  0.4876810000000  0.4756930000000  0.5179130000000 1.0
C      1  0.4896320000000  0.5005040000000  0.4970340000000 1.0
C      1  0.5191520000000  0.5123830000000  0.4962280000000 1.0
C      1  0.4810410000000  0.5642060000000  0.5204100000000 1.0
C      1  0.5113600000000  0.5558390000000  0.5216970000000 1.0
C      1  0.4844600000000  0.4877130000000  0.4681470000000 1.0
C      1  0.5147600000000  0.4994850000000  0.4662410000000 1.0
C      1  0.5431510000000  0.5270260000000  0.4464930000000 1.0
C      1  0.4553270000000  0.5243060000000  0.4515350000000 1.0
C      1  0.4509140000000  0.5539480000000  0.5148110000000 1.0
C      1  0.5628720000000  0.5498260000000  0.5166210000000 1.0
C      1  0.4685190000000  0.5144990000000  0.5626640000000 1.0
C      1  0.5213580000000  0.5054050000000  0.5480870000000 1.0
C      1  0.4399890000000  0.4370210000000  0.4407630000000 1.0
C      1  0.5592230000000  0.4555150000000  0.4238270000000 1.0
C      1  0.5518580000000  0.4983450000000  0.5423290000000 1.0
C      1  0.4483380000000  0.5081350000000  0.5440200000000 1.0
C      1  0.5422290000000  0.4801350000000  0.5006830000000 1.0
C      1  0.4608000000000  0.4729380000000  0.4966830000000 1.0
END
