TITL C-1154808-8168-190 -0.186386315625112 125000 -329.623806898756 0 0 60 (C1) n - 1
REM
REM in /home/nfs/bkarasulu/CARBON/AIRSS/Generating-Clusters/AIREBO/Higher-Symm/Only-C60
REM
REM
REM
REM
REM
REM ./C.cell (28575a23ae977d3b5fae324c64b13b57)
REM
REM compiler GCC version 9.2.1 20190827 (Red Hat 9.2.1-1)
REM options -cpp -mtune=generic -march=x86-64 -g -O0 -fpre-include=/usr/include/finclude/math-vector-fortran.h
REM seed 1530833328 -1012496306 274117593 592597706 -549953422 -1835011875 -469458020 -1663845807 1364548943 1694267216 1412234210 1182461792 1061557437 -565509649 -827111972 1310038935 1860425650 -110135827 -1390833762 -96703800 -1293317580 1580874223 -294000905 824631180 1741628464 1918163765 -853425001 218220960 136177628 1120302059 71186513 -1680618305 -1140905179
REM
CELL 1.54180   50.00000   50.00000   50.00000   90.00000   90.00000   90.00000
LATT -1
SFAC C  
C      1  0.5065110000000  0.5653420000000  0.4637010000000 1.0
C      1  0.4821410000000  0.5288010000000  0.4726860000000 1.0
C      1  0.4678240000000  0.5089360000000  0.4840870000000 1.0
C      1  0.4603570000000  0.4864260000000  0.4712570000000 1.0
C      1  0.4568140000000  0.4429060000000  0.4619870000000 1.0
C      1  0.4841150000000  0.4338670000000  0.4504930000000 1.0
C      1  0.5108190000000  0.4531320000000  0.4513660000000 1.0
C      1  0.5406610000000  0.4659990000000  0.4561780000000 1.0
C      1  0.5474230000000  0.4929190000000  0.4521800000000 1.0
C      1  0.5458770000000  0.5391510000000  0.4565120000000 1.0
C      1  0.5349860000000  0.5639990000000  0.4648370000000 1.0
C      1  0.4634640000000  0.5128380000000  0.4323360000000 1.0
C      1  0.4585340000000  0.4871410000000  0.4434660000000 1.0
C      1  0.4585260000000  0.4599420000000  0.4350410000000 1.0
C      1  0.4845000000000  0.4494870000000  0.4216220000000 1.0
C      1  0.5087170000000  0.4666100000000  0.4200840000000 1.0
C      1  0.5269410000000  0.4851230000000  0.4108240000000 1.0
C      1  0.5397760000000  0.5038240000000  0.4274250000000 1.0
C      1  0.5382690000000  0.5317140000000  0.4299400000000 1.0
C      1  0.5172740000000  0.5480930000000  0.4198510000000 1.0
C      1  0.4966320000000  0.5541260000000  0.4387000000000 1.0
C      1  0.4790910000000  0.5328310000000  0.4451470000000 1.0
C      1  0.4673160000000  0.4441340000000  0.5386850000000 1.0
C      1  0.4969520000000  0.4145320000000  0.5234330000000 1.0
C      1  0.5257890000000  0.4153990000000  0.4889080000000 1.0
C      1  0.5741440000000  0.4719170000000  0.4881680000000 1.0
C      1  0.5971630000000  0.4619340000000  0.4833850000000 1.0
C      1  0.5695300000000  0.5362460000000  0.5169670000000 1.0
C      1  0.5386490000000  0.5809890000000  0.5113770000000 1.0
C      1  0.4966770000000  0.5816690000000  0.5239420000000 1.0
C      1  0.4399320000000  0.5361700000000  0.4930320000000 1.0
C      1  0.4285530000000  0.5110830000000  0.4910730000000 1.0
C      1  0.4165740000000  0.4703510000000  0.5171190000000 1.0
C      1  0.4645120000000  0.5421160000000  0.5060000000000 1.0
C      1  0.4385130000000  0.4833740000000  0.5045510000000 1.0
C      1  0.4578990000000  0.4605870000000  0.4883460000000 1.0
C      1  0.4782480000000  0.4493670000000  0.5071880000000 1.0
C      1  0.5098210000000  0.4371900000000  0.5037510000000 1.0
C      1  0.5201440000000  0.4620820000000  0.4830100000000 1.0
C      1  0.5445570000000  0.4844260000000  0.4911350000000 1.0
C      1  0.5423480000000  0.5143340000000  0.4777730000000 1.0
C      1  0.5396630000000  0.5363410000000  0.5004240000000 1.0
C      1  0.5167180000000  0.5585050000000  0.5133640000000 1.0
C      1  0.4927370000000  0.5525460000000  0.4901590000000 1.0
C      1  0.5096890000000  0.5399190000000  0.5409580000000 1.0
C      1  0.4848790000000  0.5311340000000  0.5486350000000 1.0
C      1  0.4682710000000  0.5230300000000  0.5271220000000 1.0
C      1  0.4596930000000  0.4962660000000  0.5248740000000 1.0
C      1  0.4730430000000  0.4768530000000  0.5386170000000 1.0
C      1  0.4988240000000  0.4562860000000  0.5370780000000 1.0
C      1  0.5267950000000  0.4493850000000  0.5305740000000 1.0
C      1  0.5504570000000  0.4607080000000  0.5340450000000 1.0
C      1  0.5554200000000  0.4847390000000  0.5209710000000 1.0
C      1  0.5588710000000  0.5099500000000  0.5315770000000 1.0
C      1  0.5339450000000  0.5278220000000  0.5322670000000 1.0
C      1  0.4766510000000  0.5288010000000  0.5748730000000 1.0
C      1  0.4697110000000  0.5241020000000  0.6001520000000 1.0
C      1  0.4637880000000  0.5217590000000  0.6260160000000 1.0
C      1  0.4532680000000  0.5138540000000  0.6771380000000 1.0
C      1  0.4576760000000  0.5168210000000  0.6514710000000 1.0
END
