TITL C-1154816-9297-508 -0.00232252839947073 125000 -336.756599536172 0 0 60 (C1) n - 1
REM
REM in /home/nfs/bkarasulu/CARBON/AIRSS/Generating-Clusters/AIREBO/Higher-Symm/Only-C60
REM
REM
REM
REM
REM
REM ./C.cell (28575a23ae977d3b5fae324c64b13b57)
REM
REM compiler GCC version 9.2.1 20190827 (Red Hat 9.2.1-1)
REM options -cpp -mtune=generic -march=x86-64 -g -O0 -fpre-include=/usr/include/finclude/math-vector-fortran.h
REM seed 569285617 -170887094 -14552811 -732929480 1095131261 -1679680253 -726273163 -24305054 646606658 914132732 1926827675 2040931015 385247348 1366291840 338817 -1399483101 -1150420251 -1996626209 84306009 596234235 1810666991 -2024587402 2132817113 -951658289 78974031 -297719713 -887352764 -3916195 -649385102 -1136761833 -394515700 890031009 -1044157304
REM
CELL 1.54180   50.00000   50.00000   50.00000   90.00000   90.00000   90.00000
LATT -1
SFAC C  
C      1  0.5311430000000  0.4324670000000  0.4774700000000 1.0
C      1  0.4974730000000  0.4634060000000  0.5620570000000 1.0
C      1  0.5561540000000  0.4835190000000  0.5255520000000 1.0
C      1  0.5247620000000  0.5199740000000  0.4392170000000 1.0
C      1  0.5013250000000  0.5068100000000  0.4298890000000 1.0
C      1  0.5471860000000  0.4759000000000  0.4300790000000 1.0
C      1  0.5053820000000  0.4676520000000  0.3986770000000 1.0
C      1  0.5080550000000  0.4798610000000  0.4229150000000 1.0
C      1  0.4979870000000  0.5383390000000  0.5601380000000 1.0
C      1  0.4400320000000  0.5363300000000  0.5157500000000 1.0
C      1  0.5434670000000  0.5098280000000  0.4659680000000 1.0
C      1  0.4542200000000  0.5078560000000  0.4917710000000 1.0
C      1  0.4808690000000  0.5594290000000  0.5207280000000 1.0
C      1  0.4917370000000  0.4938500000000  0.4743410000000 1.0
C      1  0.4864950000000  0.4304640000000  0.4584630000000 1.0
C      1  0.5059950000000  0.5687320000000  0.5106530000000 1.0
C      1  0.5609490000000  0.5199570000000  0.4879260000000 1.0
C      1  0.5260390000000  0.5238690000000  0.5207570000000 1.0
C      1  0.5364100000000  0.4559640000000  0.4920450000000 1.0
C      1  0.4707930000000  0.5141380000000  0.5275800000000 1.0
C      1  0.4412350000000  0.4875230000000  0.4494140000000 1.0
C      1  0.4498010000000  0.5316070000000  0.5478390000000 1.0
C      1  0.4526320000000  0.4559170000000  0.5225650000000 1.0
C      1  0.5509980000000  0.5246990000000  0.5626100000000 1.0
C      1  0.4340880000000  0.5039600000000  0.5154990000000 1.0
C      1  0.5513220000000  0.5027370000000  0.4348570000000 1.0
C      1  0.4336670000000  0.4774050000000  0.5250960000000 1.0
C      1  0.4772410000000  0.5485890000000  0.5464860000000 1.0
C      1  0.4577220000000  0.4478680000000  0.4954310000000 1.0
C      1  0.5195550000000  0.5175130000000  0.5518470000000 1.0
C      1  0.4419630000000  0.5115050000000  0.4633860000000 1.0
C      1  0.5041250000000  0.5850980000000  0.4875900000000 1.0
C      1  0.4338480000000  0.5295960000000  0.5697040000000 1.0
C      1  0.4879190000000  0.5779310000000  0.4664860000000 1.0
C      1  0.4749840000000  0.5079000000000  0.4411370000000 1.0
C      1  0.4711670000000  0.4772370000000  0.4555410000000 1.0
C      1  0.5318250000000  0.5016550000000  0.5793060000000 1.0
C      1  0.4824870000000  0.4964430000000  0.5069560000000 1.0
C      1  0.4806740000000  0.5252220000000  0.4808430000000 1.0
C      1  0.5516450000000  0.5077900000000  0.5115890000000 1.0
C      1  0.4959170000000  0.4339250000000  0.5356260000000 1.0
C      1  0.5172950000000  0.4799200000000  0.5849760000000 1.0
C      1  0.4771950000000  0.4060260000000  0.4520120000000 1.0
C      1  0.5010030000000  0.4551300000000  0.5948470000000 1.0
C      1  0.4695780000000  0.5537950000000  0.4705260000000 1.0
C      1  0.5229880000000  0.4863850000000  0.5384080000000 1.0
C      1  0.4577830000000  0.5319680000000  0.4491990000000 1.0
C      1  0.5241360000000  0.4837520000000  0.4764840000000 1.0
C      1  0.5139000000000  0.4954040000000  0.5074210000000 1.0
C      1  0.5135250000000  0.4376080000000  0.4557690000000 1.0
C      1  0.4701110000000  0.4502250000000  0.4701990000000 1.0
C      1  0.5287820000000  0.5542060000000  0.5169590000000 1.0
C      1  0.5579980000000  0.5544290000000  0.5219700000000 1.0
C      1  0.5715160000000  0.5450430000000  0.4977710000000 1.0
C      1  0.5215270000000  0.4656790000000  0.4477420000000 1.0
C      1  0.4601390000000  0.5517230000000  0.5024140000000 1.0
C      1  0.4723360000000  0.4510470000000  0.5422440000000 1.0
C      1  0.5429020000000  0.4583810000000  0.5184170000000 1.0
C      1  0.5639730000000  0.5463030000000  0.5496630000000 1.0
C      1  0.5220210000000  0.4525130000000  0.5411980000000 1.0
END
