TITL C-1154826-9507-416 0.000423907337826527 125000 -360.625787136741 0 0 60 (C1) n - 1
REM
REM in /home/nfs/bkarasulu/CARBON/AIRSS/Generating-Clusters/AIREBO/Higher-Symm/Only-C60
REM
REM
REM
REM
REM
REM ./C.cell (28575a23ae977d3b5fae324c64b13b57)
REM
REM compiler GCC version 9.2.1 20190827 (Red Hat 9.2.1-1)
REM options -cpp -mtune=generic -march=x86-64 -g -O0 -fpre-include=/usr/include/finclude/math-vector-fortran.h
REM seed 876942942 -1480250759 563921982 1040033466 -237267205 -142198796 1494861946 258728209 -100193329 -1775394644 1291000703 -501548172 -899687747 -1713110481 -225415326 649804863 -110541612 -1077316154 -839687504 1579853627 65806633 -2073517200 -505288544 1790411514 -197483768 1218639525 -1303624905 1123673361 195617556 1683030268 -1603150721 543721046 -1685477003
REM
CELL 1.54180   50.00000   50.00000   50.00000   90.00000   90.00000   90.00000
LATT -1
SFAC C  
C      1  0.5379030000000  0.4333200000000  0.4905170000000 1.0
C      1  0.4669000000000  0.5194580000000  0.4374070000000 1.0
C      1  0.4087260000000  0.4928550000000  0.5227270000000 1.0
C      1  0.4805310000000  0.4409270000000  0.5303490000000 1.0
C      1  0.5348680000000  0.5584890000000  0.5241830000000 1.0
C      1  0.4702690000000  0.5803790000000  0.4894480000000 1.0
C      1  0.5264170000000  0.5254010000000  0.5618070000000 1.0
C      1  0.4835320000000  0.4620520000000  0.5491300000000 1.0
C      1  0.5115350000000  0.4598900000000  0.4295590000000 1.0
C      1  0.5675790000000  0.4911010000000  0.4622190000000 1.0
C      1  0.4479600000000  0.5166850000000  0.4592620000000 1.0
C      1  0.5429420000000  0.5297810000000  0.5355430000000 1.0
C      1  0.5348410000000  0.5626820000000  0.4966630000000 1.0
C      1  0.4818200000000  0.4512290000000  0.4247040000000 1.0
C      1  0.4266180000000  0.5139330000000  0.5284400000000 1.0
C      1  0.4695400000000  0.5734130000000  0.5200880000000 1.0
C      1  0.5431310000000  0.4297130000000  0.5208190000000 1.0
C      1  0.4696400000000  0.4454440000000  0.5039140000000 1.0
C      1  0.5063690000000  0.4615590000000  0.5658010000000 1.0
C      1  0.4988040000000  0.5271200000000  0.5629570000000 1.0
C      1  0.4934380000000  0.5289560000000  0.4409460000000 1.0
C      1  0.5646150000000  0.5220160000000  0.4628640000000 1.0
C      1  0.4334590000000  0.4916570000000  0.4563160000000 1.0
C      1  0.5586050000000  0.4996190000000  0.5344100000000 1.0
C      1  0.4952850000000  0.4179670000000  0.5361630000000 1.0
C      1  0.5230090000000  0.4832780000000  0.4314240000000 1.0
C      1  0.4454010000000  0.5321820000000  0.4808840000000 1.0
C      1  0.5156560000000  0.4348830000000  0.4774110000000 1.0
C      1  0.4891510000000  0.5787470000000  0.4701080000000 1.0
C      1  0.5193730000000  0.5750490000000  0.5394390000000 1.0
C      1  0.4665590000000  0.4836870000000  0.5525160000000 1.0
C      1  0.5379430000000  0.5053620000000  0.5783410000000 1.0
C      1  0.4597200000000  0.5006960000000  0.4164390000000 1.0
C      1  0.5669510000000  0.5364120000000  0.5153940000000 1.0
C      1  0.4167790000000  0.4717150000000  0.5065220000000 1.0
C      1  0.5670740000000  0.4771170000000  0.4843040000000 1.0
C      1  0.4876790000000  0.5828200000000  0.5369130000000 1.0
C      1  0.5141530000000  0.5120130000000  0.4395610000000 1.0
C      1  0.4298560000000  0.4746680000000  0.4776700000000 1.0
C      1  0.5175610000000  0.5645010000000  0.4758000000000 1.0
C      1  0.4858390000000  0.4432380000000  0.4821250000000 1.0
C      1  0.5272880000000  0.4136700000000  0.5345930000000 1.0
C      1  0.4763290000000  0.5144930000000  0.5549630000000 1.0
C      1  0.5293180000000  0.4752580000000  0.5710500000000 1.0
C      1  0.4628300000000  0.4685350000000  0.4176150000000 1.0
C      1  0.5601360000000  0.4828810000000  0.5139980000000 1.0
C      1  0.4321470000000  0.5325080000000  0.5093280000000 1.0
C      1  0.5709740000000  0.5377670000000  0.4832590000000 1.0
C      1  0.4466700000000  0.5081680000000  0.5462230000000 1.0
C      1  0.5052060000000  0.5927630000000  0.5623140000000 1.0
C      1  0.5466020000000  0.5046530000000  0.4404600000000 1.0
C      1  0.4977340000000  0.4382720000000  0.4506580000000 1.0
C      1  0.5626990000000  0.4508090000000  0.5034210000000 1.0
C      1  0.4971810000000  0.5517360000000  0.4550610000000 1.0
C      1  0.4458650000000  0.4585910000000  0.5007550000000 1.0
C      1  0.5916450000000  0.5530520000000  0.5029410000000 1.0
C      1  0.4462810000000  0.5604440000000  0.4989300000000 1.0
C      1  0.5096390000000  0.3947280000000  0.5539150000000 1.0
C      1  0.5573920000000  0.4876860000000  0.5604140000000 1.0
C      1  0.4360360000000  0.4819750000000  0.4290210000000 1.0
END
