TITL C-1154829-9094-735 0.0018422160379081 125000 -310.741645633116 0 0 60 (C1) n - 1
REM
REM in /home/nfs/bkarasulu/CARBON/AIRSS/Generating-Clusters/AIREBO/Higher-Symm/Only-C60
REM
REM
REM
REM
REM
REM ./C.cell (28575a23ae977d3b5fae324c64b13b57)
REM
REM compiler GCC version 9.2.1 20190827 (Red Hat 9.2.1-1)
REM options -cpp -mtune=generic -march=x86-64 -g -O0 -fpre-include=/usr/include/finclude/math-vector-fortran.h
REM seed -239368739 1352646259 -710213677 149620444 -115749920 -328339493 -51627605 -1436020241 -338183031 988332670 -794831062 985431558 1640464514 2135154251 -2139559224 672155002 1939570676 1533235477 88979875 1541548760 -424758605 -1438175936 2145097205 48451955 -226918562 -493770877 -1763576090 -1596130352 -694179134 1005212340 1257704580 2110516143 30883273
REM
CELL 1.54180   50.00000   50.00000   50.00000   90.00000   90.00000   90.00000
LATT -1
SFAC C  
C      1  0.5023540000000  0.5360290000000  0.4726220000000 1.0
C      1  0.5265400000000  0.4813040000000  0.4734860000000 1.0
C      1  0.4756940000000  0.4869780000000  0.4691650000000 1.0
C      1  0.4870770000000  0.5151180000000  0.5378840000000 1.0
C      1  0.5190300000000  0.5056990000000  0.5436590000000 1.0
C      1  0.4946700000000  0.4824220000000  0.5437590000000 1.0
C      1  0.4853550000000  0.4109140000000  0.4787660000000 1.0
C      1  0.4302470000000  0.5606440000000  0.4792250000000 1.0
C      1  0.5739530000000  0.5315410000000  0.4649360000000 1.0
C      1  0.5368510000000  0.5582330000000  0.5289850000000 1.0
C      1  0.5232880000000  0.4347730000000  0.5045330000000 1.0
C      1  0.4353240000000  0.5128350000000  0.4984370000000 1.0
C      1  0.4941740000000  0.4612980000000  0.5173790000000 1.0
C      1  0.4685100000000  0.5288590000000  0.5156760000000 1.0
C      1  0.5380690000000  0.5124410000000  0.5177900000000 1.0
C      1  0.5873150000000  0.4688860000000  0.4826190000000 1.0
C      1  0.4304640000000  0.4425810000000  0.4842390000000 1.0
C      1  0.4872710000000  0.5897150000000  0.4789760000000 1.0
C      1  0.4606360000000  0.4660430000000  0.5204940000000 1.0
C      1  0.4784140000000  0.5599590000000  0.5252420000000 1.0
C      1  0.5526670000000  0.4819740000000  0.5218050000000 1.0
C      1  0.5101250000000  0.5524870000000  0.5198670000000 1.0
C      1  0.5346340000000  0.4587550000000  0.5228010000000 1.0
C      1  0.4502480000000  0.4934280000000  0.5189810000000 1.0
C      1  0.4428900000000  0.5204590000000  0.5364010000000 1.0
C      1  0.5535050000000  0.5328120000000  0.5408800000000 1.0
C      1  0.5113470000000  0.4437990000000  0.5409510000000 1.0
C      1  0.4508570000000  0.4387930000000  0.4655080000000 1.0
C      1  0.4704960000000  0.5749610000000  0.4619710000000 1.0
C      1  0.5775280000000  0.4842650000000  0.4617380000000 1.0
C      1  0.4448130000000  0.4434810000000  0.5407790000000 1.0
C      1  0.4649040000000  0.5707620000000  0.5467930000000 1.0
C      1  0.5820010000000  0.4821860000000  0.5392270000000 1.0
C      1  0.4424130000000  0.5799030000000  0.4632080000000 1.0
C      1  0.5860080000000  0.5106500000000  0.4515950000000 1.0
C      1  0.4620120000000  0.4124660000000  0.4638010000000 1.0
C      1  0.4947680000000  0.4393120000000  0.4914410000000 1.0
C      1  0.4511320000000  0.5379210000000  0.4878860000000 1.0
C      1  0.5561640000000  0.5225530000000  0.4908310000000 1.0
C      1  0.4877100000000  0.4778550000000  0.5767840000000 1.0
C      1  0.4901510000000  0.5112180000000  0.5707000000000 1.0
C      1  0.5174550000000  0.4932740000000  0.5749810000000 1.0
C      1  0.5500960000000  0.4996020000000  0.4677270000000 1.0
C      1  0.4758770000000  0.4566680000000  0.4690990000000 1.0
C      1  0.4739780000000  0.5442490000000  0.4654220000000 1.0
C      1  0.5000710000000  0.4473780000000  0.4504940000000 1.0
C      1  0.4656440000000  0.5261500000000  0.4415450000000 1.0
C      1  0.5407010000000  0.5201580000000  0.4458540000000 1.0
C      1  0.5828760000000  0.4746870000000  0.5089460000000 1.0
C      1  0.4374390000000  0.4444140000000  0.5106140000000 1.0
C      1  0.4924450000000  0.5800940000000  0.5032880000000 1.0
C      1  0.5607970000000  0.5448160000000  0.5121580000000 1.0
C      1  0.5211930000000  0.4151980000000  0.5301530000000 1.0
C      1  0.4144010000000  0.5211370000000  0.5215970000000 1.0
C      1  0.5064130000000  0.4833290000000  0.4944720000000 1.0
C      1  0.4847360000000  0.5076810000000  0.4945750000000 1.0
C      1  0.5114480000000  0.5271890000000  0.5024810000000 1.0
C      1  0.5215160000000  0.5376980000000  0.4538050000000 1.0
C      1  0.5234750000000  0.4605850000000  0.4546630000000 1.0
C      1  0.4678350000000  0.4993840000000  0.4463070000000 1.0
END
