TITL C-1154823-9327-429 0.0001333220318837 125000 -327.77653571107 0 0 60 (C1) n - 1
REM
REM in /home/nfs/bkarasulu/CARBON/AIRSS/Generating-Clusters/AIREBO/Higher-Symm/Only-C60
REM
REM
REM
REM
REM
REM ./C.cell (28575a23ae977d3b5fae324c64b13b57)
REM
REM compiler GCC version 9.2.1 20190827 (Red Hat 9.2.1-1)
REM options -cpp -mtune=generic -march=x86-64 -g -O0 -fpre-include=/usr/include/finclude/math-vector-fortran.h
REM seed 1493838172 193480645 -1393975729 -1061239294 1984439810 1358235293 1834539477 -1697831866 -362573782 -1674416335 -56110308 -1238469624 114617052 -225449201 1379485959 -803985867 -1369144204 -268606396 77729695 -1871448042 121041278 143516324 -225498053 -1063848745 1630577533 630044369 1620415263 1339903138 -1671792015 575735088 290596570 -383826253 1431174752
REM
CELL 1.54180   50.00000   50.00000   50.00000   90.00000   90.00000   90.00000
LATT -1
SFAC C  
C      1  0.5573040000000  0.4538970000000  0.4920470000000 1.0
C      1  0.4494000000000  0.4515340000000  0.5065380000000 1.0
C      1  0.4880570000000  0.5629700000000  0.5452890000000 1.0
C      1  0.5105600000000  0.5451910000000  0.4574340000000 1.0
C      1  0.5358110000000  0.5471170000000  0.4709460000000 1.0
C      1  0.4676480000000  0.5495630000000  0.5269920000000 1.0
C      1  0.5605090000000  0.5330430000000  0.5128710000000 1.0
C      1  0.4406480000000  0.5230470000000  0.5003240000000 1.0
C      1  0.5287350000000  0.4234880000000  0.4844630000000 1.0
C      1  0.4742250000000  0.4316440000000  0.5076120000000 1.0
C      1  0.5456410000000  0.5539540000000  0.4991460000000 1.0
C      1  0.4450270000000  0.5486870000000  0.4905180000000 1.0
C      1  0.4935850000000  0.4730900000000  0.4346540000000 1.0
C      1  0.4827990000000  0.4563270000000  0.5565920000000 1.0
C      1  0.4771960000000  0.5141830000000  0.5509880000000 1.0
C      1  0.5215520000000  0.4982580000000  0.4527460000000 1.0
C      1  0.5423870000000  0.5192780000000  0.4795100000000 1.0
C      1  0.4512620000000  0.5200180000000  0.5319780000000 1.0
C      1  0.5349090000000  0.5113890000000  0.5567510000000 1.0
C      1  0.4586430000000  0.5044890000000  0.4434600000000 1.0
C      1  0.4778570000000  0.5536490000000  0.4948180000000 1.0
C      1  0.5308290000000  0.5726090000000  0.5137380000000 1.0
C      1  0.5131300000000  0.5917260000000  0.5035620000000 1.0
C      1  0.4863990000000  0.5851850000000  0.5034770000000 1.0
C      1  0.4933740000000  0.4869570000000  0.5510600000000 1.0
C      1  0.5075060000000  0.4697570000000  0.4655170000000 1.0
C      1  0.5227550000000  0.5294140000000  0.5343260000000 1.0
C      1  0.4776910000000  0.5115200000000  0.4688490000000 1.0
C      1  0.5183960000000  0.4564790000000  0.5192750000000 1.0
C      1  0.4814340000000  0.4479520000000  0.4640660000000 1.0
C      1  0.5350510000000  0.4501030000000  0.4688760000000 1.0
C      1  0.4847800000000  0.4601570000000  0.5228510000000 1.0
C      1  0.5722120000000  0.4823090000000  0.4903640000000 1.0
C      1  0.4213590000000  0.4859160000000  0.5041480000000 1.0
C      1  0.5031940000000  0.5183520000000  0.4533780000000 1.0
C      1  0.4959210000000  0.5345440000000  0.5508050000000 1.0
C      1  0.4565490000000  0.4596270000000  0.4572450000000 1.0
C      1  0.5367720000000  0.4666070000000  0.5428850000000 1.0
C      1  0.4884070000000  0.5609790000000  0.4646820000000 1.0
C      1  0.5220140000000  0.5627590000000  0.5409790000000 1.0
C      1  0.4416910000000  0.4717710000000  0.4808340000000 1.0
C      1  0.5541450000000  0.4743000000000  0.5183180000000 1.0
C      1  0.4991250000000  0.4145710000000  0.5200310000000 1.0
C      1  0.5061820000000  0.4096810000000  0.4737720000000 1.0
C      1  0.5523300000000  0.5057210000000  0.5157180000000 1.0
C      1  0.4497010000000  0.5033040000000  0.4823230000000 1.0
C      1  0.4878700000000  0.4942040000000  0.5182580000000 1.0
C      1  0.5109660000000  0.4807180000000  0.4975580000000 1.0
C      1  0.4528920000000  0.4698850000000  0.5303770000000 1.0
C      1  0.5441190000000  0.4764120000000  0.4513570000000 1.0
C      1  0.5369880000000  0.5719570000000  0.5627150000000 1.0
C      1  0.4751080000000  0.5794270000000  0.4495720000000 1.0
C      1  0.4369540000000  0.4922910000000  0.5264390000000 1.0
C      1  0.5575200000000  0.4969270000000  0.4701670000000 1.0
C      1  0.5226170000000  0.4277330000000  0.5116720000000 1.0
C      1  0.4828090000000  0.4249070000000  0.4786920000000 1.0
C      1  0.5234790000000  0.4868450000000  0.5572650000000 1.0
C      1  0.4645020000000  0.4776810000000  0.4363470000000 1.0
C      1  0.5208060000000  0.5124380000000  0.5048860000000 1.0
C      1  0.4886650000000  0.5214600000000  0.4979360000000 1.0
END
