TITL C-1154829-9094-564 0.000953980204155159 125000 -320.264862656709 0 0 60 (C3) n - 1
REM
REM in /home/nfs/bkarasulu/CARBON/AIRSS/Generating-Clusters/AIREBO/Higher-Symm/Only-C60
REM
REM
REM
REM
REM
REM ./C.cell (28575a23ae977d3b5fae324c64b13b57)
REM
REM compiler GCC version 9.2.1 20190827 (Red Hat 9.2.1-1)
REM options -cpp -mtune=generic -march=x86-64 -g -O0 -fpre-include=/usr/include/finclude/math-vector-fortran.h
REM seed -623461864 792071937 -796713254 -115077966 -1589885671 1083175671 -539970819 -1254524199 874112911 -1717644264 -2046407310 415744887 -1158780633 777351888 -960764800 -2111649772 67193386 2057892493 1321062245 192063284 944210267 -1942498373 443283762 1308772114 -355846645 853772928 1738877983 169421248 1759789747 1636601460 -1921917265 966133385 119215480
REM
CELL 1.54180   50.00000   50.00000   50.00000   90.00000   90.00000   90.00000
LATT -1
SFAC C  
C      1  0.4570680000000  0.5273130000000  0.4870500000000 1.0
C      1  0.4570750000000  0.4975600000000  0.5301400000000 1.0
C      1  0.4570700000000  0.4751190000000  0.4828280000000 1.0
C      1  0.5397320000000  0.5263040000000  0.4843710000000 1.0
C      1  0.5397400000000  0.5003810000000  0.5305830000000 1.0
C      1  0.5397350000000  0.4733220000000  0.4850280000000 1.0
C      1  0.4538960000000  0.5245450000000  0.5179280000000 1.0
C      1  0.4538900000000  0.5032440000000  0.4697870000000 1.0
C      1  0.4538980000000  0.4722030000000  0.5123050000000 1.0
C      1  0.5386280000000  0.5266950000000  0.5149560000000 1.0
C      1  0.5386230000000  0.4996130000000  0.4693970000000 1.0
C      1  0.5386310000000  0.4736990000000  0.5156300000000 1.0
C      1  0.5436020000000  0.5584600000000  0.4610430000000 1.0
C      1  0.5436210000000  0.5045060000000  0.5700950000000 1.0
C      1  0.5436100000000  0.4370410000000  0.4688430000000 1.0
C      1  0.4632690000000  0.5630170000000  0.4537130000000 1.0
C      1  0.4632900000000  0.5085780000000  0.5777270000000 1.0
C      1  0.4632790000000  0.4283980000000  0.4685750000000 1.0
C      1  0.5384870000000  0.5599900000000  0.5370210000000 1.0
C      1  0.5384750000000  0.5020740000000  0.4295310000000 1.0
C      1  0.5384930000000  0.4379430000000  0.5334320000000 1.0
C      1  0.4531140000000  0.5599310000000  0.5487380000000 1.0
C      1  0.4530990000000  0.5122330000000  0.4237370000000 1.0
C      1  0.4531190000000  0.4278280000000  0.5275450000000 1.0
C      1  0.5663720000000  0.5000420000000  0.5520400000000 1.0
C      1  0.5663640000000  0.4549090000000  0.4739990000000 1.0
C      1  0.5663580000000  0.5450610000000  0.4739330000000 1.0
C      1  0.4487740000000  0.4958270000000  0.5611910000000 1.0
C      1  0.4487630000000  0.4490960000000  0.4658040000000 1.0
C      1  0.4487580000000  0.5550690000000  0.4730270000000 1.0
C      1  0.5628980000000  0.4979880000000  0.4453410000000 1.0
C      1  0.5629130000000  0.4536830000000  0.5290610000000 1.0
C      1  0.5629070000000  0.5483400000000  0.5255710000000 1.0
C      1  0.4377420000000  0.5060790000000  0.4434760000000 1.0
C      1  0.4377560000000  0.4479960000000  0.5230080000000 1.0
C      1  0.4377520000000  0.5459150000000  0.5335430000000 1.0
C      1  0.5148400000000  0.5004950000000  0.5532720000000 1.0
C      1  0.5148310000000  0.4536160000000  0.4737890000000 1.0
C      1  0.5148260000000  0.5458910000000  0.4729320000000 1.0
C      1  0.4859680000000  0.4942580000000  0.5467230000000 1.0
C      1  0.4859590000000  0.4624080000000  0.4716690000000 1.0
C      1  0.4859550000000  0.5433320000000  0.4816140000000 1.0
C      1  0.5116610000000  0.4995820000000  0.4499650000000 1.0
C      1  0.5116750000000  0.4568800000000  0.5253780000000 1.0
C      1  0.5116700000000  0.5435410000000  0.5246530000000 1.0
C      1  0.4838160000000  0.4916960000000  0.4583150000000 1.0
C      1  0.4838280000000  0.4680480000000  0.5280370000000 1.0
C      1  0.4838220000000  0.5402530000000  0.5136550000000 1.0
C      1  0.4866490000000  0.5464940000000  0.4448680000000 1.0
C      1  0.4866680000000  0.5244990000000  0.5678340000000 1.0
C      1  0.4866620000000  0.4290050000000  0.4873030000000 1.0
C      1  0.5187290000000  0.5526100000000  0.4398150000000 1.0
C      1  0.5187510000000  0.5258160000000  0.5756490000000 1.0
C      1  0.5187430000000  0.4215770000000  0.4845280000000 1.0
C      1  0.4809290000000  0.5505860000000  0.5489730000000 1.0
C      1  0.4809140000000  0.5171150000000  0.4317080000000 1.0
C      1  0.4809320000000  0.4322960000000  0.5193270000000 1.0
C      1  0.5137960000000  0.5514920000000  0.5572680000000 1.0
C      1  0.5137790000000  0.5238530000000  0.4267700000000 1.0
C      1  0.5137980000000  0.4246580000000  0.5159560000000 1.0
END
