TITL C-1154801-8518-314 0.00345032797011211 125000 -364.860545689504 0 0 60 (C1) n - 1
REM
REM in /home/nfs/bkarasulu/CARBON/AIRSS/Generating-Clusters/AIREBO/Higher-Symm/Only-C60
REM
REM
REM
REM
REM
REM ./C.cell (28575a23ae977d3b5fae324c64b13b57)
REM
REM compiler GCC version 9.2.1 20190827 (Red Hat 9.2.1-1)
REM options -cpp -mtune=generic -march=x86-64 -g -O0 -fpre-include=/usr/include/finclude/math-vector-fortran.h
REM seed -269423825 838935674 -1684660987 943725844 -1367750828 -1331992654 449001900 -1065858353 35777173 254275552 -1189911374 1025271518 -475133754 -549292149 1156477386 1069906790 1396461142 -918770856 252198542 729757481 1911959896 -1417616189 -255543744 1596965600 -566551030 144527349 -2047287037 1207043197 -1134411528 -2027022056 -1506241228 -540785918 1566214281
REM
CELL 1.54180   50.00000   50.00000   50.00000   90.00000   90.00000   90.00000
LATT -1
SFAC C  
C      1  0.5708540000000  0.5041260000000  0.5197040000000 1.0
C      1  0.5395060000000  0.4995100000000  0.4378820000000 1.0
C      1  0.4584910000000  0.4956430000000  0.4360400000000 1.0
C      1  0.4328600000000  0.5026800000000  0.5268270000000 1.0
C      1  0.4956940000000  0.4951320000000  0.5769370000000 1.0
C      1  0.4937440000000  0.5113490000000  0.5233710000000 1.0
C      1  0.5199500000000  0.5122650000000  0.5142090000000 1.0
C      1  0.5191360000000  0.5119500000000  0.4864040000000 1.0
C      1  0.4924180000000  0.5106410000000  0.4784940000000 1.0
C      1  0.4767760000000  0.5110900000000  0.5013280000000 1.0
C      1  0.4829850000000  0.5151090000000  0.4493520000000 1.0
C      1  0.4458920000000  0.5136030000000  0.5001740000000 1.0
C      1  0.4843560000000  0.5158450000000  0.5524740000000 1.0
C      1  0.5443720000000  0.5138000000000  0.5335030000000 1.0
C      1  0.5422640000000  0.5161840000000  0.4662490000000 1.0
C      1  0.5249930000000  0.5303180000000  0.4331850000000 1.0
C      1  0.4380690000000  0.5371480000000  0.4587330000000 1.0
C      1  0.4416550000000  0.5325980000000  0.5408750000000 1.0
C      1  0.5260270000000  0.5367340000000  0.5714440000000 1.0
C      1  0.5725270000000  0.5335600000000  0.5023650000000 1.0
C      1  0.4860890000000  0.4542560000000  0.5473290000000 1.0
C      1  0.5397510000000  0.4594840000000  0.5269470000000 1.0
C      1  0.5374270000000  0.4582270000000  0.4691990000000 1.0
C      1  0.4829060000000  0.4537750000000  0.4531030000000 1.0
C      1  0.4519260000000  0.4587960000000  0.5015070000000 1.0
C      1  0.5855050000000  0.5081630000000  0.4892880000000 1.0
C      1  0.5160410000000  0.5056940000000  0.4140630000000 1.0
C      1  0.4364820000000  0.5101020000000  0.4536590000000 1.0
C      1  0.4369230000000  0.5069480000000  0.5603150000000 1.0
C      1  0.5239570000000  0.5096020000000  0.5759590000000 1.0
C      1  0.4437490000000  0.4701360000000  0.4768990000000 1.0
C      1  0.4620190000000  0.4681550000000  0.5475830000000 1.0
C      1  0.5317800000000  0.4700870000000  0.5520320000000 1.0
C      1  0.5577730000000  0.4715260000000  0.4830700000000 1.0
C      1  0.5021570000000  0.4671530000000  0.4381210000000 1.0
C      1  0.5269460000000  0.5576790000000  0.5099870000000 1.0
C      1  0.5183530000000  0.5569450000000  0.4784280000000 1.0
C      1  0.4851970000000  0.5560890000000  0.4763050000000 1.0
C      1  0.4745300000000  0.5575950000000  0.5078970000000 1.0
C      1  0.4996870000000  0.5571450000000  0.5291770000000 1.0
C      1  0.5206780000000  0.4434880000000  0.5133030000000 1.0
C      1  0.5192690000000  0.4428370000000  0.4843560000000 1.0
C      1  0.4912970000000  0.4413400000000  0.4767980000000 1.0
C      1  0.4752000000000  0.4423320000000  0.5009120000000 1.0
C      1  0.4935310000000  0.4418290000000  0.5233970000000 1.0
C      1  0.4639430000000  0.4929150000000  0.5649210000000 1.0
C      1  0.5402910000000  0.4960650000000  0.5577280000000 1.0
C      1  0.5668530000000  0.4958470000000  0.4715500000000 1.0
C      1  0.4909400000000  0.4927060000000  0.4263180000000 1.0
C      1  0.4341350000000  0.4963560000000  0.4779260000000 1.0
C      1  0.4579990000000  0.4667380000000  0.4526480000000 1.0
C      1  0.4460890000000  0.4727980000000  0.5252450000000 1.0
C      1  0.5058590000000  0.4665700000000  0.5629780000000 1.0
C      1  0.5583690000000  0.4739150000000  0.5114990000000 1.0
C      1  0.5285390000000  0.4706350000000  0.4458490000000 1.0
C      1  0.5047600000000  0.5395630000000  0.4538850000000 1.0
C      1  0.4557910000000  0.5423600000000  0.4849180000000 1.0
C      1  0.4705250000000  0.5411340000000  0.5363320000000 1.0
C      1  0.5276860000000  0.5427420000000  0.5399020000000 1.0
C      1  0.5464750000000  0.5409930000000  0.4891170000000 1.0
END
