TITL C-1154804-8633-556 -0.000506718704644392 125000 -311.367743614545 0 0 60 (C1) n - 1
REM
REM in /home/nfs/bkarasulu/CARBON/AIRSS/Generating-Clusters/AIREBO/Higher-Symm/Only-C60
REM
REM
REM
REM
REM
REM ./C.cell (28575a23ae977d3b5fae324c64b13b57)
REM
REM compiler GCC version 9.2.1 20190827 (Red Hat 9.2.1-1)
REM options -cpp -mtune=generic -march=x86-64 -g -O0 -fpre-include=/usr/include/finclude/math-vector-fortran.h
REM seed -1579830267 510666924 -945854127 -645933336 2131362978 -765832061 1576208453 1809553295 -1074440938 1358276819 -34774040 -369598813 -2075037663 -1513627070 2077221013 -821091422 -1476736441 -1319632706 -949962071 2077150139 -826814456 -1728205686 789395216 1241845939 2126251119 1705160611 -521075159 1781009342 -447435779 -2033310733 -2016980256 -1412696362 -366557222
REM
CELL 1.54180   50.00000   50.00000   50.00000   90.00000   90.00000   90.00000
LATT -1
SFAC C  
C      1  0.4509730000000  0.4375540000000  0.4802540000000 1.0
C      1  0.5508470000000  0.5640790000000  0.5127710000000 1.0
C      1  0.4554430000000  0.5574030000000  0.5323140000000 1.0
C      1  0.5464460000000  0.4425520000000  0.4739030000000 1.0
C      1  0.4424220000000  0.4615760000000  0.5392220000000 1.0
C      1  0.5554070000000  0.5361800000000  0.4593130000000 1.0
C      1  0.5089910000000  0.4636500000000  0.5001640000000 1.0
C      1  0.4892980000000  0.5380290000000  0.5014500000000 1.0
C      1  0.5612170000000  0.5100410000000  0.5457980000000 1.0
C      1  0.4358280000000  0.4965030000000  0.4535470000000 1.0
C      1  0.5742210000000  0.5075900000000  0.4917710000000 1.0
C      1  0.4274870000000  0.4917720000000  0.5077860000000 1.0
C      1  0.4815130000000  0.5142690000000  0.5251550000000 1.0
C      1  0.5191790000000  0.4847730000000  0.4755460000000 1.0
C      1  0.5785420000000  0.5278080000000  0.4723930000000 1.0
C      1  0.4213570000000  0.4708150000000  0.5253570000000 1.0
C      1  0.5123760000000  0.5048210000000  0.4260090000000 1.0
C      1  0.4842800000000  0.4936090000000  0.5754220000000 1.0
C      1  0.5259110000000  0.4829010000000  0.5225120000000 1.0
C      1  0.4746810000000  0.5171000000000  0.4789900000000 1.0
C      1  0.5440230000000  0.4566660000000  0.5247400000000 1.0
C      1  0.4559590000000  0.5439080000000  0.4797990000000 1.0
C      1  0.4716710000000  0.4461930000000  0.5372590000000 1.0
C      1  0.5264720000000  0.5518720000000  0.4607370000000 1.0
C      1  0.4554670000000  0.4682180000000  0.4918060000000 1.0
C      1  0.5452560000000  0.5321640000000  0.5035810000000 1.0
C      1  0.4938330000000  0.4837640000000  0.5337630000000 1.0
C      1  0.5063410000000  0.5150240000000  0.4667520000000 1.0
C      1  0.4890490000000  0.4905030000000  0.4360610000000 1.0
C      1  0.5081350000000  0.5069930000000  0.5710800000000 1.0
C      1  0.4938150000000  0.4426390000000  0.4550050000000 1.0
C      1  0.5115790000000  0.5569760000000  0.5441410000000 1.0
C      1  0.5226600000000  0.5686360000000  0.5223550000000 1.0
C      1  0.4795000000000  0.4304540000000  0.4757610000000 1.0
C      1  0.4979850000000  0.4701870000000  0.4533130000000 1.0
C      1  0.5067430000000  0.5266750000000  0.5442940000000 1.0
C      1  0.4827660000000  0.4613140000000  0.5648640000000 1.0
C      1  0.5143250000000  0.5379240000000  0.4336660000000 1.0
C      1  0.4600550000000  0.5095520000000  0.5616320000000 1.0
C      1  0.5386090000000  0.4883380000000  0.4395440000000 1.0
C      1  0.5414230000000  0.4649150000000  0.4592030000000 1.0
C      1  0.4601940000000  0.5332210000000  0.5436630000000 1.0
C      1  0.4627370000000  0.4842590000000  0.5438910000000 1.0
C      1  0.5374090000000  0.5138620000000  0.4553050000000 1.0
C      1  0.4603870000000  0.4997310000000  0.5028100000000 1.0
C      1  0.5414320000000  0.4992510000000  0.4970570000000 1.0
C      1  0.5685170000000  0.5163970000000  0.5209360000000 1.0
C      1  0.4317350000000  0.4868310000000  0.4780610000000 1.0
C      1  0.4922660000000  0.4227790000000  0.5226710000000 1.0
C      1  0.5070300000000  0.5765390000000  0.4753120000000 1.0
C      1  0.4637940000000  0.5066760000000  0.4485080000000 1.0
C      1  0.5315630000000  0.5037070000000  0.5478960000000 1.0
C      1  0.4804880000000  0.4490200000000  0.5045250000000 1.0
C      1  0.5185240000000  0.5504050000000  0.4937870000000 1.0
C      1  0.5347370000000  0.4373220000000  0.5020800000000 1.0
C      1  0.4671170000000  0.5637590000000  0.5033070000000 1.0
C      1  0.4864290000000  0.5296620000000  0.4431750000000 1.0
C      1  0.5131550000000  0.4696690000000  0.5579410000000 1.0
C      1  0.4832090000000  0.5857510000000  0.4859820000000 1.0
C      1  0.5171920000000  0.4152190000000  0.5140600000000 1.0
END
