TITL C-1154821-8623-211 -0.00222379365409387 125000 -343.368483440017 0 0 60 (C5) n - 1
REM
REM in /home/nfs/bkarasulu/CARBON/AIRSS/Generating-Clusters/AIREBO/Higher-Symm/Only-C60
REM
REM
REM
REM
REM
REM ./C.cell (28575a23ae977d3b5fae324c64b13b57)
REM
REM compiler GCC version 9.2.1 20190827 (Red Hat 9.2.1-1)
REM options -cpp -mtune=generic -march=x86-64 -g -O0 -fpre-include=/usr/include/finclude/math-vector-fortran.h
REM seed 1298583475 -1863531643 110278319 -1890166016 20542902 79815499 -942194342 305689451 1890214192 -860370043 -1560658211 -1239508399 -150132435 330098121 546629728 -9713225 1400428412 -1743397290 -331329137 -1557575536 -1953840775 135228656 -1069336485 -1261038891 133147955 -1724457841 1565018543 -477357252 1363387751 1127612079 669016234 450405227 -1332182623
REM
CELL 1.54180   50.00000   50.00000   50.00000   90.00000   90.00000   90.00000
LATT -1
SFAC C  
C      1  0.4894560000000  0.4347910000000  0.5096780000000 1.0
C      1  0.4347250000000  0.4898810000000  0.5096810000000 1.0
C      1  0.4702050000000  0.5589570000000  0.5096590000000 1.0
C      1  0.5468640000000  0.5465590000000  0.5096420000000 1.0
C      1  0.5587620000000  0.4698210000000  0.5096540000000 1.0
C      1  0.4511270000000  0.4532080000000  0.4746800000000 1.0
C      1  0.4403960000000  0.5320120000000  0.4746680000000 1.0
C      1  0.5120270000000  0.5665700000000  0.4746430000000 1.0
C      1  0.5670280000000  0.5091230000000  0.4746400000000 1.0
C      1  0.5293900000000  0.4390620000000  0.4746630000000 1.0
C      1  0.5147780000000  0.5363000000000  0.5142940000000 1.0
C      1  0.5390900000000  0.4971680000000  0.5142950000000 1.0
C      1  0.5093860000000  0.4619540000000  0.5143100000000 1.0
C      1  0.4667160000000  0.4793220000000  0.5143170000000 1.0
C      1  0.4700490000000  0.5252700000000  0.5143080000000 1.0
C      1  0.5523470000000  0.5054580000000  0.4495460000000 1.0
C      1  0.5213670000000  0.4518830000000  0.4495640000000 1.0
C      1  0.4608410000000  0.4647910000000  0.4495770000000 1.0
C      1  0.4544130000000  0.5263430000000  0.4495670000000 1.0
C      1  0.5109670000000  0.5514770000000  0.4495480000000 1.0
C      1  0.5188140000000  0.5456370000000  0.5435360000000 1.0
C      1  0.5492170000000  0.4962250000000  0.5435370000000 1.0
C      1  0.5116190000000  0.4520420000000  0.5435550000000 1.0
C      1  0.4579790000000  0.4741460000000  0.5435650000000 1.0
C      1  0.4624260000000  0.5319910000000  0.5435530000000 1.0
C      1  0.4754980000000  0.4600540000000  0.4943580000000 1.0
C      1  0.4544380000000  0.5109560000000  0.4943540000000 1.0
C      1  0.4963410000000  0.5467160000000  0.4943370000000 1.0
C      1  0.5432990000000  0.5179140000000  0.4943300000000 1.0
C      1  0.5304170000000  0.4643540000000  0.4943440000000 1.0
C      1  0.5622780000000  0.4386220000000  0.5112720000000 1.0
C      1  0.4608710000000  0.4218070000000  0.5113010000000 1.0
C      1  0.4135430000000  0.5130550000000  0.5112960000000 1.0
C      1  0.4856990000000  0.5862640000000  0.5112630000000 1.0
C      1  0.5776230000000  0.5402620000000  0.5112480000000 1.0
C      1  0.4813090000000  0.5410960000000  0.4444080000000 1.0
C      1  0.5333100000000  0.5304540000000  0.4443970000000 1.0
C      1  0.5392570000000  0.4777110000000  0.4444060000000 1.0
C      1  0.4909330000000  0.4557550000000  0.4444220000000 1.0
C      1  0.4551190000000  0.4949300000000  0.4444240000000 1.0
C      1  0.4782380000000  0.4865660000000  0.5605290000000 1.0
C      1  0.4804980000000  0.5165680000000  0.5605230000000 1.0
C      1  0.5097310000000  0.5236900000000  0.5605140000000 1.0
C      1  0.5255370000000  0.4980890000000  0.5605150000000 1.0
C      1  0.5060740000000  0.4751450000000  0.5605240000000 1.0
C      1  0.4732470000000  0.4988980000000  0.4716770000000 1.0
C      1  0.4906840000000  0.5250930000000  0.4716670000000 1.0
C      1  0.5209860000000  0.5166030000000  0.4716610000000 1.0
C      1  0.5222760000000  0.4851610000000  0.4716670000000 1.0
C      1  0.4927710000000  0.4742180000000  0.4716770000000 1.0
C      1  0.5380460000000  0.4259710000000  0.5024780000000 1.0
C      1  0.4413510000000  0.4409410000000  0.5025000000000 1.0
C      1  0.4257080000000  0.5375290000000  0.5024860000000 1.0
C      1  0.5127350000000  0.5822540000000  0.5024550000000 1.0
C      1  0.5821630000000  0.5133070000000  0.5024500000000 1.0
C      1  0.4414720000000  0.5504990000000  0.5235730000000 1.0
C      1  0.5299410000000  0.5712770000000  0.5235470000000 1.0
C      1  0.5770410000000  0.4935590000000  0.5235500000000 1.0
C      1  0.5176810000000  0.4247480000000  0.5235780000000 1.0
C      1  0.4338950000000  0.4599390000000  0.5235930000000 1.0
END
