TITL C-1154829-9094-354 0.000311981502755966 125000 -332.561199184746 0 0 60 (C1) n - 1
REM
REM in /home/nfs/bkarasulu/CARBON/AIRSS/Generating-Clusters/AIREBO/Higher-Symm/Only-C60
REM
REM
REM
REM
REM
REM ./C.cell (28575a23ae977d3b5fae324c64b13b57)
REM
REM compiler GCC version 9.2.1 20190827 (Red Hat 9.2.1-1)
REM options -cpp -mtune=generic -march=x86-64 -g -O0 -fpre-include=/usr/include/finclude/math-vector-fortran.h
REM seed -919433889 1234593406 -1813461575 1341927604 -1130830345 -1111234036 -1732451712 511020357 -603870428 1954742780 -1312618530 -2032919817 -681151683 -625337212 -95109887 1604874991 -1390890916 -77593681 544049774 -1751203637 582552353 1032676497 438853494 263384404 -1868023359 524162593 1947900197 1385761393 -636744094 2115273819 -2027690807 -1029029943 751578834
REM
CELL 1.54180   50.00000   50.00000   50.00000   90.00000   90.00000   90.00000
LATT -1
SFAC C  
C      1  0.4337600000000  0.4873030000000  0.5097020000000 1.0
C      1  0.4384980000000  0.5135730000000  0.4551940000000 1.0
C      1  0.5203840000000  0.5286820000000  0.5025710000000 1.0
C      1  0.5306730000000  0.4726350000000  0.5182890000000 1.0
C      1  0.4990610000000  0.4594930000000  0.4272710000000 1.0
C      1  0.5163210000000  0.4344540000000  0.4928660000000 1.0
C      1  0.4715430000000  0.5410030000000  0.5456740000000 1.0
C      1  0.4616440000000  0.5549910000000  0.4938540000000 1.0
C      1  0.4854580000000  0.5105600000000  0.5508780000000 1.0
C      1  0.5241340000000  0.5066790000000  0.5460040000000 1.0
C      1  0.4969010000000  0.4391600000000  0.5356570000000 1.0
C      1  0.5383080000000  0.4821870000000  0.5648980000000 1.0
C      1  0.5196210000000  0.5202760000000  0.4325910000000 1.0
C      1  0.4687710000000  0.4970270000000  0.5267150000000 1.0
C      1  0.5082530000000  0.4894430000000  0.4311350000000 1.0
C      1  0.4757770000000  0.4912890000000  0.4327990000000 1.0
C      1  0.5116630000000  0.5237140000000  0.5726590000000 1.0
C      1  0.5377390000000  0.4449790000000  0.4760550000000 1.0
C      1  0.4754030000000  0.4256780000000  0.5212280000000 1.0
C      1  0.5512950000000  0.5389170000000  0.4794020000000 1.0
C      1  0.4694050000000  0.5144270000000  0.4502760000000 1.0
C      1  0.4918770000000  0.5161220000000  0.4720580000000 1.0
C      1  0.5294020000000  0.5486010000000  0.5808560000000 1.0
C      1  0.5246260000000  0.5183790000000  0.4721820000000 1.0
C      1  0.4497050000000  0.5324020000000  0.4800750000000 1.0
C      1  0.4396840000000  0.5366780000000  0.5388240000000 1.0
C      1  0.5044740000000  0.4854180000000  0.5638290000000 1.0
C      1  0.5486720000000  0.5247740000000  0.4490040000000 1.0
C      1  0.5354580000000  0.5643880000000  0.5615930000000 1.0
C      1  0.4477660000000  0.4813000000000  0.4490520000000 1.0
C      1  0.5525670000000  0.4643330000000  0.4977210000000 1.0
C      1  0.4509830000000  0.5041280000000  0.4916860000000 1.0
C      1  0.5240760000000  0.5548450000000  0.5323960000000 1.0
C      1  0.5708530000000  0.4897660000000  0.4893870000000 1.0
C      1  0.4809010000000  0.4208560000000  0.4544850000000 1.0
C      1  0.5132840000000  0.4960730000000  0.5090890000000 1.0
C      1  0.4504420000000  0.4599370000000  0.4690900000000 1.0
C      1  0.4583300000000  0.4442570000000  0.4984500000000 1.0
C      1  0.4559850000000  0.5570020000000  0.5209940000000 1.0
C      1  0.4458770000000  0.4634430000000  0.5192060000000 1.0
C      1  0.5114390000000  0.5605920000000  0.5025910000000 1.0
C      1  0.5385220000000  0.4926540000000  0.4451390000000 1.0
C      1  0.5002700000000  0.5473720000000  0.5535190000000 1.0
C      1  0.5488510000000  0.4759580000000  0.4664510000000 1.0
C      1  0.4879810000000  0.4603680000000  0.5521250000000 1.0
C      1  0.4869200000000  0.5654740000000  0.4851450000000 1.0
C      1  0.4926330000000  0.5634800000000  0.4571590000000 1.0
C      1  0.4843290000000  0.4497430000000  0.4477710000000 1.0
C      1  0.4641660000000  0.4694670000000  0.5413520000000 1.0
C      1  0.4384830000000  0.5110300000000  0.5289620000000 1.0
C      1  0.5405090000000  0.5251220000000  0.5289340000000 1.0
C      1  0.5410360000000  0.5641930000000  0.4881820000000 1.0
C      1  0.5589960000000  0.5186340000000  0.5011260000000 1.0
C      1  0.5530450000000  0.4804450000000  0.5381690000000 1.0
C      1  0.4823270000000  0.4673880000000  0.4768600000000 1.0
C      1  0.4830100000000  0.4942900000000  0.4959360000000 1.0
C      1  0.4877050000000  0.4346400000000  0.4842630000000 1.0
C      1  0.5183030000000  0.4446830000000  0.5189410000000 1.0
C      1  0.5003890000000  0.5389800000000  0.4483690000000 1.0
C      1  0.5715110000000  0.4963170000000  0.5233120000000 1.0
END
