TITL C-1154803-8277-165 -0.000316042783431622 125000 -306.164993480139 0 0 60 (C1) n - 1
REM
REM in /home/nfs/bkarasulu/CARBON/AIRSS/Generating-Clusters/AIREBO/Higher-Symm/Only-C60
REM
REM
REM
REM
REM
REM ./C.cell (28575a23ae977d3b5fae324c64b13b57)
REM
REM compiler GCC version 9.2.1 20190827 (Red Hat 9.2.1-1)
REM options -cpp -mtune=generic -march=x86-64 -g -O0 -fpre-include=/usr/include/finclude/math-vector-fortran.h
REM seed -277643529 -1981249367 -402155791 -448140393 2145487347 1414842089 -1489138710 211421459 1398542984 -1610012485 -1521601279 -1773185008 2097779187 -1807970439 -1931724656 -1537619317 1167936621 1403781525 1900411257 1034536768 -824998790 -1013916100 -474065881 -824318909 666134665 508715799 467496554 297453553 701902294 -1190693231 -1886913562 -2054293088 -234544291
REM
CELL 1.54180   50.00000   50.00000   50.00000   90.00000   90.00000   90.00000
LATT -1
SFAC C  
C      1  0.5224520000000  0.5025990000000  0.5643190000000 1.0
C      1  0.4753820000000  0.5103950000000  0.5522300000000 1.0
C      1  0.4420150000000  0.5076810000000  0.5147950000000 1.0
C      1  0.4503160000000  0.5051680000000  0.4671710000000 1.0
C      1  0.4949450000000  0.5049730000000  0.4477910000000 1.0
C      1  0.5473480000000  0.5083460000000  0.4629610000000 1.0
C      1  0.5672240000000  0.5070280000000  0.5151280000000 1.0
C      1  0.5799190000000  0.5354340000000  0.5171030000000 1.0
C      1  0.5424220000000  0.5268470000000  0.5583810000000 1.0
C      1  0.4741030000000  0.5437390000000  0.5678420000000 1.0
C      1  0.4261510000000  0.5378220000000  0.5280940000000 1.0
C      1  0.4244690000000  0.5478260000000  0.4702000000000 1.0
C      1  0.4816900000000  0.5412990000000  0.4260110000000 1.0
C      1  0.5464990000000  0.5387710000000  0.4471150000000 1.0
C      1  0.4635660000000  0.4800760000000  0.4801290000000 1.0
C      1  0.4907470000000  0.4784000000000  0.4597640000000 1.0
C      1  0.5410820000000  0.4801240000000  0.4713330000000 1.0
C      1  0.5303170000000  0.4813650000000  0.5035680000000 1.0
C      1  0.5177430000000  0.4854670000000  0.5349030000000 1.0
C      1  0.4836930000000  0.4864300000000  0.5348250000000 1.0
C      1  0.4583030000000  0.4816070000000  0.5117310000000 1.0
C      1  0.5229780000000  0.4545600000000  0.5429100000000 1.0
C      1  0.4752630000000  0.4595450000000  0.5471670000000 1.0
C      1  0.4473130000000  0.4549680000000  0.5193110000000 1.0
C      1  0.4654440000000  0.4494890000000  0.4699740000000 1.0
C      1  0.4934780000000  0.4470830000000  0.4502040000000 1.0
C      1  0.5424460000000  0.4535230000000  0.4625260000000 1.0
C      1  0.5520960000000  0.4579200000000  0.5091150000000 1.0
C      1  0.4571460000000  0.5520060000000  0.4929880000000 1.0
C      1  0.4724720000000  0.5512450000000  0.4636270000000 1.0
C      1  0.5043970000000  0.5490970000000  0.4688910000000 1.0
C      1  0.5510100000000  0.5494330000000  0.4909650000000 1.0
C      1  0.5314770000000  0.5410740000000  0.5175320000000 1.0
C      1  0.5044970000000  0.5490890000000  0.5369000000000 1.0
C      1  0.4755260000000  0.5510730000000  0.5192120000000 1.0
C      1  0.4705560000000  0.4319290000000  0.5285480000000 1.0
C      1  0.4639020000000  0.4275360000000  0.4954600000000 1.0
C      1  0.4851310000000  0.4202500000000  0.4699150000000 1.0
C      1  0.5169440000000  0.4322610000000  0.4698430000000 1.0
C      1  0.5436630000000  0.4316030000000  0.4890040000000 1.0
C      1  0.5369630000000  0.4311730000000  0.5223350000000 1.0
C      1  0.5043900000000  0.4332120000000  0.5254350000000 1.0
C      1  0.5504570000000  0.5595090000000  0.4650980000000 1.0
C      1  0.5609230000000  0.5533100000000  0.5293740000000 1.0
C      1  0.5314050000000  0.5519920000000  0.5560100000000 1.0
C      1  0.4692610000000  0.5628780000000  0.5498130000000 1.0
C      1  0.4281470000000  0.5571210000000  0.5086780000000 1.0
C      1  0.4418480000000  0.5617810000000  0.4574620000000 1.0
C      1  0.5011290000000  0.5547830000000  0.4360260000000 1.0
C      1  0.5183350000000  0.5227180000000  0.4525740000000 1.0
C      1  0.5633470000000  0.5210590000000  0.4872010000000 1.0
C      1  0.5401590000000  0.5104970000000  0.5296440000000 1.0
C      1  0.5014270000000  0.5263370000000  0.5620620000000 1.0
C      1  0.4568280000000  0.5277730000000  0.5354960000000 1.0
C      1  0.4380730000000  0.5242550000000  0.4881920000000 1.0
C      1  0.4679570000000  0.5212850000000  0.4481500000000 1.0
C      1  0.5013020000000  0.4707200000000  0.4894050000000 1.0
C      1  0.4926830000000  0.4448050000000  0.4988170000000 1.0
C      1  0.5138750000000  0.5298550000000  0.4916310000000 1.0
C      1  0.5086760000000  0.5041640000000  0.4905890000000 1.0
END
