TITL C-1154816-9297-127 -0.000610447605931947 125000 -354.423340991095 0 0 60 (C1) n - 1
REM
REM in /home/nfs/bkarasulu/CARBON/AIRSS/Generating-Clusters/AIREBO/Higher-Symm/Only-C60
REM
REM
REM
REM
REM
REM ./C.cell (28575a23ae977d3b5fae324c64b13b57)
REM
REM compiler GCC version 9.2.1 20190827 (Red Hat 9.2.1-1)
REM options -cpp -mtune=generic -march=x86-64 -g -O0 -fpre-include=/usr/include/finclude/math-vector-fortran.h
REM seed 944662942 1709485058 -1544743571 1227888855 -120166121 1781433619 -1992342870 138865941 -1914278826 -1138133014 2127896035 1447240914 -767454512 423550826 -926730597 -568404159 -753644699 -1092832824 -176689601 2052935882 -1425015198 -1075330158 1606267012 -598592460 -1686691412 1147486477 467727367 -2068858032 -1933988797 796225527 -1274140466 1301511953 -1143645082
REM
CELL 1.54180   50.00000   50.00000   50.00000   90.00000   90.00000   90.00000
LATT -1
SFAC C  
C      1  0.4254460000000  0.4766490000000  0.5163230000000 1.0
C      1  0.4254750000000  0.4975390000000  0.4716700000000 1.0
C      1  0.4254790000000  0.5257640000000  0.5120940000000 1.0
C      1  0.5097400000000  0.4261650000000  0.5219390000000 1.0
C      1  0.5097150000000  0.5179760000000  0.4250680000000 1.0
C      1  0.5098820000000  0.5557940000000  0.5527850000000 1.0
C      1  0.4408300000000  0.5460760000000  0.5222950000000 1.0
C      1  0.4407840000000  0.4576520000000  0.5288180000000 1.0
C      1  0.4408040000000  0.4962020000000  0.4489660000000 1.0
C      1  0.5478980000000  0.4425530000000  0.4959650000000 1.0
C      1  0.5478370000000  0.5325460000000  0.4521480000000 1.0
C      1  0.5479480000000  0.5249900000000  0.5515650000000 1.0
C      1  0.4907320000000  0.5348930000000  0.5120660000000 1.0
C      1  0.4906710000000  0.4719630000000  0.5241370000000 1.0
C      1  0.4907260000000  0.4931790000000  0.4636610000000 1.0
C      1  0.4891930000000  0.5338560000000  0.5440050000000 1.0
C      1  0.4891210000000  0.4448060000000  0.5073060000000 1.0
C      1  0.4890890000000  0.5213190000000  0.4485280000000 1.0
C      1  0.5722350000000  0.4561380000000  0.4957170000000 1.0
C      1  0.5720870000000  0.5259390000000  0.4642860000000 1.0
C      1  0.5724130000000  0.5179280000000  0.5402810000000 1.0
C      1  0.4603790000000  0.4359960000000  0.5185480000000 1.0
C      1  0.4603560000000  0.5159300000000  0.4352940000000 1.0
C      1  0.4604770000000  0.5480000000000  0.5461450000000 1.0
C      1  0.5362720000000  0.5143110000000  0.4339440000000 1.0
C      1  0.5364000000000  0.5499230000000  0.5450490000000 1.0
C      1  0.5362890000000  0.4357010000000  0.5207670000000 1.0
C      1  0.4617280000000  0.4763670000000  0.4327070000000 1.0
C      1  0.4617090000000  0.5700920000000  0.5132190000000 1.0
C      1  0.4616890000000  0.4534800000000  0.5541340000000 1.0
C      1  0.4688510000000  0.4990760000000  0.4099480000000 1.0
C      1  0.4689820000000  0.5783820000000  0.5442470000000 1.0
C      1  0.4688520000000  0.4224360000000  0.5458070000000 1.0
C      1  0.5448520000000  0.4874090000000  0.4345890000000 1.0
C      1  0.5449330000000  0.5630230000000  0.5215350000000 1.0
C      1  0.5448620000000  0.4495310000000  0.5438420000000 1.0
C      1  0.4955400000000  0.5070310000000  0.4026800000000 1.0
C      1  0.4957300000000  0.5806600000000  0.5546360000000 1.0
C      1  0.4955510000000  0.4121920000000  0.5425640000000 1.0
C      1  0.5072810000000  0.4797200000000  0.5698640000000 1.0
C      1  0.5073500000000  0.4496730000000  0.4475530000000 1.0
C      1  0.5071840000000  0.5707730000000  0.4825090000000 1.0
C      1  0.5827170000000  0.5073710000000  0.5173310000000 1.0
C      1  0.5812790000000  0.4816740000000  0.4981370000000 1.0
C      1  0.5797120000000  0.5110040000000  0.4856400000000 1.0
C      1  0.5294140000000  0.5492830000000  0.4674140000000 1.0
C      1  0.5295210000000  0.5034610000000  0.5585970000000 1.0
C      1  0.5295260000000  0.4473810000000  0.4737740000000 1.0
C      1  0.5369000000000  0.5641900000000  0.4966670000000 1.0
C      1  0.5369270000000  0.4706330000000  0.5571060000000 1.0
C      1  0.5369770000000  0.4653340000000  0.4462130000000 1.0
C      1  0.4195090000000  0.5224480000000  0.4843880000000 1.0
C      1  0.4194740000000  0.5023020000000  0.5272990000000 1.0
C      1  0.4194710000000  0.4752130000000  0.4883950000000 1.0
C      1  0.4841900000000  0.5587390000000  0.5000120000000 1.0
C      1  0.4842080000000  0.4705290000000  0.5508310000000 1.0
C      1  0.4842680000000  0.4707490000000  0.4491120000000 1.0
C      1  0.4975410000000  0.4485390000000  0.4800480000000 1.0
C      1  0.4974490000000  0.5431230000000  0.4653410000000 1.0
C      1  0.4975440000000  0.5083970000000  0.5544910000000 1.0
END
