TITL C-1154823-9327-69 0.000594722008673434 125000 -330.236865280393 0 0 60 (C1) n - 1
REM
REM in /home/nfs/bkarasulu/CARBON/AIRSS/Generating-Clusters/AIREBO/Higher-Symm/Only-C60
REM
REM
REM
REM
REM
REM ./C.cell (28575a23ae977d3b5fae324c64b13b57)
REM
REM compiler GCC version 9.2.1 20190827 (Red Hat 9.2.1-1)
REM options -cpp -mtune=generic -march=x86-64 -g -O0 -fpre-include=/usr/include/finclude/math-vector-fortran.h
REM seed 1528500964 1058387491 1564402967 -1485646343 1405814683 109920685 1193311129 695894478 -670427292 -1705506758 -222055985 -942998500 394972334 -2032545847 642665771 1017120567 1496469517 -1849048825 -1570840316 -1516676175 -2128630128 1486631733 1341776843 951819812 -553857525 -1674637007 477324507 -880909831 649811457 -446698312 1885255251 -1052274097 -1641761651
REM
CELL 1.54180   50.00000   50.00000   50.00000   90.00000   90.00000   90.00000
LATT -1
SFAC C  
C      1  0.4245630000000  0.4834870000000  0.4972000000000 1.0
C      1  0.4775170000000  0.4331010000000  0.4970820000000 1.0
C      1  0.5774630000000  0.4742520000000  0.4995440000000 1.0
C      1  0.5577080000000  0.5540240000000  0.5071020000000 1.0
C      1  0.4628590000000  0.5703990000000  0.5172250000000 1.0
C      1  0.4252070000000  0.5164060000000  0.5006210000000 1.0
C      1  0.4856120000000  0.5646370000000  0.4988100000000 1.0
C      1  0.5799250000000  0.5376140000000  0.5193780000000 1.0
C      1  0.5538460000000  0.4527580000000  0.4945260000000 1.0
C      1  0.4576120000000  0.4297260000000  0.5199520000000 1.0
C      1  0.5985760000000  0.5220090000000  0.5057700000000 1.0
C      1  0.5113010000000  0.5822220000000  0.4974720000000 1.0
C      1  0.4202730000000  0.5482280000000  0.5017280000000 1.0
C      1  0.4304810000000  0.4331020000000  0.5134500000000 1.0
C      1  0.5318900000000  0.4284750000000  0.4901730000000 1.0
C      1  0.6016960000000  0.4952120000000  0.5014740000000 1.0
C      1  0.5084670000000  0.4246760000000  0.4967010000000 1.0
C      1  0.4138690000000  0.4534220000000  0.5058030000000 1.0
C      1  0.4369610000000  0.5689170000000  0.5070250000000 1.0
C      1  0.5356020000000  0.5772380000000  0.4973420000000 1.0
C      1  0.5000620000000  0.4696800000000  0.5302200000000 1.0
C      1  0.5469680000000  0.4891210000000  0.5415200000000 1.0
C      1  0.5265030000000  0.5346050000000  0.5435080000000 1.0
C      1  0.4761260000000  0.5344920000000  0.5474260000000 1.0
C      1  0.4565710000000  0.4872140000000  0.5438180000000 1.0
C      1  0.5005950000000  0.5293440000000  0.5335530000000 1.0
C      1  0.5470740000000  0.5161030000000  0.5491370000000 1.0
C      1  0.5277730000000  0.4689040000000  0.5368480000000 1.0
C      1  0.4764840000000  0.4670870000000  0.5464560000000 1.0
C      1  0.4557100000000  0.5152630000000  0.5451800000000 1.0
C      1  0.5411090000000  0.4466350000000  0.5244700000000 1.0
C      1  0.5727830000000  0.5286890000000  0.5456600000000 1.0
C      1  0.4984610000000  0.5346660000000  0.5062410000000 1.0
C      1  0.4323910000000  0.5243740000000  0.5313780000000 1.0
C      1  0.4664580000000  0.4400560000000  0.5451040000000 1.0
C      1  0.5376280000000  0.5586790000000  0.5326380000000 1.0
C      1  0.5720740000000  0.4809110000000  0.5305530000000 1.0
C      1  0.4938420000000  0.4612470000000  0.5033650000000 1.0
C      1  0.4341760000000  0.4788730000000  0.5286050000000 1.0
C      1  0.4675930000000  0.5617090000000  0.5439370000000 1.0
C      1  0.4652550000000  0.4296260000000  0.4699140000000 1.0
C      1  0.5644600000000  0.4816400000000  0.4690100000000 1.0
C      1  0.5448460000000  0.5429930000000  0.4788570000000 1.0
C      1  0.4715710000000  0.5171470000000  0.4732230000000 1.0
C      1  0.4387920000000  0.4787120000000  0.4698070000000 1.0
C      1  0.4822910000000  0.5452400000000  0.4713710000000 1.0
C      1  0.5538290000000  0.5134140000000  0.4742370000000 1.0
C      1  0.5329520000000  0.4706740000000  0.4759960000000 1.0
C      1  0.4504940000000  0.4491960000000  0.4602670000000 1.0
C      1  0.4419910000000  0.5100490000000  0.4729030000000 1.0
C      1  0.4273580000000  0.5238300000000  0.4494540000000 1.0
C      1  0.5658380000000  0.4557930000000  0.4506270000000 1.0
C      1  0.5545320000000  0.5595280000000  0.4576050000000 1.0
C      1  0.4681140000000  0.4052150000000  0.4576830000000 1.0
C      1  0.4754320000000  0.5591860000000  0.4481100000000 1.0
C      1  0.4903750000000  0.4983900000000  0.4707240000000 1.0
C      1  0.5091740000000  0.4794550000000  0.4708200000000 1.0
C      1  0.5149620000000  0.5447370000000  0.4810220000000 1.0
C      1  0.4351060000000  0.4659530000000  0.4385620000000 1.0
C      1  0.5908180000000  0.4916660000000  0.4551100000000 1.0
END
