TITL C-1154821-8623-42 -0.000127618298295563 125000 -320.738897657378 0 0 60 (C1) n - 1
REM
REM in /home/nfs/bkarasulu/CARBON/AIRSS/Generating-Clusters/AIREBO/Higher-Symm/Only-C60
REM
REM
REM
REM
REM
REM ./C.cell (28575a23ae977d3b5fae324c64b13b57)
REM
REM compiler GCC version 9.2.1 20190827 (Red Hat 9.2.1-1)
REM options -cpp -mtune=generic -march=x86-64 -g -O0 -fpre-include=/usr/include/finclude/math-vector-fortran.h
REM seed -1813074682 -1048496625 -1959334116 50976338 793249383 1778736667 2062515892 1301974827 887935172 101062478 -259979830 168594399 -198014858 -322385227 -107915200 2099886211 1959704975 -1441724159 1406527867 -1167611501 -694888169 -745601634 -1549898769 -135360435 -1210808902 1827703093 -1112940956 -226932405 64564350 215433156 -899583430 -1724873000 -497581048
REM
CELL 1.54180   50.00000   50.00000   50.00000   90.00000   90.00000   90.00000
LATT -1
SFAC C  
C      1  0.5120130000000  0.4480510000000  0.5332290000000 1.0
C      1  0.4896650000000  0.5008340000000  0.5582600000000 1.0
C      1  0.5117750000000  0.5483240000000  0.5265870000000 1.0
C      1  0.4850580000000  0.5493180000000  0.4716260000000 1.0
C      1  0.5107390000000  0.4984860000000  0.4443130000000 1.0
C      1  0.4860160000000  0.4484250000000  0.4737430000000 1.0
C      1  0.4672440000000  0.4930990000000  0.4484420000000 1.0
C      1  0.5587730000000  0.4390020000000  0.4876590000000 1.0
C      1  0.4648170000000  0.4602400000000  0.5312560000000 1.0
C      1  0.5533980000000  0.5163600000000  0.5605210000000 1.0
C      1  0.4461980000000  0.5619510000000  0.5201360000000 1.0
C      1  0.5536690000000  0.5408880000000  0.4554410000000 1.0
C      1  0.4833580000000  0.4728460000000  0.5051990000000 1.0
C      1  0.5076420000000  0.4864970000000  0.5246980000000 1.0
C      1  0.4886440000000  0.5119750000000  0.5202420000000 1.0
C      1  0.5050980000000  0.5246040000000  0.4954710000000 1.0
C      1  0.4843680000000  0.5094040000000  0.4731980000000 1.0
C      1  0.5041220000000  0.4832040000000  0.4803280000000 1.0
C      1  0.4382850000000  0.5380630000000  0.4669700000000 1.0
C      1  0.5547850000000  0.4819760000000  0.4549980000000 1.0
C      1  0.4379200000000  0.4542350000000  0.4833730000000 1.0
C      1  0.5569970000000  0.4668200000000  0.5367460000000 1.0
C      1  0.4431620000000  0.5140190000000  0.5483540000000 1.0
C      1  0.5557890000000  0.5437690000000  0.5088070000000 1.0
C      1  0.4451680000000  0.5063380000000  0.4660160000000 1.0
C      1  0.5486070000000  0.4675060000000  0.4843870000000 1.0
C      1  0.4426690000000  0.4704780000000  0.5118340000000 1.0
C      1  0.5464360000000  0.4991510000000  0.5363180000000 1.0
C      1  0.4506080000000  0.5317130000000  0.5201340000000 1.0
C      1  0.5457100000000  0.5275770000000  0.4817400000000 1.0
C      1  0.5342920000000  0.4975560000000  0.4774520000000 1.0
C      1  0.4573030000000  0.4827890000000  0.4857250000000 1.0
C      1  0.5366810000000  0.4776200000000  0.5119180000000 1.0
C      1  0.4577040000000  0.4985400000000  0.5224390000000 1.0
C      1  0.5339640000000  0.5173940000000  0.5119800000000 1.0
C      1  0.4585380000000  0.5226970000000  0.4908790000000 1.0
C      1  0.5107080000000  0.5851850000000  0.4925410000000 1.0
C      1  0.4938410000000  0.5415100000000  0.4226930000000 1.0
C      1  0.5090820000000  0.4492780000000  0.4297500000000 1.0
C      1  0.5176990000000  0.4168960000000  0.5006210000000 1.0
C      1  0.5139210000000  0.4648380000000  0.5813410000000 1.0
C      1  0.4862300000000  0.5497800000000  0.5675620000000 1.0
C      1  0.5382590000000  0.5001580000000  0.4377860000000 1.0
C      1  0.4597570000000  0.4495680000000  0.4635990000000 1.0
C      1  0.5399500000000  0.4426810000000  0.5311110000000 1.0
C      1  0.4624690000000  0.4948760000000  0.5619690000000 1.0
C      1  0.5390330000000  0.5514610000000  0.5322210000000 1.0
C      1  0.4586470000000  0.5586830000000  0.4735790000000 1.0
C      1  0.5494670000000  0.5256640000000  0.4329280000000 1.0
C      1  0.4603880000000  0.4677250000000  0.4414740000000 1.0
C      1  0.5442400000000  0.4256360000000  0.5081650000000 1.0
C      1  0.4590970000000  0.4671220000000  0.5568530000000 1.0
C      1  0.5492810000000  0.5434250000000  0.5573720000000 1.0
C      1  0.4515760000000  0.5747970000000  0.4961370000000 1.0
C      1  0.5031660000000  0.4660810000000  0.4512950000000 1.0
C      1  0.4964540000000  0.4414980000000  0.5035750000000 1.0
C      1  0.5062760000000  0.4727420000000  0.5555890000000 1.0
C      1  0.4944900000000  0.5315430000000  0.5477050000000 1.0
C      1  0.5034070000000  0.5584510000000  0.4963140000000 1.0
C      1  0.4953450000000  0.5286500000000  0.4473990000000 1.0
END
