TITL C-1154824-75-353 0.00141938502811511 125000 -300.99251297704 0 0 60 (S4) n - 1
REM
REM in /home/nfs/bkarasulu/CARBON/AIRSS/Generating-Clusters/AIREBO/Higher-Symm/Only-C60
REM
REM
REM
REM
REM
REM ./C.cell (28575a23ae977d3b5fae324c64b13b57)
REM
REM compiler GCC version 9.2.1 20190827 (Red Hat 9.2.1-1)
REM options -cpp -mtune=generic -march=x86-64 -g -O0 -fpre-include=/usr/include/finclude/math-vector-fortran.h
REM seed 2013635636 2021545889 -986508515 1908599960 133813654 -856488907 -2016057927 1195675005 -12140819 1256675057 2043413386 -119652926 -203413761 380992007 1127170987 -1200953522 973891522 -121941763 -923780915 1088605006 922546591 1820807209 2097646959 692437378 639760621 1758890711 1135874956 -931898816 -386311144 434952593 139063047 -1761137426 -598400513
REM
CELL 1.54180   50.00000   50.00000   50.00000   90.00000   90.00000   90.00000
LATT -1
SFAC C  
C      1  0.5006010000000  0.5679100000000  0.5356960000000 1.0
C      1  0.4827930000000  0.5432320000000  0.5648500000000 1.0
C      1  0.5202710000000  0.5051620000000  0.5760760000000 1.0
C      1  0.4993990000000  0.4643040000000  0.5679100000000 1.0
C      1  0.5172080000000  0.4351500000000  0.5432320000000 1.0
C      1  0.4797300000000  0.4239240000000  0.5051620000000 1.0
C      1  0.5006030000000  0.4320900000000  0.4643040000000 1.0
C      1  0.4827940000000  0.4567670000000  0.4351500000000 1.0
C      1  0.5202710000000  0.4948380000000  0.4239240000000 1.0
C      1  0.4993970000000  0.5356960000000  0.4320900000000 1.0
C      1  0.5172050000000  0.5648510000000  0.4567680000000 1.0
C      1  0.4797280000000  0.5760750000000  0.4948380000000 1.0
C      1  0.4597880000000  0.4988520000000  0.5622100000000 1.0
C      1  0.5564920000000  0.4666080000000  0.5449980000000 1.0
C      1  0.4572120000000  0.4464300000000  0.5290740000000 1.0
C      1  0.5402140000000  0.4377910000000  0.4988520000000 1.0
C      1  0.4435090000000  0.4550000000000  0.4666070000000 1.0
C      1  0.5427890000000  0.4709260000000  0.4464300000000 1.0
C      1  0.4597870000000  0.5011470000000  0.4377900000000 1.0
C      1  0.5564910000000  0.5333940000000  0.4550010000000 1.0
C      1  0.4572100000000  0.5535690000000  0.4709260000000 1.0
C      1  0.5402110000000  0.5622110000000  0.5011470000000 1.0
C      1  0.4435080000000  0.5449980000000  0.5333930000000 1.0
C      1  0.5427880000000  0.5290750000000  0.5535700000000 1.0
C      1  0.4763550000000  0.4780800000000  0.5140660000000 1.0
C      1  0.5227390000000  0.4730520000000  0.5019800000000 1.0
C      1  0.4716020000000  0.4757430000000  0.4874000000000 1.0
C      1  0.5236460000000  0.4859340000000  0.4780810000000 1.0
C      1  0.4772610000000  0.4980190000000  0.4730520000000 1.0
C      1  0.5283980000000  0.5126010000000  0.4757440000000 1.0
C      1  0.4763540000000  0.5219190000000  0.4859340000000 1.0
C      1  0.5227380000000  0.5269490000000  0.4980200000000 1.0
C      1  0.4716010000000  0.5242560000000  0.5126000000000 1.0
C      1  0.5236450000000  0.5140660000000  0.5219190000000 1.0
C      1  0.4772610000000  0.5019800000000  0.5269480000000 1.0
C      1  0.5283980000000  0.4874000000000  0.5242560000000 1.0
C      1  0.5301930000000  0.5527720000000  0.5320710000000 1.0
C      1  0.4582990000000  0.5291600000000  0.5556590000000 1.0
C      1  0.5478050000000  0.4971270000000  0.5578060000000 1.0
C      1  0.4698070000000  0.4679290000000  0.5527720000000 1.0
C      1  0.5417020000000  0.4443420000000  0.5291600000000 1.0
C      1  0.4521960000000  0.4421930000000  0.4971260000000 1.0
C      1  0.5301950000000  0.4472290000000  0.4679290000000 1.0
C      1  0.4582990000000  0.4708390000000  0.4443410000000 1.0
C      1  0.5478040000000  0.5028750000000  0.4421940000000 1.0
C      1  0.4698050000000  0.5320700000000  0.4472290000000 1.0
C      1  0.5417000000000  0.5556590000000  0.4708390000000 1.0
C      1  0.4521940000000  0.5578050000000  0.5028740000000 1.0
C      1  0.4758050000000  0.5530600000000  0.5268810000000 1.0
C      1  0.5093280000000  0.5309340000000  0.5477380000000 1.0
C      1  0.4930950000000  0.5023030000000  0.5562990000000 1.0
C      1  0.5241950000000  0.4731200000000  0.5530610000000 1.0
C      1  0.4906720000000  0.4522620000000  0.5309340000000 1.0
C      1  0.5069060000000  0.4437010000000  0.5023030000000 1.0
C      1  0.4758070000000  0.4469390000000  0.4731190000000 1.0
C      1  0.5093290000000  0.4690660000000  0.4522620000000 1.0
C      1  0.4930950000000  0.4976970000000  0.4437010000000 1.0
C      1  0.5241930000000  0.5268810000000  0.4469390000000 1.0
C      1  0.4906710000000  0.5477380000000  0.4690660000000 1.0
C      1  0.5069040000000  0.5562990000000  0.4976970000000 1.0
END
