TITL C-1154824-75-512 0.00359473462942536 125000 -359.850973678331 0 0 60 (C1) n - 1
REM
REM in /home/nfs/bkarasulu/CARBON/AIRSS/Generating-Clusters/AIREBO/Higher-Symm/Only-C60
REM
REM
REM
REM
REM
REM ./C.cell (28575a23ae977d3b5fae324c64b13b57)
REM
REM compiler GCC version 9.2.1 20190827 (Red Hat 9.2.1-1)
REM options -cpp -mtune=generic -march=x86-64 -g -O0 -fpre-include=/usr/include/finclude/math-vector-fortran.h
REM seed 1927296979 -1540341364 944151168 1913107616 1395589115 834448153 -1327433121 -1239876100 1811453997 1959399019 -1484034907 1387095334 -876460782 -904008152 -1018027859 1881418681 2080348966 115297200 149849596 777426462 -1709027090 -1164377370 -295667370 443166489 -593727313 -1065308263 -1397499598 849969589 -1804712230 402082015 1781262626 -1931699901 67452279
REM
CELL 1.54180   50.00000   50.00000   50.00000   90.00000   90.00000   90.00000
LATT -1
SFAC C  
C      1  0.4786250000000  0.5613000000000  0.5258180000000 1.0
C      1  0.5620230000000  0.5199100000000  0.4572460000000 1.0
C      1  0.5218930000000  0.4719130000000  0.5537630000000 1.0
C      1  0.5237530000000  0.5498760000000  0.4485460000000 1.0
C      1  0.5343380000000  0.4476930000000  0.5439510000000 1.0
C      1  0.4914360000000  0.4481710000000  0.4786160000000 1.0
C      1  0.4078070000000  0.5087950000000  0.5234960000000 1.0
C      1  0.4535120000000  0.4781530000000  0.4646670000000 1.0
C      1  0.5541530000000  0.4514590000000  0.5260640000000 1.0
C      1  0.4611270000000  0.4799980000000  0.4368110000000 1.0
C      1  0.4561710000000  0.5242850000000  0.5569800000000 1.0
C      1  0.5440280000000  0.5286660000000  0.4362780000000 1.0
C      1  0.4730010000000  0.4417480000000  0.5338390000000 1.0
C      1  0.5472200000000  0.4695720000000  0.4985360000000 1.0
C      1  0.5374370000000  0.5273160000000  0.5525510000000 1.0
C      1  0.5118600000000  0.4530310000000  0.4530990000000 1.0
C      1  0.5452270000000  0.5473210000000  0.5342440000000 1.0
C      1  0.4964080000000  0.5532150000000  0.4668180000000 1.0
C      1  0.4488100000000  0.4577510000000  0.5224220000000 1.0
C      1  0.4209390000000  0.5201320000000  0.5007390000000 1.0
C      1  0.5622000000000  0.5401060000000  0.5125690000000 1.0
C      1  0.4755520000000  0.5363750000000  0.4613900000000 1.0
C      1  0.4677680000000  0.4730800000000  0.5461440000000 1.0
C      1  0.5168070000000  0.4796260000000  0.4470140000000 1.0
C      1  0.5073020000000  0.4923390000000  0.5739030000000 1.0
C      1  0.5025000000000  0.5709720000000  0.5147440000000 1.0
C      1  0.5814440000000  0.5093090000000  0.4795330000000 1.0
C      1  0.4794880000000  0.5001980000000  0.4265690000000 1.0
C      1  0.4630070000000  0.5102670000000  0.5804430000000 1.0
C      1  0.5298610000000  0.5125350000000  0.4167750000000 1.0
C      1  0.5250880000000  0.5802550000000  0.4638630000000 1.0
C      1  0.5171970000000  0.4255260000000  0.5422810000000 1.0
C      1  0.4987320000000  0.4232630000000  0.4983650000000 1.0
C      1  0.4072840000000  0.4807950000000  0.5232180000000 1.0
C      1  0.4287350000000  0.4775700000000  0.4796320000000 1.0
C      1  0.5779460000000  0.4563630000000  0.5053370000000 1.0
C      1  0.5231460000000  0.5162500000000  0.5774040000000 1.0
C      1  0.4945450000000  0.4267620000000  0.5254490000000 1.0
C      1  0.5762540000000  0.4839160000000  0.4887510000000 1.0
C      1  0.4722970000000  0.5264230000000  0.4350520000000 1.0
C      1  0.4796720000000  0.4879130000000  0.5737050000000 1.0
C      1  0.5081210000000  0.4948840000000  0.4244950000000 1.0
C      1  0.5126000000000  0.4237340000000  0.4682940000000 1.0
C      1  0.5264130000000  0.5676410000000  0.5291020000000 1.0
C      1  0.5040080000000  0.5747910000000  0.4870950000000 1.0
C      1  0.4274910000000  0.4672470000000  0.5075980000000 1.0
C      1  0.4154450000000  0.5033020000000  0.4780230000000 1.0
C      1  0.5871790000000  0.5290100000000  0.4998420000000 1.0
C      1  0.4476660000000  0.5286180000000  0.5028380000000 1.0
C      1  0.5215800000000  0.4829210000000  0.4946410000000 1.0
C      1  0.5010860000000  0.4917620000000  0.5344780000000 1.0
C      1  0.5206630000000  0.4972890000000  0.4691510000000 1.0
C      1  0.4936840000000  0.4759750000000  0.4895690000000 1.0
C      1  0.5249320000000  0.5247220000000  0.4710330000000 1.0
C      1  0.5494770000000  0.5319740000000  0.4870650000000 1.0
C      1  0.4728700000000  0.4922530000000  0.4812300000000 1.0
C      1  0.4736400000000  0.5043650000000  0.5377680000000 1.0
C      1  0.4657350000000  0.5202150000000  0.4826380000000 1.0
C      1  0.5296520000000  0.5021080000000  0.5406260000000 1.0
C      1  0.4611670000000  0.5370430000000  0.5278920000000 1.0
END
