TITL C-1154828-9214-221 -3.6196468739587 125000 -339.509711386514 0 0 60 (C1) n - 1
REM
REM in /home/nfs/bkarasulu/CARBON/AIRSS/Generating-Clusters/AIREBO/Higher-Symm/Only-C60
REM
REM
REM
REM
REM
REM ./C.cell (28575a23ae977d3b5fae324c64b13b57)
REM
REM compiler GCC version 9.2.1 20190827 (Red Hat 9.2.1-1)
REM options -cpp -mtune=generic -march=x86-64 -g -O0 -fpre-include=/usr/include/finclude/math-vector-fortran.h
REM seed 838978279 1375310867 2132899716 1174528153 509674583 1946709997 -969591007 -431674293 689619786 -871933501 -1654903417 -72528156 368134775 1491865087 -1479116274 -1793149826 -1222583984 358804575 -693342778 288631059 -2103549388 1926661099 -671542137 -1049021493 730661843 -522484122 -1450191912 -2086697426 -1427368164 -1991074353 1919914549 928346232 187512757
REM
CELL 1.54180   50.00000   50.00000   50.00000   90.00000   90.00000   90.00000
LATT -1
SFAC C  
C      1  0.4526560000000  0.5124980000000  0.4670730000000 1.0
C      1  0.4692320000000  0.4595960000000  0.4687980000000 1.0
C      1  0.5351750000000  0.4524010000000  0.4639460000000 1.0
C      1  0.5623450000000  0.5215580000000  0.4613520000000 1.0
C      1  0.4973950000000  0.5583470000000  0.4639820000000 1.0
C      1  0.4917690000000  0.5652230000000  0.4931100000000 1.0
C      1  0.4414440000000  0.5096810000000  0.4931760000000 1.0
C      1  0.4643080000000  0.4483610000000  0.4951130000000 1.0
C      1  0.5388590000000  0.4489680000000  0.4932740000000 1.0
C      1  0.5577700000000  0.5301300000000  0.4903220000000 1.0
C      1  0.5763770000000  0.5286010000000  0.4396770000000 1.0
C      1  0.4918880000000  0.5663740000000  0.4389290000000 1.0
C      1  0.4462350000000  0.5070960000000  0.4393070000000 1.0
C      1  0.4566430000000  0.4513420000000  0.4461150000000 1.0
C      1  0.5431130000000  0.4340700000000  0.4453200000000 1.0
C      1  0.5597380000000  0.5067180000000  0.5072060000000 1.0
C      1  0.5163360000000  0.5620540000000  0.5082220000000 1.0
C      1  0.4466920000000  0.5315860000000  0.5113250000000 1.0
C      1  0.4445680000000  0.4614770000000  0.5108060000000 1.0
C      1  0.5202620000000  0.4378130000000  0.5111590000000 1.0
C      1  0.4956180000000  0.4752970000000  0.5055130000000 1.0
C      1  0.5232020000000  0.4907700000000  0.5058390000000 1.0
C      1  0.5213520000000  0.5175930000000  0.5137270000000 1.0
C      1  0.4920750000000  0.5273120000000  0.5053880000000 1.0
C      1  0.4773700000000  0.5019130000000  0.5122410000000 1.0
C      1  0.5227460000000  0.4450240000000  0.5413510000000 1.0
C      1  0.5548160000000  0.5044210000000  0.5375060000000 1.0
C      1  0.5166120000000  0.5536850000000  0.5375440000000 1.0
C      1  0.4487740000000  0.5272420000000  0.5416570000000 1.0
C      1  0.4508330000000  0.4658150000000  0.5402420000000 1.0
C      1  0.4949560000000  0.4399730000000  0.5572270000000 1.0
C      1  0.5610030000000  0.4758160000000  0.5510560000000 1.0
C      1  0.5448820000000  0.5518240000000  0.5510260000000 1.0
C      1  0.4657510000000  0.5514110000000  0.5558790000000 1.0
C      1  0.4293250000000  0.4830120000000  0.5547620000000 1.0
C      1  0.4711870000000  0.4468390000000  0.5565220000000 1.0
C      1  0.5507340000000  0.4530560000000  0.5513780000000 1.0
C      1  0.5603540000000  0.5319400000000  0.5517420000000 1.0
C      1  0.4897410000000  0.5579540000000  0.5553140000000 1.0
C      1  0.4274700000000  0.5081590000000  0.5539030000000 1.0
C      1  0.5048660000000  0.5230450000000  0.5429660000000 1.0
C      1  0.4768030000000  0.5135900000000  0.5495720000000 1.0
C      1  0.4769460000000  0.4828290000000  0.5400520000000 1.0
C      1  0.5070540000000  0.4726290000000  0.5376080000000 1.0
C      1  0.5245030000000  0.4968310000000  0.5474020000000 1.0
C      1  0.5146800000000  0.4843340000000  0.4276240000000 1.0
C      1  0.5188560000000  0.5135530000000  0.4241170000000 1.0
C      1  0.4924540000000  0.5215470000000  0.4344560000000 1.0
C      1  0.4698870000000  0.5032950000000  0.4236250000000 1.0
C      1  0.4876010000000  0.4799880000000  0.4172660000000 1.0
C      1  0.5199830000000  0.4773290000000  0.4571210000000 1.0
C      1  0.5338270000000  0.5052700000000  0.4701530000000 1.0
C      1  0.5101180000000  0.5294610000000  0.4766440000000 1.0
C      1  0.4845220000000  0.5102340000000  0.4651660000000 1.0
C      1  0.4922470000000  0.4805900000000  0.4720870000000 1.0
C      1  0.4927380000000  0.4426100000000  0.5035640000000 1.0
C      1  0.5474200000000  0.4807240000000  0.4893860000000 1.0
C      1  0.5350810000000  0.5474110000000  0.4911740000000 1.0
C      1  0.4685030000000  0.5480890000000  0.5028300000000 1.0
C      1  0.4303030000000  0.4836920000000  0.4991580000000 1.0
END
