TITL C-1154810-7815-694 -0.000643960724197158 125000 -351.298608874516 0 0 60 (C1) n - 1
REM
REM in /home/nfs/bkarasulu/CARBON/AIRSS/Generating-Clusters/AIREBO/Higher-Symm/Only-C60
REM
REM
REM
REM
REM
REM ./C.cell (28575a23ae977d3b5fae324c64b13b57)
REM
REM compiler GCC version 9.2.1 20190827 (Red Hat 9.2.1-1)
REM options -cpp -mtune=generic -march=x86-64 -g -O0 -fpre-include=/usr/include/finclude/math-vector-fortran.h
REM seed 1431031819 1324868298 -50669216 184082724 -2003119797 2144502171 -1343783618 188038100 263840285 -1950558652 1475823992 -1816445772 2072311491 1375564037 1639739575 427936882 -649945610 -733198145 -969217337 956513138 -998711263 -660514185 366537163 957011812 2086842065 -352786868 1922630606 -1495333698 -1004409404 1286813689 -1045318840 -559931437 1777102122
REM
CELL 1.54180   50.00000   50.00000   50.00000   90.00000   90.00000   90.00000
LATT -1
SFAC C  
C      1  0.4282660000000  0.5249200000000  0.4996410000000 1.0
C      1  0.5343560000000  0.5245920000000  0.4458530000000 1.0
C      1  0.5367740000000  0.5194980000000  0.5613010000000 1.0
C      1  0.4268980000000  0.4735880000000  0.5062170000000 1.0
C      1  0.5308440000000  0.4743870000000  0.4384790000000 1.0
C      1  0.5318010000000  0.4798460000000  0.5613630000000 1.0
C      1  0.5230400000000  0.5569910000000  0.5292410000000 1.0
C      1  0.4684720000000  0.5614800000000  0.5052880000000 1.0
C      1  0.5175280000000  0.5570720000000  0.4618190000000 1.0
C      1  0.5180030000000  0.4420870000000  0.5180030000000 1.0
C      1  0.4577300000000  0.4440820000000  0.5077400000000 1.0
C      1  0.5187800000000  0.4422610000000  0.4587970000000 1.0
C      1  0.4966050000000  0.4577670000000  0.5329700000000 1.0
C      1  0.4655970000000  0.4562650000000  0.4833090000000 1.0
C      1  0.5372210000000  0.4595430000000  0.4770670000000 1.0
C      1  0.4973560000000  0.5414630000000  0.5383450000000 1.0
C      1  0.4730340000000  0.5419440000000  0.4859030000000 1.0
C      1  0.5348860000000  0.5404980000000  0.4824640000000 1.0
C      1  0.5575560000000  0.4725320000000  0.5179790000000 1.0
C      1  0.4561700000000  0.4747750000000  0.5518990000000 1.0
C      1  0.4818260000000  0.4715020000000  0.4366910000000 1.0
C      1  0.5658300000000  0.5304090000000  0.5154870000000 1.0
C      1  0.4523230000000  0.5326680000000  0.5431180000000 1.0
C      1  0.4785690000000  0.5296520000000  0.4452140000000 1.0
C      1  0.4968290000000  0.5284370000000  0.4810070000000 1.0
C      1  0.5205880000000  0.5170110000000  0.5024900000000 1.0
C      1  0.4955340000000  0.5130690000000  0.5224530000000 1.0
C      1  0.4900500000000  0.4756480000000  0.4847360000000 1.0
C      1  0.5208870000000  0.4849130000000  0.4912620000000 1.0
C      1  0.4831350000000  0.4847300000000  0.5168310000000 1.0
C      1  0.4698010000000  0.5529890000000  0.5317280000000 1.0
C      1  0.4987870000000  0.5515670000000  0.4419390000000 1.0
C      1  0.5428830000000  0.5517410000000  0.5114720000000 1.0
C      1  0.4659830000000  0.4527140000000  0.5333110000000 1.0
C      1  0.5008350000000  0.4479680000000  0.4386320000000 1.0
C      1  0.5396130000000  0.4532810000000  0.5070270000000 1.0
C      1  0.4664030000000  0.5201110000000  0.5659430000000 1.0
C      1  0.4517020000000  0.5107340000000  0.4476540000000 1.0
C      1  0.5733660000000  0.5150870000000  0.4928420000000 1.0
C      1  0.4699790000000  0.4916570000000  0.5694170000000 1.0
C      1  0.4568300000000  0.4801710000000  0.4436920000000 1.0
C      1  0.5718990000000  0.4863380000000  0.4952610000000 1.0
C      1  0.5654560000000  0.4717040000000  0.4704950000000 1.0
C      1  0.5078830000000  0.4600780000000  0.5601570000000 1.0
C      1  0.4459990000000  0.4654340000000  0.4652810000000 1.0
C      1  0.5600940000000  0.5273770000000  0.4679820000000 1.0
C      1  0.4930590000000  0.5324130000000  0.5672050000000 1.0
C      1  0.4492410000000  0.5305180000000  0.4746100000000 1.0
C      1  0.5133810000000  0.5148500000000  0.5742530000000 1.0
C      1  0.4249930000000  0.5073900000000  0.4711970000000 1.0
C      1  0.5618010000000  0.5091740000000  0.4409070000000 1.0
C      1  0.5007190000000  0.4862530000000  0.5770400000000 1.0
C      1  0.4256930000000  0.4785030000000  0.4791330000000 1.0
C      1  0.5575540000000  0.4818530000000  0.4447420000000 1.0
C      1  0.5468910000000  0.4874980000000  0.5395620000000 1.0
C      1  0.4497900000000  0.4877030000000  0.5228090000000 1.0
C      1  0.5045960000000  0.4841540000000  0.4551430000000 1.0
C      1  0.5415580000000  0.5161720000000  0.5293670000000 1.0
C      1  0.4396660000000  0.5164060000000  0.5239790000000 1.0
C      1  0.5070600000000  0.5145310000000  0.4542540000000 1.0
END
