TITL C-1154826-9507-683 -6.92222195931484e-05 125000 -336.372223542005 0 0 60 (C1) n - 1
REM
REM in /home/nfs/bkarasulu/CARBON/AIRSS/Generating-Clusters/AIREBO/Higher-Symm/Only-C60
REM
REM
REM
REM
REM
REM ./C.cell (28575a23ae977d3b5fae324c64b13b57)
REM
REM compiler GCC version 9.2.1 20190827 (Red Hat 9.2.1-1)
REM options -cpp -mtune=generic -march=x86-64 -g -O0 -fpre-include=/usr/include/finclude/math-vector-fortran.h
REM seed 2081953186 -956899069 -1656016031 1931223026 1820760190 -1216539951 560539676 -1775459757 -1929085356 1657258524 -250592507 11047743 247005238 -307170054 1782537788 -886845065 -876506351 649292736 -814598507 -463008345 -1407735725 1329679564 -1381934763 -912922803 1417615316 20528832 -1587448457 -353158440 -230483891 -1226620111 856277664 -758379228 2100569226
REM
CELL 1.54180   50.00000   50.00000   50.00000   90.00000   90.00000   90.00000
LATT -1
SFAC C  
C      1  0.4956990000000  0.4983750000000  0.4177730000000 1.0
C      1  0.5178840000000  0.5065360000000  0.4332850000000 1.0
C      1  0.5209500000000  0.5353730000000  0.4336270000000 1.0
C      1  0.5049120000000  0.5506860000000  0.4517490000000 1.0
C      1  0.4710130000000  0.5102580000000  0.4251310000000 1.0
C      1  0.5350430000000  0.4193810000000  0.4751260000000 1.0
C      1  0.5983150000000  0.5226350000000  0.5319570000000 1.0
C      1  0.4933290000000  0.5837300000000  0.4843890000000 1.0
C      1  0.4142540000000  0.5364770000000  0.5432690000000 1.0
C      1  0.4274340000000  0.4380280000000  0.5112050000000 1.0
C      1  0.3893950000000  0.4661120000000  0.5005850000000 1.0
C      1  0.5108440000000  0.3849960000000  0.4983820000000 1.0
C      1  0.6142460000000  0.4807180000000  0.5128730000000 1.0
C      1  0.5387950000000  0.5807440000000  0.4719110000000 1.0
C      1  0.4316300000000  0.5236520000000  0.3912090000000 1.0
C      1  0.5120710000000  0.5746280000000  0.4653280000000 1.0
C      1  0.4502940000000  0.5159210000000  0.4079060000000 1.0
C      1  0.4017700000000  0.4417460000000  0.5033250000000 1.0
C      1  0.5318960000000  0.3935080000000  0.4829690000000 1.0
C      1  0.6177970000000  0.5057080000000  0.5234270000000 1.0
C      1  0.5514410000000  0.5757500000000  0.4955670000000 1.0
C      1  0.4412980000000  0.5674740000000  0.5392050000000 1.0
C      1  0.4038170000000  0.4893340000000  0.5013090000000 1.0
C      1  0.4953350000000  0.4017490000000  0.5131750000000 1.0
C      1  0.5919330000000  0.4711770000000  0.5006710000000 1.0
C      1  0.5294410000000  0.4440570000000  0.4801910000000 1.0
C      1  0.5746870000000  0.5336590000000  0.5256870000000 1.0
C      1  0.4868480000000  0.5742520000000  0.5092420000000 1.0
C      1  0.4356940000000  0.5284700000000  0.5315990000000 1.0
C      1  0.4540920000000  0.4387490000000  0.5107910000000 1.0
C      1  0.4663990000000  0.4957640000000  0.5712730000000 1.0
C      1  0.4928920000000  0.4534830000000  0.5606330000000 1.0
C      1  0.5414700000000  0.4636450000000  0.5517940000000 1.0
C      1  0.5418610000000  0.5109800000000  0.5668400000000 1.0
C      1  0.4972730000000  0.5385580000000  0.5696060000000 1.0
C      1  0.4699990000000  0.5146330000000  0.4535470000000 1.0
C      1  0.4642370000000  0.4912560000000  0.4685610000000 1.0
C      1  0.5257300000000  0.4939460000000  0.4571720000000 1.0
C      1  0.5404080000000  0.5114810000000  0.4735250000000 1.0
C      1  0.4864900000000  0.5341840000000  0.4659470000000 1.0
C      1  0.4283830000000  0.4965830000000  0.5088250000000 1.0
C      1  0.4811730000000  0.4244850000000  0.5139520000000 1.0
C      1  0.5655430000000  0.4686300000000  0.5019590000000 1.0
C      1  0.5580840000000  0.5569590000000  0.5138870000000 1.0
C      1  0.4649330000000  0.5624370000000  0.5280990000000 1.0
C      1  0.4558710000000  0.5052190000000  0.5222930000000 1.0
C      1  0.4815790000000  0.4582060000000  0.5120670000000 1.0
C      1  0.5344780000000  0.4688120000000  0.5028120000000 1.0
C      1  0.5421490000000  0.5277330000000  0.5194380000000 1.0
C      1  0.4905560000000  0.5425850000000  0.5197840000000 1.0
C      1  0.4968830000000  0.5268960000000  0.4936480000000 1.0
C      1  0.4802500000000  0.5029150000000  0.5029560000000 1.0
C      1  0.4859780000000  0.4756390000000  0.4870100000000 1.0
C      1  0.5142090000000  0.4727090000000  0.4757560000000 1.0
C      1  0.5276850000000  0.5239730000000  0.4935430000000 1.0
C      1  0.4788310000000  0.4987770000000  0.5431460000000 1.0
C      1  0.4940110000000  0.4722870000000  0.5360400000000 1.0
C      1  0.5244840000000  0.4793030000000  0.5306410000000 1.0
C      1  0.5273720000000  0.5108640000000  0.5395050000000 1.0
C      1  0.4986330000000  0.5231740000000  0.5428750000000 1.0
END
