TITL C-1154826-9507-589 7.9689142880091e-05 125000 -301.064695312751 0 0 60 (C1) n - 1
REM
REM in /home/nfs/bkarasulu/CARBON/AIRSS/Generating-Clusters/AIREBO/Higher-Symm/Only-C60
REM
REM
REM
REM
REM
REM ./C.cell (28575a23ae977d3b5fae324c64b13b57)
REM
REM compiler GCC version 9.2.1 20190827 (Red Hat 9.2.1-1)
REM options -cpp -mtune=generic -march=x86-64 -g -O0 -fpre-include=/usr/include/finclude/math-vector-fortran.h
REM seed 1411945021 1961497173 -1555650852 1980077392 676552223 1577461512 -164272608 1344670550 -1065948105 -1897723666 412512923 1136165135 -1531875238 538240411 -2067399701 -79343944 -223993739 -1113369205 -1242854669 931607409 -1716074736 -757308187 -1044303853 1723559770 -1173581682 342941733 465724592 -465361642 -626317901 1951259025 -1894164328 -1116278923 909428407
REM
CELL 1.54180   50.00000   50.00000   50.00000   90.00000   90.00000   90.00000
LATT -1
SFAC C  
C      1  0.5319030000000  0.5455870000000  0.5614110000000 1.0
C      1  0.5277010000000  0.4803070000000  0.5709660000000 1.0
C      1  0.5350360000000  0.4371120000000  0.5263750000000 1.0
C      1  0.5291280000000  0.4375410000000  0.4605000000000 1.0
C      1  0.5320600000000  0.4874930000000  0.4234360000000 1.0
C      1  0.5329860000000  0.5453200000000  0.4407310000000 1.0
C      1  0.5281190000000  0.5687100000000  0.5016740000000 1.0
C      1  0.4673200000000  0.4684530000000  0.4327900000000 1.0
C      1  0.4556620000000  0.5268890000000  0.4215490000000 1.0
C      1  0.4599090000000  0.5594350000000  0.4733870000000 1.0
C      1  0.4543670000000  0.5628010000000  0.5345760000000 1.0
C      1  0.4561410000000  0.5109180000000  0.5676360000000 1.0
C      1  0.4578370000000  0.4529690000000  0.5511110000000 1.0
C      1  0.4563080000000  0.4460570000000  0.4919090000000 1.0
C      1  0.5055270000000  0.4474110000000  0.4818710000000 1.0
C      1  0.5124530000000  0.4863490000000  0.4509830000000 1.0
C      1  0.5121950000000  0.5182550000000  0.4613850000000 1.0
C      1  0.5013010000000  0.5513820000000  0.4911250000000 1.0
C      1  0.5054470000000  0.5461170000000  0.5415540000000 1.0
C      1  0.5021940000000  0.4995730000000  0.5593700000000 1.0
C      1  0.5112090000000  0.4528540000000  0.5420210000000 1.0
C      1  0.4380740000000  0.5317870000000  0.5026270000000 1.0
C      1  0.4615700000000  0.5246710000000  0.5250240000000 1.0
C      1  0.4525790000000  0.4954950000000  0.5296090000000 1.0
C      1  0.4762070000000  0.4780590000000  0.5262940000000 1.0
C      1  0.4375160000000  0.4702970000000  0.4782260000000 1.0
C      1  0.4779140000000  0.4962560000000  0.4988180000000 1.0
C      1  0.4593790000000  0.5199600000000  0.4856670000000 1.0
C      1  0.4585060000000  0.5659950000000  0.5005170000000 1.0
C      1  0.4554000000000  0.5443140000000  0.5591150000000 1.0
C      1  0.4581480000000  0.4831940000000  0.5672140000000 1.0
C      1  0.4531350000000  0.4434690000000  0.5256950000000 1.0
C      1  0.4615670000000  0.4459640000000  0.4581150000000 1.0
C      1  0.4616480000000  0.4957910000000  0.4272910000000 1.0
C      1  0.4624460000000  0.5460400000000  0.4420710000000 1.0
C      1  0.4667030000000  0.5085400000000  0.4550740000000 1.0
C      1  0.4834250000000  0.5357400000000  0.4667960000000 1.0
C      1  0.4824600000000  0.5510080000000  0.5194400000000 1.0
C      1  0.4825830000000  0.5252410000000  0.5517540000000 1.0
C      1  0.4872620000000  0.4691370000000  0.5566170000000 1.0
C      1  0.4838220000000  0.4570190000000  0.5030340000000 1.0
C      1  0.4897930000000  0.4649500000000  0.4580870000000 1.0
C      1  0.5333610000000  0.4558730000000  0.4357270000000 1.0
C      1  0.5316070000000  0.5164170000000  0.4333250000000 1.0
C      1  0.5287810000000  0.5532870000000  0.4711870000000 1.0
C      1  0.5347810000000  0.5531540000000  0.5281360000000 1.0
C      1  0.5320400000000  0.5133050000000  0.5635600000000 1.0
C      1  0.5431890000000  0.4620580000000  0.5482240000000 1.0
C      1  0.5346980000000  0.4405250000000  0.4948340000000 1.0
C      1  0.5536850000000  0.4627580000000  0.4823210000000 1.0
C      1  0.5650980000000  0.5121740000000  0.4929330000000 1.0
C      1  0.5348720000000  0.5245630000000  0.4856470000000 1.0
C      1  0.5482780000000  0.5283960000000  0.5164600000000 1.0
C      1  0.5504160000000  0.5087910000000  0.5395070000000 1.0
C      1  0.5583730000000  0.4835490000000  0.5333750000000 1.0
C      1  0.5656010000000  0.4820320000000  0.5030470000000 1.0
C      1  0.5322610000000  0.4886980000000  0.5037160000000 1.0
C      1  0.5435350000000  0.4747160000000  0.4592380000000 1.0
C      1  0.4652370000000  0.4825410000000  0.4737040000000 1.0
C      1  0.5068100000000  0.4821290000000  0.5014360000000 1.0
END
