TITL C-1154830-9999-362 0.000104057417986417 125000 -322.866622001755 0 0 60 (C1) n - 1
REM
REM in /home/nfs/bkarasulu/CARBON/AIRSS/Generating-Clusters/AIREBO/Higher-Symm/Only-C60
REM
REM
REM
REM
REM
REM ./C.cell (28575a23ae977d3b5fae324c64b13b57)
REM
REM compiler GCC version 9.2.1 20190827 (Red Hat 9.2.1-1)
REM options -cpp -mtune=generic -march=x86-64 -g -O0 -fpre-include=/usr/include/finclude/math-vector-fortran.h
REM seed 693192103 -1869507825 1097477448 -192440571 606204277 1356793292 1164652241 -302659293 -2052898779 -849446497 -1796785377 2137396032 508439364 -1701825225 1967961135 1876907246 706553415 2063815617 -680427473 729897183 -817196204 1527386390 939339441 11328402 1045341751 751566067 -17140335 591191469 -1946094888 1183606534 1981465528 621479964 -1735277126
REM
CELL 1.54180   50.00000   50.00000   50.00000   90.00000   90.00000   90.00000
LATT -1
SFAC C  
C      1  0.4784500000000  0.5266860000000  0.4515340000000 1.0
C      1  0.4805290000000  0.4755110000000  0.5471680000000 1.0
C      1  0.5078890000000  0.5282900000000  0.4542890000000 1.0
C      1  0.5091120000000  0.4733300000000  0.5447540000000 1.0
C      1  0.5239920000000  0.4475390000000  0.4772790000000 1.0
C      1  0.5092020000000  0.5518850000000  0.5230690000000 1.0
C      1  0.4928580000000  0.4515560000000  0.4780110000000 1.0
C      1  0.4787150000000  0.5516400000000  0.5208090000000 1.0
C      1  0.4635370000000  0.4395440000000  0.5454920000000 1.0
C      1  0.4604680000000  0.5618210000000  0.4548370000000 1.0
C      1  0.5306250000000  0.4407830000000  0.5528200000000 1.0
C      1  0.5314790000000  0.5606390000000  0.4512700000000 1.0
C      1  0.5416280000000  0.5304130000000  0.4581110000000 1.0
C      1  0.5428610000000  0.4701430000000  0.5417610000000 1.0
C      1  0.4479530000000  0.5320920000000  0.4656160000000 1.0
C      1  0.4498880000000  0.4684370000000  0.5342090000000 1.0
C      1  0.5522360000000  0.5706100000000  0.5037770000000 1.0
C      1  0.5495670000000  0.4181290000000  0.4859620000000 1.0
C      1  0.4450570000000  0.5847340000000  0.5081250000000 1.0
C      1  0.4520600000000  0.4202760000000  0.4881790000000 1.0
C      1  0.5255140000000  0.4937380000000  0.5145510000000 1.0
C      1  0.5250940000000  0.5063970000000  0.4867480000000 1.0
C      1  0.4764040000000  0.4959610000000  0.5132310000000 1.0
C      1  0.4756200000000  0.5058100000000  0.4852960000000 1.0
C      1  0.5517650000000  0.4711750000000  0.4623030000000 1.0
C      1  0.5532810000000  0.5322350000000  0.5314280000000 1.0
C      1  0.4539040000000  0.4655720000000  0.4610190000000 1.0
C      1  0.4560350000000  0.5318060000000  0.5444860000000 1.0
C      1  0.5128010000000  0.5718110000000  0.4682530000000 1.0
C      1  0.5126300000000  0.4293840000000  0.5346160000000 1.0
C      1  0.4852230000000  0.5737090000000  0.4659820000000 1.0
C      1  0.4846310000000  0.4291330000000  0.5307720000000 1.0
C      1  0.5632020000000  0.4643650000000  0.5150830000000 1.0
C      1  0.5664130000000  0.5279350000000  0.4821130000000 1.0
C      1  0.4360460000000  0.4648720000000  0.5037970000000 1.0
C      1  0.4357370000000  0.5348640000000  0.4973200000000 1.0
C      1  0.4296980000000  0.5101340000000  0.5100690000000 1.0
C      1  0.4289890000000  0.4894420000000  0.4920720000000 1.0
C      1  0.5762370000000  0.5085150000000  0.5069190000000 1.0
C      1  0.5843110000000  0.4816810000000  0.5130040000000 1.0
C      1  0.5145210000000  0.5364430000000  0.4866260000000 1.0
C      1  0.5162830000000  0.4629310000000  0.5131860000000 1.0
C      1  0.4829120000000  0.5371610000000  0.4838900000000 1.0
C      1  0.4844290000000  0.4655130000000  0.5144400000000 1.0
C      1  0.5265950000000  0.4312820000000  0.5070260000000 1.0
C      1  0.5225180000000  0.5671170000000  0.4985770000000 1.0
C      1  0.4777720000000  0.4354290000000  0.5000380000000 1.0
C      1  0.4699970000000  0.5671990000000  0.4932320000000 1.0
C      1  0.5520160000000  0.5010050000000  0.4687380000000 1.0
C      1  0.5534430000000  0.4998830000000  0.5306280000000 1.0
C      1  0.4489000000000  0.4981870000000  0.4681720000000 1.0
C      1  0.4509240000000  0.5023800000000  0.5322740000000 1.0
C      1  0.4445520000000  0.4486160000000  0.4821620000000 1.0
C      1  0.4448980000000  0.5534750000000  0.5207660000000 1.0
C      1  0.5557620000000  0.4514380000000  0.4888250000000 1.0
C      1  0.5631860000000  0.5460830000000  0.5085090000000 1.0
C      1  0.4843480000000  0.4802700000000  0.4651070000000 1.0
C      1  0.4864320000000  0.5207790000000  0.5328140000000 1.0
C      1  0.5183050000000  0.4797490000000  0.4667990000000 1.0
C      1  0.5205640000000  0.5224650000000  0.5320570000000 1.0
END
