TITL C-1154829-9094-70 0.000120832112777782 125000 -329.198611651862 0 0 60 (C1) n - 1
REM
REM in /home/nfs/bkarasulu/CARBON/AIRSS/Generating-Clusters/AIREBO/Higher-Symm/Only-C60
REM
REM
REM
REM
REM
REM ./C.cell (28575a23ae977d3b5fae324c64b13b57)
REM
REM compiler GCC version 9.2.1 20190827 (Red Hat 9.2.1-1)
REM options -cpp -mtune=generic -march=x86-64 -g -O0 -fpre-include=/usr/include/finclude/math-vector-fortran.h
REM seed -2061354149 -183012565 -433878316 -1306902736 -386834229 1216961231 1904728637 2109713157 -1231956797 -2137911553 1787750746 -1216666493 -725579696 -668751692 144410797 1727946669 -790304783 -2007529658 -1038284126 -2091351422 1276200742 1936508894 -1228348324 394412089 231789754 -827568815 -437465817 905559221 -1620801095 1473504727 155754536 990458368 -126822696
REM
CELL 1.54180   50.00000   50.00000   50.00000   90.00000   90.00000   90.00000
LATT -1
SFAC C  
C      1  0.4294620000000  0.5062480000000  0.4668410000000 1.0
C      1  0.5610620000000  0.4995130000000  0.5281650000000 1.0
C      1  0.5609940000000  0.5462640000000  0.4839390000000 1.0
C      1  0.4635860000000  0.5651680000000  0.5202320000000 1.0
C      1  0.4877930000000  0.5684540000000  0.4496840000000 1.0
C      1  0.5145390000000  0.5619260000000  0.5558690000000 1.0
C      1  0.4660370000000  0.4318840000000  0.4863810000000 1.0
C      1  0.5424710000000  0.4311610000000  0.5144430000000 1.0
C      1  0.4809900000000  0.4496920000000  0.4380610000000 1.0
C      1  0.5033340000000  0.4540500000000  0.5577520000000 1.0
C      1  0.5208690000000  0.4405990000000  0.5322670000000 1.0
C      1  0.4902600000000  0.4436160000000  0.4687190000000 1.0
C      1  0.4878940000000  0.4947310000000  0.5239840000000 1.0
C      1  0.5082030000000  0.4844940000000  0.4646760000000 1.0
C      1  0.5262040000000  0.5390250000000  0.5131010000000 1.0
C      1  0.4680260000000  0.5369510000000  0.4807310000000 1.0
C      1  0.5303360000000  0.5415590000000  0.5463260000000 1.0
C      1  0.4655470000000  0.5564500000000  0.4547610000000 1.0
C      1  0.5160750000000  0.4865700000000  0.5113470000000 1.0
C      1  0.4808360000000  0.4908790000000  0.4838320000000 1.0
C      1  0.5111650000000  0.5382150000000  0.4288430000000 1.0
C      1  0.4893530000000  0.5367000000000  0.5791500000000 1.0
C      1  0.5649350000000  0.4469400000000  0.5149820000000 1.0
C      1  0.4443260000000  0.4500640000000  0.4915280000000 1.0
C      1  0.5586560000000  0.5289130000000  0.5120460000000 1.0
C      1  0.4403560000000  0.5193040000000  0.4897020000000 1.0
C      1  0.5072540000000  0.4870720000000  0.4365280000000 1.0
C      1  0.4794500000000  0.4965730000000  0.5537850000000 1.0
C      1  0.5002560000000  0.5131620000000  0.5696650000000 1.0
C      1  0.4989960000000  0.5142300000000  0.4288680000000 1.0
C      1  0.4950440000000  0.5359370000000  0.5263790000000 1.0
C      1  0.4982330000000  0.5245580000000  0.4711780000000 1.0
C      1  0.4833190000000  0.5536580000000  0.5529580000000 1.0
C      1  0.5153890000000  0.5514070000000  0.4598950000000 1.0
C      1  0.4771360000000  0.4210110000000  0.5102860000000 1.0
C      1  0.5336470000000  0.4272310000000  0.4880010000000 1.0
C      1  0.5412420000000  0.4946750000000  0.5480960000000 1.0
C      1  0.4480720000000  0.4923780000000  0.4529280000000 1.0
C      1  0.4979480000000  0.4642950000000  0.4227890000000 1.0
C      1  0.4806600000000  0.4675970000000  0.5651060000000 1.0
C      1  0.4788520000000  0.5173090000000  0.5051580000000 1.0
C      1  0.5168750000000  0.5136960000000  0.4937400000000 1.0
C      1  0.5649330000000  0.5040250000000  0.4897450000000 1.0
C      1  0.4429400000000  0.5020760000000  0.5134920000000 1.0
C      1  0.4573110000000  0.5415130000000  0.5381840000000 1.0
C      1  0.5441190000000  0.5354850000000  0.4646820000000 1.0
C      1  0.4488450000000  0.4747730000000  0.5075430000000 1.0
C      1  0.5612490000000  0.4752490000000  0.5040520000000 1.0
C      1  0.4669700000000  0.4677670000000  0.4630910000000 1.0
C      1  0.5240930000000  0.4723570000000  0.5382560000000 1.0
C      1  0.4808570000000  0.4677840000000  0.5090660000000 1.0
C      1  0.5342700000000  0.4791490000000  0.4837120000000 1.0
C      1  0.4551860000000  0.5136020000000  0.5370970000000 1.0
C      1  0.5456890000000  0.5066270000000  0.4669760000000 1.0
C      1  0.5107400000000  0.5609570000000  0.4922070000000 1.0
C      1  0.4816060000000  0.5613060000000  0.4985770000000 1.0
C      1  0.5267750000000  0.5160790000000  0.5588930000000 1.0
C      1  0.4768660000000  0.5066450000000  0.4535440000000 1.0
C      1  0.4905910000000  0.4418510000000  0.5219330000000 1.0
C      1  0.5212790000000  0.4485960000000  0.4762280000000 1.0
END
