TITL C-1154824-75-162 0.00399505878917143 125000 -333.209596687997 0 0 60 (C1) n - 1
REM
REM in /home/nfs/bkarasulu/CARBON/AIRSS/Generating-Clusters/AIREBO/Higher-Symm/Only-C60
REM
REM
REM
REM
REM
REM ./C.cell (28575a23ae977d3b5fae324c64b13b57)
REM
REM compiler GCC version 9.2.1 20190827 (Red Hat 9.2.1-1)
REM options -cpp -mtune=generic -march=x86-64 -g -O0 -fpre-include=/usr/include/finclude/math-vector-fortran.h
REM seed -913006445 1720774718 1937504521 -1084497764 641693716 -74845151 820399705 1054393888 -1903141106 -1214039540 -992565308 587314907 -330536610 1761152945 -1220086205 -1305321285 -1164507608 69695027 -425026425 957236424 -1930599571 1289689966 172521741 1001264651 173086872 -1073705030 -852311109 340823264 1962519412 -1633015409 -229213000 907800652 -642529476
REM
CELL 1.54180   50.00000   50.00000   50.00000   90.00000   90.00000   90.00000
LATT -1
SFAC C  
C      1  0.5023610000000  0.4853100000000  0.5201980000000 1.0
C      1  0.5028950000000  0.5162380000000  0.5205350000000 1.0
C      1  0.5042190000000  0.5255300000000  0.4910200000000 1.0
C      1  0.5073770000000  0.4999110000000  0.4726300000000 1.0
C      1  0.5075730000000  0.4751700000000  0.4913590000000 1.0
C      1  0.5278170000000  0.4284330000000  0.5029710000000 1.0
C      1  0.5225210000000  0.4890930000000  0.5660630000000 1.0
C      1  0.5284050000000  0.5551720000000  0.5426840000000 1.0
C      1  0.5282570000000  0.5581340000000  0.4614640000000 1.0
C      1  0.5267660000000  0.4784750000000  0.4317120000000 1.0
C      1  0.5477710000000  0.4972520000000  0.5203820000000 1.0
C      1  0.5513760000000  0.5194950000000  0.4947700000000 1.0
C      1  0.5583140000000  0.5057080000000  0.4703980000000 1.0
C      1  0.5726280000000  0.4826390000000  0.4788400000000 1.0
C      1  0.5570820000000  0.4730570000000  0.4996260000000 1.0
C      1  0.4551060000000  0.5152960000000  0.4760530000000 1.0
C      1  0.4579750000000  0.4829790000000  0.4765180000000 1.0
C      1  0.4502990000000  0.4743060000000  0.5065580000000 1.0
C      1  0.4520050000000  0.5004670000000  0.5255500000000 1.0
C      1  0.4537110000000  0.5263960000000  0.5065250000000 1.0
C      1  0.4772890000000  0.5723660000000  0.5069450000000 1.0
C      1  0.4763330000000  0.5296110000000  0.4319240000000 1.0
C      1  0.4776940000000  0.4464660000000  0.4550200000000 1.0
C      1  0.4878550000000  0.4405760000000  0.5402990000000 1.0
C      1  0.4744770000000  0.5160830000000  0.5713800000000 1.0
C      1  0.5271380000000  0.4767240000000  0.5380480000000 1.0
C      1  0.5321040000000  0.5240560000000  0.5335670000000 1.0
C      1  0.5312450000000  0.5407590000000  0.4894290000000 1.0
C      1  0.5335120000000  0.5012200000000  0.4542760000000 1.0
C      1  0.5332560000000  0.4578160000000  0.4905190000000 1.0
C      1  0.4654900000000  0.4328120000000  0.4836800000000 1.0
C      1  0.4707800000000  0.4648150000000  0.5570680000000 1.0
C      1  0.4641150000000  0.5433730000000  0.5562320000000 1.0
C      1  0.4651570000000  0.5672970000000  0.4760510000000 1.0
C      1  0.4637170000000  0.4981320000000  0.4294580000000 1.0
C      1  0.4784840000000  0.4619160000000  0.4917990000000 1.0
C      1  0.4746630000000  0.4765300000000  0.5290400000000 1.0
C      1  0.4747350000000  0.5240400000000  0.5321820000000 1.0
C      1  0.4765970000000  0.5384390000000  0.4858850000000 1.0
C      1  0.4795670000000  0.5002530000000  0.4586780000000 1.0
C      1  0.5208280000000  0.4469230000000  0.5442980000000 1.0
C      1  0.5228300000000  0.5165710000000  0.5633790000000 1.0
C      1  0.5265590000000  0.5713680000000  0.4991410000000 1.0
C      1  0.5258680000000  0.5203160000000  0.4290830000000 1.0
C      1  0.5278820000000  0.4387390000000  0.4643320000000 1.0
C      1  0.5013220000000  0.5575470000000  0.5538880000000 1.0
C      1  0.5012670000000  0.5702760000000  0.4595750000000 1.0
C      1  0.4996670000000  0.4828860000000  0.4216590000000 1.0
C      1  0.5016080000000  0.4199010000000  0.4945150000000 1.0
C      1  0.5022620000000  0.4743130000000  0.5797830000000 1.0
C      1  0.5000580000000  0.5323530000000  0.5696240000000 1.0
C      1  0.5008860000000  0.5798300000000  0.4885810000000 1.0
C      1  0.4993660000000  0.5130040000000  0.4196970000000 1.0
C      1  0.5003720000000  0.4277100000000  0.4651420000000 1.0
C      1  0.5028530000000  0.4461940000000  0.5711020000000 1.0
C      1  0.4767720000000  0.4674600000000  0.4362120000000 1.0
C      1  0.4793780000000  0.4283810000000  0.5135830000000 1.0
C      1  0.4750150000000  0.4878400000000  0.5768730000000 1.0
C      1  0.4783170000000  0.5637510000000  0.5336570000000 1.0
C      1  0.4782240000000  0.5522890000000  0.4485400000000 1.0
END
