TITL C-1154821-8623-80 0.000553126730786483 125000 -329.724068608717 0 0 60 (C1) n - 1
REM
REM in /home/nfs/bkarasulu/CARBON/AIRSS/Generating-Clusters/AIREBO/Higher-Symm/Only-C60
REM
REM
REM
REM
REM
REM ./C.cell (28575a23ae977d3b5fae324c64b13b57)
REM
REM compiler GCC version 9.2.1 20190827 (Red Hat 9.2.1-1)
REM options -cpp -mtune=generic -march=x86-64 -g -O0 -fpre-include=/usr/include/finclude/math-vector-fortran.h
REM seed 1274578294 -1114904031 1520511811 -628315454 -2136454862 -1680137416 -1552803351 -402948062 -601690020 1700004229 1639776224 -440176063 1666998180 828691859 633006490 -1611919401 216434791 -680646279 806673313 546030558 1853098745 61969511 -205850938 293496954 -451467463 1479294058 323798093 -2145664266 2022821637 -2064142365 -314433171 1841825543 -832888276
REM
CELL 1.54180   50.00000   50.00000   50.00000   90.00000   90.00000   90.00000
LATT -1
SFAC C  
C      1  0.5441900000000  0.5361000000000  0.5414150000000 1.0
C      1  0.5420590000000  0.5530400000000  0.4978720000000 1.0
C      1  0.5485400000000  0.5317280000000  0.4547540000000 1.0
C      1  0.5403490000000  0.4860690000000  0.4384490000000 1.0
C      1  0.5453120000000  0.4370160000000  0.4778720000000 1.0
C      1  0.5441370000000  0.4448480000000  0.5381890000000 1.0
C      1  0.5420410000000  0.4896400000000  0.5530140000000 1.0
C      1  0.5000620000000  0.5588580000000  0.5304720000000 1.0
C      1  0.4783830000000  0.5610040000000  0.4690690000000 1.0
C      1  0.5040680000000  0.5181460000000  0.4303450000000 1.0
C      1  0.4892940000000  0.4583010000000  0.4406660000000 1.0
C      1  0.4842050000000  0.4279790000000  0.4944150000000 1.0
C      1  0.4988310000000  0.4554490000000  0.5547760000000 1.0
C      1  0.4862510000000  0.5116390000000  0.5710140000000 1.0
C      1  0.5063170000000  0.4678180000000  0.4754690000000 1.0
C      1  0.5098420000000  0.4620910000000  0.5066950000000 1.0
C      1  0.4924840000000  0.4833580000000  0.5269150000000 1.0
C      1  0.5029320000000  0.5122720000000  0.5306110000000 1.0
C      1  0.4909220000000  0.5273610000000  0.5067300000000 1.0
C      1  0.5025840000000  0.5271810000000  0.4690920000000 1.0
C      1  0.4901160000000  0.4956000000000  0.4709680000000 1.0
C      1  0.5714980000000  0.5242320000000  0.4726070000000 1.0
C      1  0.5675450000000  0.4963820000000  0.4771160000000 1.0
C      1  0.5645060000000  0.4642530000000  0.4796110000000 1.0
C      1  0.5599540000000  0.4768430000000  0.5107210000000 1.0
C      1  0.5649930000000  0.4941140000000  0.5345630000000 1.0
C      1  0.5674400000000  0.5234450000000  0.5269040000000 1.0
C      1  0.5681370000000  0.5376480000000  0.4996830000000 1.0
C      1  0.5275410000000  0.5141950000000  0.5497750000000 1.0
C      1  0.5306860000000  0.5553250000000  0.5244830000000 1.0
C      1  0.5301030000000  0.5438140000000  0.4732870000000 1.0
C      1  0.5348570000000  0.5129780000000  0.4371600000000 1.0
C      1  0.5356000000000  0.4656290000000  0.4617600000000 1.0
C      1  0.5392640000000  0.4511590000000  0.5075980000000 1.0
C      1  0.5306880000000  0.4631580000000  0.5540160000000 1.0
C      1  0.4591770000000  0.4606790000000  0.4498480000000 1.0
C      1  0.4570990000000  0.4373630000000  0.5029900000000 1.0
C      1  0.4666520000000  0.4574180000000  0.5429090000000 1.0
C      1  0.4574260000000  0.5107450000000  0.5716260000000 1.0
C      1  0.4668430000000  0.5593200000000  0.5377920000000 1.0
C      1  0.4529550000000  0.5507990000000  0.4808460000000 1.0
C      1  0.4704040000000  0.5134210000000  0.4313100000000 1.0
C      1  0.4872930000000  0.4419870000000  0.4698860000000 1.0
C      1  0.4905270000000  0.4431550000000  0.5241790000000 1.0
C      1  0.4954330000000  0.4871820000000  0.5605920000000 1.0
C      1  0.4930910000000  0.5339440000000  0.5525660000000 1.0
C      1  0.4879170000000  0.5586520000000  0.4985960000000 1.0
C      1  0.4898100000000  0.5449580000000  0.4457650000000 1.0
C      1  0.4980740000000  0.4862300000000  0.4404820000000 1.0
C      1  0.4527840000000  0.4636580000000  0.4990700000000 1.0
C      1  0.4585800000000  0.4850730000000  0.5248390000000 1.0
C      1  0.4488370000000  0.5112830000000  0.5444920000000 1.0
C      1  0.4530670000000  0.5363150000000  0.5311210000000 1.0
C      1  0.4585370000000  0.5294520000000  0.5020980000000 1.0
C      1  0.4524520000000  0.5079470000000  0.4480000000000 1.0
C      1  0.4576730000000  0.4855850000000  0.4729490000000 1.0
C      1  0.4148220000000  0.5040040000000  0.4991420000000 1.0
C      1  0.5182500000000  0.5117300000000  0.4938690000000 1.0
C      1  0.4452490000000  0.5028630000000  0.4991020000000 1.0
C      1  0.5414730000000  0.4988370000000  0.4946730000000 1.0
END
