TITL C-1154801-8518-382 -0.000702419991741356 125000 -338.591205300529 0 0 60 (C1) n - 1
REM
REM in /home/nfs/bkarasulu/CARBON/AIRSS/Generating-Clusters/AIREBO/Higher-Symm/Only-C60
REM
REM
REM
REM
REM
REM ./C.cell (28575a23ae977d3b5fae324c64b13b57)
REM
REM compiler GCC version 9.2.1 20190827 (Red Hat 9.2.1-1)
REM options -cpp -mtune=generic -march=x86-64 -g -O0 -fpre-include=/usr/include/finclude/math-vector-fortran.h
REM seed 453732225 -1210277516 1982967313 -555824249 -484393274 -139307988 -1573619179 -2018490014 160655341 -1766086933 664114683 -953317479 77011505 -382309736 -1816689391 330196997 -550085049 -2081947516 1813241344 -2052848444 17205523 1837967326 -1469556057 -2003541097 -556604096 2138834452 -1746277177 686728269 1586929648 -1203027516 971157710 -842017421 -1933661872
REM
CELL 1.54180   50.00000   50.00000   50.00000   90.00000   90.00000   90.00000
LATT -1
SFAC C  
C      1  0.5576980000000  0.4839210000000  0.5043570000000 1.0
C      1  0.4758020000000  0.4365400000000  0.5074070000000 1.0
C      1  0.4400800000000  0.5244490000000  0.5095860000000 1.0
C      1  0.5224350000000  0.5621290000000  0.5103160000000 1.0
C      1  0.4376300000000  0.4785970000000  0.5043240000000 1.0
C      1  0.5257610000000  0.4391210000000  0.5108710000000 1.0
C      1  0.5601430000000  0.5230060000000  0.5123700000000 1.0
C      1  0.4827940000000  0.5582710000000  0.5037330000000 1.0
C      1  0.5171150000000  0.4620460000000  0.5344580000000 1.0
C      1  0.4613670000000  0.4850670000000  0.5246180000000 1.0
C      1  0.4859760000000  0.5428200000000  0.5299880000000 1.0
C      1  0.5398510000000  0.5188060000000  0.5393530000000 1.0
C      1  0.4835390000000  0.4604020000000  0.5289320000000 1.0
C      1  0.5403010000000  0.4864460000000  0.5296430000000 1.0
C      1  0.5184660000000  0.5440060000000  0.5378630000000 1.0
C      1  0.4633980000000  0.5178650000000  0.5334520000000 1.0
C      1  0.5171550000000  0.5326040000000  0.5691710000000 1.0
C      1  0.5343500000000  0.4858420000000  0.5615810000000 1.0
C      1  0.4885810000000  0.4638540000000  0.5623560000000 1.0
C      1  0.4675450000000  0.5126520000000  0.5682010000000 1.0
C      1  0.4884270000000  0.5320260000000  0.5611400000000 1.0
C      1  0.4697840000000  0.4857910000000  0.5563900000000 1.0
C      1  0.5165690000000  0.4644120000000  0.5703640000000 1.0
C      1  0.5374760000000  0.5122370000000  0.5741470000000 1.0
C      1  0.5156100000000  0.5339820000000  0.4433470000000 1.0
C      1  0.5258040000000  0.4887970000000  0.4559440000000 1.0
C      1  0.4825880000000  0.4630380000000  0.4562110000000 1.0
C      1  0.4664300000000  0.5156600000000  0.4433950000000 1.0
C      1  0.4885100000000  0.5283820000000  0.4541450000000 1.0
C      1  0.4613230000000  0.4846810000000  0.4506140000000 1.0
C      1  0.5125470000000  0.4672660000000  0.4456550000000 1.0
C      1  0.5350180000000  0.5137580000000  0.4461850000000 1.0
C      1  0.4600790000000  0.5593850000000  0.4788930000000 1.0
C      1  0.5571410000000  0.5372400000000  0.4820730000000 1.0
C      1  0.5375970000000  0.4424620000000  0.4804260000000 1.0
C      1  0.4364320000000  0.4565450000000  0.4791750000000 1.0
C      1  0.5367280000000  0.5576760000000  0.4810320000000 1.0
C      1  0.4416260000000  0.5379420000000  0.4800330000000 1.0
C      1  0.4561470000000  0.4367400000000  0.4800250000000 1.0
C      1  0.5588130000000  0.4615640000000  0.4792430000000 1.0
C      1  0.5697580000000  0.4892600000000  0.4666970000000 1.0
C      1  0.4844300000000  0.4303400000000  0.4649850000000 1.0
C      1  0.4405610000000  0.5171020000000  0.4603720000000 1.0
C      1  0.5150020000000  0.5575870000000  0.4615740000000 1.0
C      1  0.4302750000000  0.4850760000000  0.4642110000000 1.0
C      1  0.5154960000000  0.4413290000000  0.4617680000000 1.0
C      1  0.5592350000000  0.5166750000000  0.4618410000000 1.0
C      1  0.4877000000000  0.5676660000000  0.4652750000000 1.0
C      1  0.4854120000000  0.4621780000000  0.4890950000000 1.0
C      1  0.4675300000000  0.5117930000000  0.4951500000000 1.0
C      1  0.5128700000000  0.5321540000000  0.5001790000000 1.0
C      1  0.5293280000000  0.4874750000000  0.4859570000000 1.0
C      1  0.5121700000000  0.4675180000000  0.4980280000000 1.0
C      1  0.5309110000000  0.5137720000000  0.5008000000000 1.0
C      1  0.4871660000000  0.5307080000000  0.4843070000000 1.0
C      1  0.4644470000000  0.4843530000000  0.4845630000000 1.0
C      1  0.5015890000000  0.4175060000000  0.5116520000000 1.0
C      1  0.4164330000000  0.5021430000000  0.5098640000000 1.0
C      1  0.5001480000000  0.5860530000000  0.5069550000000 1.0
C      1  0.5849050000000  0.5012850000000  0.5095280000000 1.0
END
