TITL C-1154826-9507-456 -6.54768774713835e-07 125000 -310.929153446033 0 0 60 (D6d) n - 1
REM
REM in /home/nfs/bkarasulu/CARBON/AIRSS/Generating-Clusters/AIREBO/Higher-Symm/Only-C60
REM
REM
REM
REM
REM
REM ./C.cell (28575a23ae977d3b5fae324c64b13b57)
REM
REM compiler GCC version 9.2.1 20190827 (Red Hat 9.2.1-1)
REM options -cpp -mtune=generic -march=x86-64 -g -O0 -fpre-include=/usr/include/finclude/math-vector-fortran.h
REM seed -2134861840 774995821 1193786603 174298679 1535971987 1731144966 -456557866 -683740398 1909075488 2057889285 -447470142 18423124 1943085830 105355750 -373104205 640443224 1550672722 70463098 -270644295 1009731774 -1713491406 -1716091789 -1726627665 -1055647147 -1965452604 101227206 -1501868578 -2097604955 140592025 1660204504 1839532218 -1452096574 -1703825561
REM
CELL 1.54180   50.00000   50.00000   50.00000   90.00000   90.00000   90.00000
LATT -1
SFAC C  
C      1  0.5144210000000  0.4197540000000  0.5056880000000 1.0
C      1  0.4784880000000  0.4344510000000  0.5438200000000 1.0
C      1  0.5143610000000  0.4641090000000  0.5720090000000 1.0
C      1  0.4803440000000  0.5059860000000  0.5791040000000 1.0
C      1  0.5176360000000  0.5436580000000  0.5668030000000 1.0
C      1  0.4841610000000  0.5722330000000  0.5348030000000 1.0
C      1  0.5209710000000  0.5788520000000  0.4952760000000 1.0
C      1  0.4861210000000  0.5669440000000  0.4552160000000 1.0
C      1  0.5210310000000  0.5344970000000  0.4289550000000 1.0
C      1  0.4842640000000  0.4954080000000  0.4199310000000 1.0
C      1  0.5177560000000  0.4549480000000  0.4341610000000 1.0
C      1  0.4804480000000  0.4291610000000  0.4642330000000 1.0
C      1  0.4411770000000  0.5413120000000  0.4723180000000 1.0
C      1  0.5630230000000  0.5182640000000  0.4596560000000 1.0
C      1  0.4400870000000  0.4992990000000  0.4515950000000 1.0
C      1  0.5611000000000  0.4715450000000  0.4627140000000 1.0
C      1  0.4378450000000  0.4603920000000  0.4776140000000 1.0
C      1  0.5591410000000  0.4508760000000  0.5047210000000 1.0
C      1  0.4366940000000  0.4634990000000  0.5243550000000 1.0
C      1  0.5591060000000  0.4769250000000  0.5436710000000 1.0
C      1  0.4377840000000  0.5055120000000  0.5450770000000 1.0
C      1  0.5610290000000  0.5236440000000  0.5406140000000 1.0
C      1  0.4400260000000  0.5444180000000  0.5190590000000 1.0
C      1  0.5629880000000  0.5443140000000  0.4986060000000 1.0
C      1  0.5341040000000  0.5125900000000  0.4726810000000 1.0
C      1  0.4679850000000  0.4992050000000  0.4677150000000 1.0
C      1  0.5328120000000  0.4812140000000  0.4747340000000 1.0
C      1  0.4664790000000  0.4730760000000  0.4851890000000 1.0
C      1  0.5314970000000  0.4673320000000  0.5029470000000 1.0
C      1  0.4657060000000  0.4751620000000  0.5165810000000 1.0
C      1  0.5314730000000  0.4848270000000  0.5291060000000 1.0
C      1  0.4664390000000  0.5033780000000  0.5304980000000 1.0
C      1  0.5327650000000  0.5162030000000  0.5270520000000 1.0
C      1  0.4679440000000  0.5295070000000  0.5130240000000 1.0
C      1  0.5340800000000  0.5300850000000  0.4988400000000 1.0
C      1  0.4687170000000  0.5274210000000  0.4816330000000 1.0
C      1  0.5835450000000  0.4808250000000  0.4785230000000 1.0
C      1  0.4158120000000  0.4776700000000  0.4850870000000 1.0
C      1  0.5823510000000  0.4682200000000  0.5041400000000 1.0
C      1  0.4151100000000  0.4795640000000  0.5135910000000 1.0
C      1  0.5823290000000  0.4841060000000  0.5278930000000 1.0
C      1  0.4157740000000  0.5051840000000  0.5262280000000 1.0
C      1  0.5835020000000  0.5125950000000  0.5260280000000 1.0
C      1  0.4171410000000  0.5289100000000  0.5103610000000 1.0
C      1  0.5846970000000  0.5252000000000  0.5004110000000 1.0
C      1  0.4178430000000  0.5270160000000  0.4818580000000 1.0
C      1  0.5847180000000  0.5093140000000  0.4766590000000 1.0
C      1  0.4171780000000  0.5013960000000  0.4692210000000 1.0
C      1  0.4926730000000  0.5456440000000  0.5221170000000 1.0
C      1  0.5105770000000  0.5500500000000  0.4969340000000 1.0
C      1  0.4939150000000  0.5422940000000  0.4717080000000 1.0
C      1  0.5106150000000  0.5219560000000  0.4549280000000 1.0
C      1  0.4927390000000  0.4969850000000  0.4493600000000 1.0
C      1  0.5085400000000  0.4715710000000  0.4582250000000 1.0
C      1  0.4903220000000  0.4550250000000  0.4774200000000 1.0
C      1  0.5064280000000  0.4492800000000  0.5035290000000 1.0
C      1  0.4890800000000  0.4583750000000  0.5278280000000 1.0
C      1  0.5063900000000  0.4773740000000  0.5455360000000 1.0
C      1  0.4902560000000  0.5036850000000  0.5501770000000 1.0
C      1  0.5084640000000  0.5277590000000  0.5422380000000 1.0
END
