TITL C-1154816-9297-598 -0.0018908228324784 125000 -325.092212762274 0 0 60 (C1) n - 1
REM
REM in /home/nfs/bkarasulu/CARBON/AIRSS/Generating-Clusters/AIREBO/Higher-Symm/Only-C60
REM
REM
REM
REM
REM
REM ./C.cell (28575a23ae977d3b5fae324c64b13b57)
REM
REM compiler GCC version 9.2.1 20190827 (Red Hat 9.2.1-1)
REM options -cpp -mtune=generic -march=x86-64 -g -O0 -fpre-include=/usr/include/finclude/math-vector-fortran.h
REM seed -1406446124 1787533127 -212980893 -1521364493 2068848498 -96480043 599994402 -625522260 796947869 434717215 1830489456 1455926049 -1598416957 -27931934 1748753841 -1231096082 -1481657776 -869325894 -2066478544 -943705966 156993150 -1049275380 161306254 1974112846 186460557 1045420249 -1539843968 -1240162279 845773757 796881154 319829480 1085601205 -572031298
REM
CELL 1.54180   50.00000   50.00000   50.00000   90.00000   90.00000   90.00000
LATT -1
SFAC C  
C      1  0.5637380000000  0.5427950000000  0.5868580000000 1.0
C      1  0.4364110000000  0.5336550000000  0.5919650000000 1.0
C      1  0.5009480000000  0.4218420000000  0.5896190000000 1.0
C      1  0.4599570000000  0.5476860000000  0.5386330000000 1.0
C      1  0.4786950000000  0.4413870000000  0.5375290000000 1.0
C      1  0.5609360000000  0.5139590000000  0.5344360000000 1.0
C      1  0.5023370000000  0.4380890000000  0.4920090000000 1.0
C      1  0.5557610000000  0.5353300000000  0.4880090000000 1.0
C      1  0.4468210000000  0.5263290000000  0.4937200000000 1.0
C      1  0.4332900000000  0.5081510000000  0.5381840000000 1.0
C      1  0.5263910000000  0.4387830000000  0.5363400000000 1.0
C      1  0.5392520000000  0.5566690000000  0.5321050000000 1.0
C      1  0.5082570000000  0.5426410000000  0.4338180000000 1.0
C      1  0.4604620000000  0.4915260000000  0.4336180000000 1.0
C      1  0.5307870000000  0.4687840000000  0.4348660000000 1.0
C      1  0.4491660000000  0.5656700000000  0.4374850000000 1.0
C      1  0.4647140000000  0.4202720000000  0.4331910000000 1.0
C      1  0.5921040000000  0.4967390000000  0.4410760000000 1.0
C      1  0.4464170000000  0.5469060000000  0.5639660000000 1.0
C      1  0.4885370000000  0.4321010000000  0.5620400000000 1.0
C      1  0.5626600000000  0.5270410000000  0.5591340000000 1.0
C      1  0.5516290000000  0.4739000000000  0.5039750000000 1.0
C      1  0.4951110000000  0.5591000000000  0.5048950000000 1.0
C      1  0.4445750000000  0.4640020000000  0.5063680000000 1.0
C      1  0.5172070000000  0.6005280000000  0.5287320000000 1.0
C      1  0.4059360000000  0.4670120000000  0.5094240000000 1.0
C      1  0.5708370000000  0.4400790000000  0.5028250000000 1.0
C      1  0.5516480000000  0.5355240000000  0.5155170000000 1.0
C      1  0.4473010000000  0.5271600000000  0.5212300000000 1.0
C      1  0.5022960000000  0.4399020000000  0.5193740000000 1.0
C      1  0.4608860000000  0.4713590000000  0.4865620000000 1.0
C      1  0.5338330000000  0.4855260000000  0.4874480000000 1.0
C      1  0.4964060000000  0.5386150000000  0.4883950000000 1.0
C      1  0.4317910000000  0.4800980000000  0.5318400000000 1.0
C      1  0.5500820000000  0.4539720000000  0.5296640000000 1.0
C      1  0.5144720000000  0.5729230000000  0.5272020000000 1.0
C      1  0.4875440000000  0.4588830000000  0.4695350000000 1.0
C      1  0.5436570000000  0.5101850000000  0.4685640000000 1.0
C      1  0.4733760000000  0.5252660000000  0.4725070000000 1.0
C      1  0.5197820000000  0.4273020000000  0.5619070000000 1.0
C      1  0.5507710000000  0.5561680000000  0.5584130000000 1.0
C      1  0.4287490000000  0.5200370000000  0.5634120000000 1.0
C      1  0.5505350000000  0.5489920000000  0.4617620000000 1.0
C      1  0.4340540000000  0.5208260000000  0.4669320000000 1.0
C      1  0.5163650000000  0.4313450000000  0.4664420000000 1.0
C      1  0.4798350000000  0.4946380000000  0.4853690000000 1.0
C      1  0.5070090000000  0.4824280000000  0.4849740000000 1.0
C      1  0.5178270000000  0.5232220000000  0.4864300000000 1.0
C      1  0.5308830000000  0.5547300000000  0.4435010000000 1.0
C      1  0.4396770000000  0.5044750000000  0.4456700000000 1.0
C      1  0.5305630000000  0.4444850000000  0.4471700000000 1.0
C      1  0.4749830000000  0.4374510000000  0.4490230000000 1.0
C      1  0.5705440000000  0.5028310000000  0.4532880000000 1.0
C      1  0.4597220000000  0.5477710000000  0.4522960000000 1.0
C      1  0.4944090000000  0.5174890000000  0.4469430000000 1.0
C      1  0.4892150000000  0.4839080000000  0.4465700000000 1.0
C      1  0.5208980000000  0.4967800000000  0.4471370000000 1.0
C      1  0.5563580000000  0.4873890000000  0.5319790000000 1.0
C      1  0.4838500000000  0.5590710000000  0.5334870000000 1.0
C      1  0.4577450000000  0.4582760000000  0.5346320000000 1.0
END
