TITL C-1154824-75-226 3.10101589172903e-05 125000 -340.03975297015 0 0 60 (C1) n - 1
REM
REM in /home/nfs/bkarasulu/CARBON/AIRSS/Generating-Clusters/AIREBO/Higher-Symm/Only-C60
REM
REM
REM
REM
REM
REM ./C.cell (28575a23ae977d3b5fae324c64b13b57)
REM
REM compiler GCC version 9.2.1 20190827 (Red Hat 9.2.1-1)
REM options -cpp -mtune=generic -march=x86-64 -g -O0 -fpre-include=/usr/include/finclude/math-vector-fortran.h
REM seed 1702953103 1032425131 1828780232 1638498580 1843143618 -1436824382 -292390260 -62412192 1057371325 -1273656862 1257346923 -1851911439 212413930 -1070897006 1720081997 1832531290 -1855771904 -70478461 193883077 -1949177152 1746680681 -705987545 994310149 -1891550699 -1992778078 -1043374746 1148442153 587586791 1197534791 278716343 -1517673466 -1208421371 -1091466235
REM
CELL 1.54180   50.00000   50.00000   50.00000   90.00000   90.00000   90.00000
LATT -1
SFAC C  
C      1  0.5176350000000  0.4632080000000  0.5565450000000 1.0
C      1  0.5390790000000  0.4643040000000  0.4581370000000 1.0
C      1  0.4444980000000  0.4673110000000  0.4877190000000 1.0
C      1  0.5119010000000  0.5311150000000  0.5546160000000 1.0
C      1  0.5388870000000  0.5340870000000  0.4617910000000 1.0
C      1  0.4453360000000  0.5326590000000  0.4839890000000 1.0
C      1  0.4850420000000  0.4707100000000  0.5519030000000 1.0
C      1  0.4634080000000  0.4681210000000  0.4600050000000 1.0
C      1  0.5548680000000  0.4660390000000  0.4870900000000 1.0
C      1  0.4781900000000  0.5342850000000  0.5546890000000 1.0
C      1  0.4621800000000  0.5317400000000  0.4552350000000 1.0
C      1  0.5562930000000  0.5336490000000  0.4896420000000 1.0
C      1  0.5125470000000  0.5543990000000  0.4578410000000 1.0
C      1  0.4552370000000  0.5538200000000  0.5086970000000 1.0
C      1  0.5316000000000  0.5494310000000  0.5350440000000 1.0
C      1  0.5125630000000  0.4449610000000  0.4594830000000 1.0
C      1  0.4588720000000  0.4478030000000  0.5095610000000 1.0
C      1  0.5302140000000  0.4430020000000  0.5322800000000 1.0
C      1  0.4879090000000  0.5518070000000  0.4569580000000 1.0
C      1  0.5429530000000  0.5514400000000  0.5132860000000 1.0
C      1  0.4638120000000  0.5546740000000  0.5320630000000 1.0
C      1  0.4877520000000  0.4456850000000  0.4582840000000 1.0
C      1  0.5442760000000  0.4467440000000  0.5121090000000 1.0
C      1  0.4730450000000  0.4505050000000  0.5295580000000 1.0
C      1  0.4856700000000  0.4867500000000  0.4160020000000 1.0
C      1  0.4343600000000  0.4870090000000  0.5535130000000 1.0
C      1  0.5810010000000  0.4822060000000  0.5318460000000 1.0
C      1  0.4879150000000  0.5173920000000  0.4129160000000 1.0
C      1  0.4297960000000  0.5176060000000  0.5534830000000 1.0
C      1  0.5805450000000  0.5129580000000  0.5292690000000 1.0
C      1  0.5116620000000  0.4751480000000  0.4175400000000 1.0
C      1  0.5667580000000  0.4733730000000  0.5546970000000 1.0
C      1  0.4214940000000  0.4752060000000  0.5309410000000 1.0
C      1  0.5146530000000  0.5262770000000  0.4172940000000 1.0
C      1  0.5635800000000  0.5246260000000  0.5492040000000 1.0
C      1  0.4198390000000  0.5266380000000  0.5283450000000 1.0
C      1  0.5165970000000  0.4803950000000  0.5294610000000 1.0
C      1  0.5212280000000  0.4844560000000  0.4760720000000 1.0
C      1  0.4710310000000  0.4834370000000  0.4961270000000 1.0
C      1  0.5165630000000  0.5135340000000  0.5258660000000 1.0
C      1  0.5117540000000  0.5165150000000  0.4704340000000 1.0
C      1  0.4660330000000  0.5156900000000  0.5037550000000 1.0
C      1  0.4860450000000  0.4878730000000  0.5236800000000 1.0
C      1  0.4902360000000  0.4834180000000  0.4711220000000 1.0
C      1  0.5351120000000  0.4850760000000  0.5053690000000 1.0
C      1  0.4852590000000  0.5214540000000  0.5267360000000 1.0
C      1  0.4808140000000  0.5163230000000  0.4756200000000 1.0
C      1  0.5298170000000  0.5174340000000  0.4969140000000 1.0
C      1  0.4624770000000  0.4844640000000  0.5672640000000 1.0
C      1  0.5765950000000  0.4857030000000  0.5005340000000 1.0
C      1  0.4598840000000  0.4833760000000  0.4334290000000 1.0
C      1  0.4579060000000  0.5158970000000  0.5674060000000 1.0
C      1  0.5793200000000  0.5171670000000  0.4986740000000 1.0
C      1  0.4617110000000  0.5150930000000  0.4302670000000 1.0
C      1  0.5410430000000  0.4844930000000  0.5610510000000 1.0
C      1  0.4260020000000  0.4858410000000  0.5045540000000 1.0
C      1  0.5312760000000  0.4857950000000  0.4357950000000 1.0
C      1  0.5393750000000  0.5122520000000  0.5586410000000 1.0
C      1  0.4261280000000  0.5138440000000  0.5033170000000 1.0
C      1  0.5324180000000  0.5137780000000  0.4363350000000 1.0
END
