TITL C-1154825-9328-124 -2.36765494313484e-05 125000 -329.705110787375 0 0 60 (C3) n - 1
REM
REM in /home/nfs/bkarasulu/CARBON/AIRSS/Generating-Clusters/AIREBO/Higher-Symm/Only-C60
REM
REM
REM
REM
REM
REM ./C.cell (28575a23ae977d3b5fae324c64b13b57)
REM
REM compiler GCC version 9.2.1 20190827 (Red Hat 9.2.1-1)
REM options -cpp -mtune=generic -march=x86-64 -g -O0 -fpre-include=/usr/include/finclude/math-vector-fortran.h
REM seed 1839470967 560957669 419581450 1759465955 798212657 76579217 447746828 1781590849 -240605280 -282446457 -422561954 1268042587 1470699788 228283180 953875557 -950241062 -218855556 -451383413 792823191 625891078 1901130201 280157648 161940065 1989371367 -348838602 -1023533056 852072683 -428302811 2122745751 -1923258308 -1285188328 1403027157 -722543589
REM
CELL 1.54180   50.00000   50.00000   50.00000   90.00000   90.00000   90.00000
LATT -1
SFAC C  
C      1  0.4695790000000  0.5532320000000  0.5352980000000 1.0
C      1  0.4695920000000  0.4428160000000  0.5284670000000 1.0
C      1  0.4695600000000  0.5039400000000  0.4362590000000 1.0
C      1  0.5285840000000  0.4688010000000  0.4522950000000 1.0
C      1  0.5285840000000  0.5569130000000  0.4968190000000 1.0
C      1  0.5286090000000  0.4742980000000  0.5508640000000 1.0
C      1  0.5027820000000  0.4618600000000  0.5168840000000 1.0
C      1  0.5027610000000  0.5044490000000  0.4585260000000 1.0
C      1  0.5027740000000  0.5336930000000  0.5245880000000 1.0
C      1  0.5304780000000  0.4116080000000  0.5200240000000 1.0
C      1  0.5304350000000  0.5268550000000  0.4134230000000 1.0
C      1  0.5304690000000  0.5615500000000  0.5665300000000 1.0
C      1  0.4426530000000  0.5106930000000  0.5404280000000 1.0
C      1  0.4426470000000  0.4596430000000  0.4890750000000 1.0
C      1  0.4426330000000  0.5296410000000  0.4705410000000 1.0
C      1  0.4832580000000  0.5325710000000  0.5014630000000 1.0
C      1  0.4832710000000  0.4824480000000  0.5274850000000 1.0
C      1  0.4832570000000  0.4849740000000  0.4710650000000 1.0
C      1  0.4904260000000  0.4845320000000  0.4259040000000 1.0
C      1  0.4904400000000  0.5719040000000  0.5236570000000 1.0
C      1  0.4904640000000  0.4435610000000  0.5504470000000 1.0
C      1  0.5742980000000  0.5220550000000  0.4704930000000 1.0
C      1  0.5743150000000  0.5145250000000  0.5338160000000 1.0
C      1  0.5743120000000  0.4634500000000  0.4956340000000 1.0
C      1  0.5492850000000  0.5237130000000  0.4577320000000 1.0
C      1  0.5493060000000  0.5247480000000  0.5416450000000 1.0
C      1  0.5493050000000  0.4515590000000  0.5005850000000 1.0
C      1  0.4606360000000  0.4928680000000  0.5506170000000 1.0
C      1  0.4606190000000  0.4597310000000  0.4685340000000 1.0
C      1  0.4606110000000  0.5473850000000  0.4808780000000 1.0
C      1  0.5295710000000  0.5029770000000  0.5513270000000 1.0
C      1  0.5295590000000  0.4540600000000  0.4769000000000 1.0
C      1  0.5295450000000  0.5429750000000  0.4717500000000 1.0
C      1  0.4819360000000  0.4311190000000  0.5022660000000 1.0
C      1  0.4819060000000  0.5324780000000  0.4392230000000 1.0
C      1  0.4819360000000  0.5363950000000  0.5585240000000 1.0
C      1  0.4264260000000  0.4821840000000  0.5071470000000 1.0
C      1  0.4264170000000  0.5027200000000  0.4810340000000 1.0
C      1  0.4264230000000  0.5150670000000  0.5118760000000 1.0
C      1  0.4970980000000  0.4557510000000  0.4840800000000 1.0
C      1  0.4970830000000  0.5359120000000  0.4696410000000 1.0
C      1  0.4971070000000  0.5083360000000  0.5462810000000 1.0
C      1  0.5333310000000  0.4639930000000  0.5241040000000 1.0
C      1  0.5333090000000  0.4971290000000  0.4567490000000 1.0
C      1  0.5333190000000  0.5388920000000  0.5191220000000 1.0
C      1  0.5508580000000  0.4215420000000  0.5089310000000 1.0
C      1  0.5508230000000  0.5314940000000  0.4275630000000 1.0
C      1  0.5508550000000  0.5469850000000  0.5634680000000 1.0
C      1  0.5032980000000  0.4629940000000  0.4380960000000 1.0
C      1  0.5032990000000  0.5721140000000  0.4989020000000 1.0
C      1  0.5033300000000  0.4648940000000  0.5630000000000 1.0
C      1  0.5067520000000  0.4291840000000  0.5254290000000 1.0
C      1  0.5067150000000  0.5133860000000  0.4259530000000 1.0
C      1  0.5067410000000  0.5574330000000  0.5486120000000 1.0
C      1  0.4533610000000  0.4679280000000  0.5202630000000 1.0
C      1  0.4533420000000  0.4984880000000  0.4621170000000 1.0
C      1  0.4533510000000  0.5335650000000  0.5176560000000 1.0
C      1  0.4854750000000  0.4873030000000  0.5703350000000 1.0
C      1  0.4854510000000  0.4454370000000  0.4538440000000 1.0
C      1  0.4854410000000  0.5672540000000  0.4758330000000 1.0
END
