TITL C-1154828-9214-639 0.00216889244453139 125000 -268.272542134496 0 0 60 (C1) n - 1
REM
REM in /home/nfs/bkarasulu/CARBON/AIRSS/Generating-Clusters/AIREBO/Higher-Symm/Only-C60
REM
REM
REM
REM
REM
REM ./C.cell (28575a23ae977d3b5fae324c64b13b57)
REM
REM compiler GCC version 9.2.1 20190827 (Red Hat 9.2.1-1)
REM options -cpp -mtune=generic -march=x86-64 -g -O0 -fpre-include=/usr/include/finclude/math-vector-fortran.h
REM seed -498493953 2107820193 -950049777 -1437762014 1471930672 -1094154339 -701748040 -1171848832 1699154182 305596077 -277824464 -338972989 1688647458 12775777 781599747 -158047248 258584986 1028349488 -1634004371 166387282 -1677943612 1140238859 -1602026176 1659199740 76451565 -2027402149 1749023881 668752731 -2118073057 -222925871 1012502155 -810921467 332002181
REM
CELL 1.54180   50.00000   50.00000   50.00000   90.00000   90.00000   90.00000
LATT -1
SFAC C  
C      1  0.5038890000000  0.5537290000000  0.5018870000000 1.0
C      1  0.5056760000000  0.5289230000000  0.4529510000000 1.0
C      1  0.5036370000000  0.4760870000000  0.4535680000000 1.0
C      1  0.5038600000000  0.4462480000000  0.4981100000000 1.0
C      1  0.5056370000000  0.4711050000000  0.5470600000000 1.0
C      1  0.5034850000000  0.5240410000000  0.5465620000000 1.0
C      1  0.4416720000000  0.5191460000000  0.4753770000000 1.0
C      1  0.4463090000000  0.4889110000000  0.4711680000000 1.0
C      1  0.4505020000000  0.4714520000000  0.4971420000000 1.0
C      1  0.4416490000000  0.4808460000000  0.5246210000000 1.0
C      1  0.4463100000000  0.5110780000000  0.5288250000000 1.0
C      1  0.4505380000000  0.5285220000000  0.5028560000000 1.0
C      1  0.5643040000000  0.4744660000000  0.5296740000000 1.0
C      1  0.5633150000000  0.5117480000000  0.5317880000000 1.0
C      1  0.5636840000000  0.5382830000000  0.5055060000000 1.0
C      1  0.5643460000000  0.5255930000000  0.4702870000000 1.0
C      1  0.5631980000000  0.4883200000000  0.4682450000000 1.0
C      1  0.5636590000000  0.4617330000000  0.4944670000000 1.0
C      1  0.5481280000000  0.5551110000000  0.4786970000000 1.0
C      1  0.5501150000000  0.5083150000000  0.4429690000000 1.0
C      1  0.5482750000000  0.4566160000000  0.4637450000000 1.0
C      1  0.5481060000000  0.4449300000000  0.5212930000000 1.0
C      1  0.5500700000000  0.4917520000000  0.5569730000000 1.0
C      1  0.5483030000000  0.5434120000000  0.5362310000000 1.0
C      1  0.5172880000000  0.4982420000000  0.5639190000000 1.0
C      1  0.5157860000000  0.5530350000000  0.5337440000000 1.0
C      1  0.5152050000000  0.5567920000000  0.4699660000000 1.0
C      1  0.5173270000000  0.5018250000000  0.4360310000000 1.0
C      1  0.5156990000000  0.4469230000000  0.4662320000000 1.0
C      1  0.5151880000000  0.4432510000000  0.5300340000000 1.0
C      1  0.5299890000000  0.4834950000000  0.4737400000000 1.0
C      1  0.5308020000000  0.4666810000000  0.5016920000000 1.0
C      1  0.5316760000000  0.4840320000000  0.5294290000000 1.0
C      1  0.5301150000000  0.5164950000000  0.5261720000000 1.0
C      1  0.5308360000000  0.5333120000000  0.4982560000000 1.0
C      1  0.5317330000000  0.5159720000000  0.4705390000000 1.0
C      1  0.4857300000000  0.5681920000000  0.5267470000000 1.0
C      1  0.4848740000000  0.5558220000000  0.4537460000000 1.0
C      1  0.4868860000000  0.4888180000000  0.4268400000000 1.0
C      1  0.4856790000000  0.4317400000000  0.4732920000000 1.0
C      1  0.4848580000000  0.4441890000000  0.5462540000000 1.0
C      1  0.4868210000000  0.5111040000000  0.5732440000000 1.0
C      1  0.4579550000000  0.4398730000000  0.4916230000000 1.0
C      1  0.4599960000000  0.4674490000000  0.5475020000000 1.0
C      1  0.4581050000000  0.5219240000000  0.5583440000000 1.0
C      1  0.4580060000000  0.5600920000000  0.5084020000000 1.0
C      1  0.4600450000000  0.5325250000000  0.4525090000000 1.0
C      1  0.4581180000000  0.4780320000000  0.4416630000000 1.0
C      1  0.4624720000000  0.4524910000000  0.4603690000000 1.0
C      1  0.4596400000000  0.4430880000000  0.5237770000000 1.0
C      1  0.4612410000000  0.4897150000000  0.5687950000000 1.0
C      1  0.4624950000000  0.5474810000000  0.5396630000000 1.0
C      1  0.4596700000000  0.5568930000000  0.4762280000000 1.0
C      1  0.4613050000000  0.5102390000000  0.4312210000000 1.0
C      1  0.4902430000000  0.5136050000000  0.4767060000000 1.0
C      1  0.4798330000000  0.4857420000000  0.4741730000000 1.0
C      1  0.4828210000000  0.4697840000000  0.5007470000000 1.0
C      1  0.4901880000000  0.4863710000000  0.5232880000000 1.0
C      1  0.4798500000000  0.5142330000000  0.5258480000000 1.0
C      1  0.4828620000000  0.5301790000000  0.4992600000000 1.0
END
