TITL C-1154801-8518-680 -0.00126808544998741 125000 -301.068436223072 0 0 60 (C1) n - 1
REM
REM in /home/nfs/bkarasulu/CARBON/AIRSS/Generating-Clusters/AIREBO/Higher-Symm/Only-C60
REM
REM
REM
REM
REM
REM ./C.cell (28575a23ae977d3b5fae324c64b13b57)
REM
REM compiler GCC version 9.2.1 20190827 (Red Hat 9.2.1-1)
REM options -cpp -mtune=generic -march=x86-64 -g -O0 -fpre-include=/usr/include/finclude/math-vector-fortran.h
REM seed 1213241582 -1536049583 2081486508 -1807361756 -1702932660 -1861111316 -974444575 1939219536 1651792310 1395124397 730929429 2037130260 -1783338501 799370935 -1986189005 -430712887 -1049444698 836726 520110587 2042228287 1967080491 -57587817 1707531019 763166217 -293985065 712443155 1592033399 -751052054 -1133172117 1593048830 -856934341 1628206232 -648363893
REM
CELL 1.54180   50.00000   50.00000   50.00000   90.00000   90.00000   90.00000
LATT -1
SFAC C  
C      1  0.4917870000000  0.4974030000000  0.4535920000000 1.0
C      1  0.4491960000000  0.5013520000000  0.4900040000000 1.0
C      1  0.4760420000000  0.5032540000000  0.5474230000000 1.0
C      1  0.5373200000000  0.5059800000000  0.5342610000000 1.0
C      1  0.5520700000000  0.4946410000000  0.4714560000000 1.0
C      1  0.5214860000000  0.4516520000000  0.5468690000000 1.0
C      1  0.5503970000000  0.4514550000000  0.4979640000000 1.0
C      1  0.5121650000000  0.4450350000000  0.4515830000000 1.0
C      1  0.4496230000000  0.4500960000000  0.4748820000000 1.0
C      1  0.4641430000000  0.4478820000000  0.5376180000000 1.0
C      1  0.4858920000000  0.5369710000000  0.5663730000000 1.0
C      1  0.5630820000000  0.5500230000000  0.5244880000000 1.0
C      1  0.5453060000000  0.5425370000000  0.4501380000000 1.0
C      1  0.4818760000000  0.5593580000000  0.4504600000000 1.0
C      1  0.4265870000000  0.5285670000000  0.5080610000000 1.0
C      1  0.5785640000000  0.5072360000000  0.4986070000000 1.0
C      1  0.5214350000000  0.5025630000000  0.4209880000000 1.0
C      1  0.4417300000000  0.5304340000000  0.4530620000000 1.0
C      1  0.4363850000000  0.5054490000000  0.5512240000000 1.0
C      1  0.5270090000000  0.5084490000000  0.5771400000000 1.0
C      1  0.5393910000000  0.5001610000000  0.5013700000000 1.0
C      1  0.5230080000000  0.4956710000000  0.4644310000000 1.0
C      1  0.4629640000000  0.4859680000000  0.4638550000000 1.0
C      1  0.4633550000000  0.4949580000000  0.5175760000000 1.0
C      1  0.5060740000000  0.4981910000000  0.5393300000000 1.0
C      1  0.5776680000000  0.4799220000000  0.4981030000000 1.0
C      1  0.5189900000000  0.4767220000000  0.4294550000000 1.0
C      1  0.4439180000000  0.5065060000000  0.4457400000000 1.0
C      1  0.4442090000000  0.4793130000000  0.5502820000000 1.0
C      1  0.5285120000000  0.4824270000000  0.5702970000000 1.0
C      1  0.5545390000000  0.5303900000000  0.5049430000000 1.0
C      1  0.5194200000000  0.5246380000000  0.4457790000000 1.0
C      1  0.4599060000000  0.5502150000000  0.4703280000000 1.0
C      1  0.4497710000000  0.5247760000000  0.5267080000000 1.0
C      1  0.5113350000000  0.5278460000000  0.5551390000000 1.0
C      1  0.5257400000000  0.4713900000000  0.4991450000000 1.0
C      1  0.5073060000000  0.4672420000000  0.4746030000000 1.0
C      1  0.4785820000000  0.4646040000000  0.4852240000000 1.0
C      1  0.4785080000000  0.4676050000000  0.5158820000000 1.0
C      1  0.5084040000000  0.4703680000000  0.5243400000000 1.0
C      1  0.5458990000000  0.5513440000000  0.4744300000000 1.0
C      1  0.4981890000000  0.5480220000000  0.4354020000000 1.0
C      1  0.4457630000000  0.5712500000000  0.4825430000000 1.0
C      1  0.4497250000000  0.5528380000000  0.5400680000000 1.0
C      1  0.5301070000000  0.5524340000000  0.5596490000000 1.0
C      1  0.4390180000000  0.4630980000000  0.5238300000000 1.0
C      1  0.5032490000000  0.4640380000000  0.5700870000000 1.0
C      1  0.5663730000000  0.4642110000000  0.5222070000000 1.0
C      1  0.5403990000000  0.4614410000000  0.4473720000000 1.0
C      1  0.4577540000000  0.4566000000000  0.4448750000000 1.0
C      1  0.5646730000000  0.4650970000000  0.4702830000000 1.0
C      1  0.4881490000000  0.4666150000000  0.4396210000000 1.0
C      1  0.4406200000000  0.4696000000000  0.4965380000000 1.0
C      1  0.4760430000000  0.4715070000000  0.5593440000000 1.0
C      1  0.5468550000000  0.4744510000000  0.5427910000000 1.0
C      1  0.4835000000000  0.5283260000000  0.5240140000000 1.0
C      1  0.5172580000000  0.5318590000000  0.5218880000000 1.0
C      1  0.5235210000000  0.5356590000000  0.4920310000000 1.0
C      1  0.4979300000000  0.5252460000000  0.4721480000000 1.0
C      1  0.4712820000000  0.5271120000000  0.4921550000000 1.0
END
