TITL C-1154823-9327-74 0.000479987602547136 125000 -323.038698400777 0 0 60 (C1) n - 1
REM
REM in /home/nfs/bkarasulu/CARBON/AIRSS/Generating-Clusters/AIREBO/Higher-Symm/Only-C60
REM
REM
REM
REM
REM
REM ./C.cell (28575a23ae977d3b5fae324c64b13b57)
REM
REM compiler GCC version 9.2.1 20190827 (Red Hat 9.2.1-1)
REM options -cpp -mtune=generic -march=x86-64 -g -O0 -fpre-include=/usr/include/finclude/math-vector-fortran.h
REM seed 2128545992 642801997 1445682958 -1631615444 1337404512 1558941282 -1098183783 828045099 -1413366774 -787302744 1776919269 -404695328 191871539 2103234535 -1085106965 1113441713 -861092896 -990961635 1657176951 -353610090 831246884 1927451160 1652991194 -1203417812 -1644860955 -1259608511 1384820320 -1238199102 206981516 -419759682 1630987235 -412561279 -1873086939
REM
CELL 1.54180   50.00000   50.00000   50.00000   90.00000   90.00000   90.00000
LATT -1
SFAC C  
C      1  0.5308130000000  0.4722120000000  0.5557840000000 1.0
C      1  0.4572310000000  0.4563710000000  0.4473090000000 1.0
C      1  0.5303630000000  0.5353780000000  0.5563240000000 1.0
C      1  0.4673600000000  0.5319200000000  0.4474600000000 1.0
C      1  0.5387190000000  0.4854550000000  0.4256450000000 1.0
C      1  0.4512850000000  0.4804610000000  0.5689150000000 1.0
C      1  0.5411930000000  0.5128730000000  0.4235810000000 1.0
C      1  0.4641420000000  0.5059570000000  0.5710790000000 1.0
C      1  0.4917580000000  0.5017350000000  0.5739580000000 1.0
C      1  0.4951030000000  0.5176400000000  0.4241290000000 1.0
C      1  0.5009200000000  0.4773420000000  0.5815250000000 1.0
C      1  0.4919060000000  0.4901370000000  0.4306660000000 1.0
C      1  0.5057880000000  0.5174600000000  0.5510640000000 1.0
C      1  0.4950540000000  0.5167630000000  0.4601000000000 1.0
C      1  0.5075670000000  0.4874360000000  0.5401250000000 1.0
C      1  0.4854000000000  0.4877440000000  0.4633610000000 1.0
C      1  0.4885130000000  0.4571750000000  0.4383240000000 1.0
C      1  0.5032850000000  0.4524310000000  0.5585020000000 1.0
C      1  0.4950020000000  0.5489710000000  0.4373770000000 1.0
C      1  0.5054040000000  0.5572050000000  0.5541360000000 1.0
C      1  0.4722320000000  0.4548570000000  0.5651000000000 1.0
C      1  0.5176580000000  0.4599020000000  0.4263110000000 1.0
C      1  0.4790250000000  0.5517630000000  0.5620810000000 1.0
C      1  0.5253370000000  0.5414810000000  0.4295190000000 1.0
C      1  0.5167170000000  0.4661290000000  0.5061770000000 1.0
C      1  0.4870360000000  0.4621270000000  0.4932260000000 1.0
C      1  0.5186310000000  0.5367450000000  0.5075650000000 1.0
C      1  0.4873140000000  0.5369140000000  0.4951770000000 1.0
C      1  0.4499650000000  0.4521670000000  0.4771530000000 1.0
C      1  0.5553670000000  0.4738610000000  0.5328010000000 1.0
C      1  0.4447440000000  0.5318340000000  0.4715240000000 1.0
C      1  0.5544220000000  0.5317830000000  0.5332370000000 1.0
C      1  0.5433050000000  0.4730310000000  0.4753490000000 1.0
C      1  0.4530480000000  0.4729910000000  0.5182990000000 1.0
C      1  0.5506410000000  0.5272180000000  0.4736070000000 1.0
C      1  0.4552620000000  0.5265350000000  0.5264670000000 1.0
C      1  0.4599280000000  0.5164150000000  0.4943280000000 1.0
C      1  0.5472770000000  0.5181740000000  0.5062370000000 1.0
C      1  0.4609790000000  0.4829470000000  0.4865460000000 1.0
C      1  0.5443200000000  0.4860700000000  0.5067500000000 1.0
C      1  0.4483420000000  0.4598580000000  0.5443490000000 1.0
C      1  0.5415950000000  0.4624270000000  0.4476620000000 1.0
C      1  0.4605970000000  0.5305200000000  0.5566390000000 1.0
C      1  0.5524490000000  0.5349310000000  0.4447960000000 1.0
C      1  0.4900590000000  0.5547530000000  0.4705550000000 1.0
C      1  0.5173850000000  0.5601560000000  0.5278330000000 1.0
C      1  0.4885030000000  0.4445930000000  0.4698590000000 1.0
C      1  0.5172150000000  0.4470700000000  0.5282270000000 1.0
C      1  0.4276060000000  0.4903310000000  0.5095260000000 1.0
C      1  0.5738450000000  0.4840560000000  0.4800820000000 1.0
C      1  0.4270980000000  0.5145540000000  0.5169540000000 1.0
C      1  0.5767300000000  0.5091990000000  0.4809100000000 1.0
C      1  0.5575660000000  0.5166540000000  0.5611580000000 1.0
C      1  0.4412120000000  0.5111520000000  0.4476630000000 1.0
C      1  0.5585210000000  0.4894270000000  0.5604450000000 1.0
C      1  0.4462260000000  0.4852960000000  0.4557480000000 1.0
C      1  0.5194060000000  0.5205650000000  0.4782080000000 1.0
C      1  0.4876130000000  0.5167880000000  0.5226430000000 1.0
C      1  0.5143710000000  0.4884240000000  0.4805830000000 1.0
C      1  0.4836470000000  0.4836360000000  0.5193420000000 1.0
END
