TITL C-1154821-8623-108 2.21350085509066e-06 125000 -322.387715367235 0 0 60 (C1) n - 1
REM
REM in /home/nfs/bkarasulu/CARBON/AIRSS/Generating-Clusters/AIREBO/Higher-Symm/Only-C60
REM
REM
REM
REM
REM
REM ./C.cell (28575a23ae977d3b5fae324c64b13b57)
REM
REM compiler GCC version 9.2.1 20190827 (Red Hat 9.2.1-1)
REM options -cpp -mtune=generic -march=x86-64 -g -O0 -fpre-include=/usr/include/finclude/math-vector-fortran.h
REM seed 1851638685 -1664092819 -166856760 1433120366 2142460247 84424884 371066472 -2021108837 -61869096 -791246319 -880107523 1532280527 524230274 -1927519731 -92046108 -509551014 -1229916421 -1516130946 1552660546 1985992441 -2044693036 -387593371 1739095183 -848378592 1954180738 -545585851 1545185045 1053170652 371359088 -1078350768 -2029063291 -1045430337 1087777223
REM
CELL 1.54180   50.00000   50.00000   50.00000   90.00000   90.00000   90.00000
LATT -1
SFAC C  
C      1  0.5157550000000  0.5607210000000  0.5044670000000 1.0
C      1  0.4502240000000  0.4821920000000  0.4444300000000 1.0
C      1  0.4209910000000  0.4870530000000  0.4869020000000 1.0
C      1  0.4917440000000  0.4914810000000  0.4649480000000 1.0
C      1  0.5261580000000  0.4538700000000  0.5274270000000 1.0
C      1  0.5263230000000  0.5397990000000  0.5285470000000 1.0
C      1  0.5570470000000  0.5021700000000  0.5405080000000 1.0
C      1  0.5015850000000  0.5376180000000  0.4308080000000 1.0
C      1  0.4351920000000  0.4464510000000  0.5085660000000 1.0
C      1  0.5173950000000  0.5005920000000  0.5634350000000 1.0
C      1  0.4556570000000  0.5072070000000  0.5426440000000 1.0
C      1  0.4929350000000  0.5337520000000  0.5262080000000 1.0
C      1  0.5333550000000  0.5736850000000  0.4634910000000 1.0
C      1  0.4422950000000  0.5276300000000  0.5113690000000 1.0
C      1  0.4616990000000  0.4649880000000  0.5176860000000 1.0
C      1  0.5425050000000  0.4875720000000  0.5601090000000 1.0
C      1  0.5426430000000  0.5262040000000  0.5019580000000 1.0
C      1  0.5555010000000  0.5567400000000  0.5045370000000 1.0
C      1  0.4668850000000  0.5337480000000  0.4650220000000 1.0
C      1  0.4840830000000  0.5616810000000  0.4748460000000 1.0
C      1  0.4668070000000  0.5489160000000  0.5216230000000 1.0
C      1  0.5369370000000  0.5769090000000  0.4918220000000 1.0
C      1  0.5479960000000  0.5501500000000  0.4554350000000 1.0
C      1  0.4750310000000  0.5257920000000  0.4372880000000 1.0
C      1  0.4830290000000  0.4506610000000  0.4950640000000 1.0
C      1  0.5148230000000  0.4830350000000  0.5140180000000 1.0
C      1  0.4775830000000  0.4944270000000  0.4347480000000 1.0
C      1  0.5055090000000  0.5767220000000  0.4564860000000 1.0
C      1  0.5375990000000  0.4598500000000  0.5564650000000 1.0
C      1  0.4532510000000  0.4954840000000  0.5133530000000 1.0
C      1  0.5667420000000  0.4539870000000  0.5020900000000 1.0
C      1  0.4168530000000  0.5091730000000  0.5041180000000 1.0
C      1  0.5581660000000  0.4777640000000  0.4918840000000 1.0
C      1  0.4831550000000  0.5136110000000  0.5484800000000 1.0
C      1  0.5210240000000  0.4465070000000  0.5760870000000 1.0
C      1  0.4577610000000  0.4298070000000  0.4996970000000 1.0
C      1  0.5553740000000  0.5302610000000  0.5434350000000 1.0
C      1  0.4149540000000  0.4609730000000  0.4961390000000 1.0
C      1  0.5024420000000  0.5365240000000  0.4854450000000 1.0
C      1  0.5367950000000  0.4748750000000  0.4703560000000 1.0
C      1  0.5060000000000  0.4714730000000  0.4832820000000 1.0
C      1  0.5024680000000  0.4323200000000  0.4770990000000 1.0
C      1  0.4795020000000  0.4612410000000  0.5431820000000 1.0
C      1  0.4945670000000  0.4404300000000  0.5657190000000 1.0
C      1  0.4488340000000  0.5479750000000  0.4870920000000 1.0
C      1  0.4686270000000  0.5062860000000  0.4850080000000 1.0
C      1  0.5336110000000  0.4998050000000  0.4538190000000 1.0
C      1  0.4666990000000  0.5718960000000  0.5001340000000 1.0
C      1  0.5457670000000  0.4971020000000  0.5121170000000 1.0
C      1  0.5077310000000  0.5203300000000  0.4594580000000 1.0
C      1  0.5150970000000  0.5291940000000  0.5588540000000 1.0
C      1  0.4430550000000  0.4899790000000  0.4696310000000 1.0
C      1  0.4961680000000  0.5099560000000  0.5046280000000 1.0
C      1  0.5108980000000  0.4935500000000  0.4300200000000 1.0
C      1  0.5458260000000  0.5262690000000  0.4690340000000 1.0
C      1  0.4980530000000  0.4859420000000  0.5434570000000 1.0
C      1  0.5004940000000  0.4369790000000  0.5346570000000 1.0
C      1  0.5447750000000  0.4380430000000  0.5096680000000 1.0
C      1  0.5317670000000  0.4254270000000  0.4881760000000 1.0
C      1  0.5282600000000  0.4452170000000  0.4630250000000 1.0
END
