TITL C-1154826-9507-446 -0.000644928866821054 125000 -333.935322351234 0 0 60 (C1) n - 1
REM
REM in /home/nfs/bkarasulu/CARBON/AIRSS/Generating-Clusters/AIREBO/Higher-Symm/Only-C60
REM
REM
REM
REM
REM
REM ./C.cell (28575a23ae977d3b5fae324c64b13b57)
REM
REM compiler GCC version 9.2.1 20190827 (Red Hat 9.2.1-1)
REM options -cpp -mtune=generic -march=x86-64 -g -O0 -fpre-include=/usr/include/finclude/math-vector-fortran.h
REM seed 2063487102 44118769 959883008 -740968017 -716396800 -1319138421 -1074009736 1219604141 -1530456829 867890294 1136796597 1764035079 -334816520 2055370424 1595396907 -1178349240 245594819 6441119 -1332765037 -1503223716 730386364 2108218577 2103551889 109460147 2138625616 -1117837124 142448835 898155077 790785005 1435527606 -994116525 -623313711 -509385294
REM
CELL 1.54180   50.00000   50.00000   50.00000   90.00000   90.00000   90.00000
LATT -1
SFAC C  
C      1  0.5714720000000  0.5247880000000  0.4759730000000 1.0
C      1  0.4985390000000  0.4496980000000  0.4867630000000 1.0
C      1  0.4509160000000  0.5206720000000  0.4919870000000 1.0
C      1  0.4425740000000  0.4410920000000  0.5306320000000 1.0
C      1  0.4871770000000  0.5724350000000  0.4992360000000 1.0
C      1  0.5869700000000  0.4745350000000  0.5289210000000 1.0
C      1  0.5348940000000  0.4393020000000  0.5404790000000 1.0
C      1  0.4223620000000  0.4969500000000  0.5456000000000 1.0
C      1  0.5187380000000  0.5539340000000  0.5412170000000 1.0
C      1  0.4636560000000  0.4310970000000  0.5157260000000 1.0
C      1  0.4593250000000  0.5654660000000  0.5067880000000 1.0
C      1  0.5807440000000  0.5001710000000  0.5172980000000 1.0
C      1  0.5399390000000  0.5031910000000  0.4642460000000 1.0
C      1  0.4765690000000  0.4701990000000  0.4604610000000 1.0
C      1  0.4789150000000  0.5534890000000  0.4497230000000 1.0
C      1  0.4451110000000  0.4966450000000  0.4570510000000 1.0
C      1  0.5179210000000  0.5615890000000  0.4517200000000 1.0
C      1  0.5338100000000  0.4522840000000  0.4656900000000 1.0
C      1  0.4823360000000  0.4366520000000  0.4590400000000 1.0
C      1  0.4480740000000  0.5516420000000  0.4586360000000 1.0
C      1  0.5609170000000  0.5239720000000  0.4479790000000 1.0
C      1  0.5624990000000  0.5159070000000  0.5330680000000 1.0
C      1  0.4888220000000  0.4301560000000  0.5297380000000 1.0
C      1  0.4446990000000  0.5414510000000  0.5259060000000 1.0
C      1  0.4939950000000  0.5733620000000  0.4716080000000 1.0
C      1  0.5541140000000  0.4768370000000  0.4790290000000 1.0
C      1  0.4510960000000  0.4735940000000  0.4827270000000 1.0
C      1  0.4258530000000  0.5037380000000  0.4823480000000 1.0
C      1  0.5614810000000  0.5467650000000  0.4905570000000 1.0
C      1  0.5256280000000  0.4340540000000  0.4932100000000 1.0
C      1  0.4999690000000  0.4796680000000  0.4996370000000 1.0
C      1  0.4820430000000  0.5081930000000  0.4981120000000 1.0
C      1  0.5093850000000  0.5280770000000  0.4944540000000 1.0
C      1  0.5023420000000  0.5348140000000  0.4657540000000 1.0
C      1  0.5157100000000  0.4820790000000  0.4710170000000 1.0
C      1  0.4775470000000  0.5013250000000  0.4651160000000 1.0
C      1  0.5626060000000  0.4557410000000  0.5291770000000 1.0
C      1  0.4434410000000  0.4718230000000  0.5366350000000 1.0
C      1  0.5091570000000  0.5694870000000  0.5163380000000 1.0
C      1  0.4660080000000  0.4434990000000  0.4880690000000 1.0
C      1  0.4467060000000  0.5478410000000  0.4865180000000 1.0
C      1  0.5749510000000  0.4998150000000  0.4890190000000 1.0
C      1  0.4784910000000  0.5070410000000  0.5319960000000 1.0
C      1  0.5158540000000  0.5178870000000  0.5245030000000 1.0
C      1  0.5042910000000  0.4751890000000  0.5302250000000 1.0
C      1  0.5470790000000  0.5415970000000  0.5343630000000 1.0
C      1  0.5163900000000  0.4261280000000  0.5223740000000 1.0
C      1  0.4270570000000  0.5178410000000  0.5236770000000 1.0
C      1  0.5061560000000  0.4583940000000  0.4485710000000 1.0
C      1  0.4624210000000  0.5238910000000  0.4461760000000 1.0
C      1  0.5280600000000  0.5294500000000  0.4461770000000 1.0
C      1  0.5350780000000  0.4730520000000  0.5363700000000 1.0
C      1  0.4722410000000  0.4792630000000  0.5429880000000 1.0
C      1  0.4969280000000  0.5320850000000  0.5464570000000 1.0
C      1  0.5334530000000  0.5490120000000  0.5047430000000 1.0
C      1  0.5507110000000  0.4536550000000  0.5005450000000 1.0
C      1  0.4362670000000  0.4881380000000  0.5096610000000 1.0
C      1  0.4649110000000  0.5341090000000  0.5443470000000 1.0
C      1  0.5365830000000  0.5030100000000  0.5353150000000 1.0
C      1  0.4890160000000  0.4522310000000  0.5483090000000 1.0
END
