TITL C-1154803-8277-472 0.00192544576784408 125000 -310.771326567836 0 0 60 (C3) n - 1
REM
REM in /home/nfs/bkarasulu/CARBON/AIRSS/Generating-Clusters/AIREBO/Higher-Symm/Only-C60
REM
REM
REM
REM
REM
REM ./C.cell (28575a23ae977d3b5fae324c64b13b57)
REM
REM compiler GCC version 9.2.1 20190827 (Red Hat 9.2.1-1)
REM options -cpp -mtune=generic -march=x86-64 -g -O0 -fpre-include=/usr/include/finclude/math-vector-fortran.h
REM seed 490448097 706333072 -393298194 829399395 1484652009 -145676498 -318877200 -1620283717 -1890689611 1819964287 -1744645271 -703086084 -896004389 -1707519311 584944654 1728522033 -130154315 1913538005 1320788047 -207207820 464004176 -1222009059 -540688369 1357537814 -178939833 1274693410 -1031227086 1318377192 -1390697922 1955816064 -1177465418 1836144180 -1001121862
REM
CELL 1.54180   50.00000   50.00000   50.00000   90.00000   90.00000   90.00000
LATT -1
SFAC C  
C      1  0.5671110000000  0.4754740000000  0.5187420000000 1.0
C      1  0.5671100000000  0.5284980000000  0.5118660000000 1.0
C      1  0.5671090000000  0.4960310000000  0.4693840000000 1.0
C      1  0.5606440000000  0.4754180000000  0.4897620000000 1.0
C      1  0.5606450000000  0.5034280000000  0.5264050000000 1.0
C      1  0.5606430000000  0.5211560000000  0.4838260000000 1.0
C      1  0.4782900000000  0.5576640000000  0.5166020000000 1.0
C      1  0.4782880000000  0.4855450000000  0.4417620000000 1.0
C      1  0.4782920000000  0.4567900000000  0.5416380000000 1.0
C      1  0.5010880000000  0.5611140000000  0.5397620000000 1.0
C      1  0.5010850000000  0.5038780000000  0.4271920000000 1.0
C      1  0.5010900000000  0.4350080000000  0.5330450000000 1.0
C      1  0.5294180000000  0.5099250000000  0.4295820000000 1.0
C      1  0.5294230000000  0.4340560000000  0.5266120000000 1.0
C      1  0.5294220000000  0.5560200000000  0.5438020000000 1.0
C      1  0.4995250000000  0.4304210000000  0.4617500000000 1.0
C      1  0.4995280000000  0.5016640000000  0.5793820000000 1.0
C      1  0.4995230000000  0.5679150000000  0.4588680000000 1.0
C      1  0.4076560000000  0.4861940000000  0.4643590000000 1.0
C      1  0.4076590000000  0.4760330000000  0.5297810000000 1.0
C      1  0.4076570000000  0.5377710000000  0.5058700000000 1.0
C      1  0.4777060000000  0.4397180000000  0.5087920000000 1.0
C      1  0.4777060000000  0.5377550000000  0.5478110000000 1.0
C      1  0.4777020000000  0.5225270000000  0.4433990000000 1.0
C      1  0.4744490000000  0.4791450000000  0.5162870000000 1.0
C      1  0.4744480000000  0.5245310000000  0.5099190000000 1.0
C      1  0.4744470000000  0.4963230000000  0.4737970000000 1.0
C      1  0.4888990000000  0.4531750000000  0.4804750000000 1.0
C      1  0.4889010000000  0.5065030000000  0.5503140000000 1.0
C      1  0.4888980000000  0.5403210000000  0.4692120000000 1.0
C      1  0.4494790000000  0.5470570000000  0.5307500000000 1.0
C      1  0.4494760000000  0.5030990000000  0.4438740000000 1.0
C      1  0.4494800000000  0.4498420000000  0.5253810000000 1.0
C      1  0.5253480000000  0.4733750000000  0.4450390000000 1.0
C      1  0.5253520000000  0.4657170000000  0.5505370000000 1.0
C      1  0.5253490000000  0.5609100000000  0.5044200000000 1.0
C      1  0.5507610000000  0.5530070000000  0.5205280000000 1.0
C      1  0.5507590000000  0.4912760000000  0.4438280000000 1.0
C      1  0.5507620000000  0.4557180000000  0.5356390000000 1.0
C      1  0.5050890000000  0.5341880000000  0.4987880000000 1.0
C      1  0.5050890000000  0.4818560000000  0.4709990000000 1.0
C      1  0.5050910000000  0.4839560000000  0.5302130000000 1.0
C      1  0.4341820000000  0.5348190000000  0.5097210000000 1.0
C      1  0.4341810000000  0.4910060000000  0.4649880000000 1.0
C      1  0.4341830000000  0.4741730000000  0.5252980000000 1.0
C      1  0.5107620000000  0.5234770000000  0.5305660000000 1.0
C      1  0.5107600000000  0.5147330000000  0.4643850000000 1.0
C      1  0.5107620000000  0.4617900000000  0.5050480000000 1.0
C      1  0.5240820000000  0.4225140000000  0.4721180000000 1.0
C      1  0.5240850000000  0.5145970000000  0.5810450000000 1.0
C      1  0.5240790000000  0.5628890000000  0.4468350000000 1.0
C      1  0.4524450000000  0.5182260000000  0.4877200000000 1.0
C      1  0.4524450000000  0.4802500000000  0.4903580000000 1.0
C      1  0.4524460000000  0.5015220000000  0.5219270000000 1.0
C      1  0.5337230000000  0.4730070000000  0.4870590000000 1.0
C      1  0.5337240000000  0.5022910000000  0.5298450000000 1.0
C      1  0.5337220000000  0.5247030000000  0.4830920000000 1.0
C      1  0.5293440000000  0.5298880000000  0.5583400000000 1.0
C      1  0.5293400000000  0.5355810000000  0.4449450000000 1.0
C      1  0.5293430000000  0.4345320000000  0.4967120000000 1.0
END
