TITL C-1154830-9999-215 0.00774037410033976 125000 -334.509337292765 0 0 60 (C1) n - 1
REM
REM in /home/nfs/bkarasulu/CARBON/AIRSS/Generating-Clusters/AIREBO/Higher-Symm/Only-C60
REM
REM
REM
REM
REM
REM ./C.cell (28575a23ae977d3b5fae324c64b13b57)
REM
REM compiler GCC version 9.2.1 20190827 (Red Hat 9.2.1-1)
REM options -cpp -mtune=generic -march=x86-64 -g -O0 -fpre-include=/usr/include/finclude/math-vector-fortran.h
REM seed 306412464 670428814 1955711672 -521617772 -927674036 -1469867710 1402229369 -1455839739 201846258 1267553862 -1820790944 504869640 -476890340 1819464758 506568704 889416022 -180517962 -1084105128 1521747478 322754478 1699047654 -613250474 -1089921332 134640847 -660304110 -845989067 -274365255 -1677704466 1435040199 1374119280 -183657140 -1299580485 -2070600374
REM
CELL 1.54180   50.00000   50.00000   50.00000   90.00000   90.00000   90.00000
LATT -1
SFAC C  
C      1  0.5195880000000  0.4630720000000  0.4809730000000 1.0
C      1  0.5051950000000  0.4598960000000  0.5303630000000 1.0
C      1  0.4689810000000  0.4649720000000  0.4920820000000 1.0
C      1  0.5295750000000  0.5025150000000  0.5124010000000 1.0
C      1  0.4783520000000  0.5062410000000  0.5211300000000 1.0
C      1  0.5017240000000  0.5032420000000  0.4713530000000 1.0
C      1  0.5751460000000  0.5120140000000  0.5244520000000 1.0
C      1  0.4390950000000  0.5109130000000  0.5527100000000 1.0
C      1  0.4968740000000  0.5109880000000  0.4217740000000 1.0
C      1  0.5745950000000  0.4972030000000  0.5483170000000 1.0
C      1  0.4175750000000  0.4967880000000  0.5405190000000 1.0
C      1  0.5203890000000  0.4962080000000  0.4155510000000 1.0
C      1  0.4724300000000  0.5046850000000  0.4891090000000 1.0
C      1  0.5304870000000  0.5015130000000  0.4798080000000 1.0
C      1  0.5078040000000  0.5134060000000  0.5336640000000 1.0
C      1  0.4757090000000  0.5532110000000  0.4855790000000 1.0
C      1  0.5083460000000  0.5629750000000  0.4883090000000 1.0
C      1  0.4921260000000  0.5603140000000  0.5145090000000 1.0
C      1  0.5225080000000  0.5470640000000  0.4483560000000 1.0
C      1  0.5363210000000  0.5487170000000  0.5392560000000 1.0
C      1  0.4439640000000  0.5465020000000  0.5196450000000 1.0
C      1  0.5555540000000  0.4444520000000  0.5079810000000 1.0
C      1  0.4657210000000  0.4436750000000  0.5455500000000 1.0
C      1  0.4784720000000  0.4449380000000  0.4451780000000 1.0
C      1  0.5512760000000  0.4825550000000  0.5538180000000 1.0
C      1  0.4253990000000  0.4813830000000  0.5180650000000 1.0
C      1  0.5299390000000  0.4783660000000  0.4361410000000 1.0
C      1  0.4470420000000  0.4619810000000  0.5252320000000 1.0
C      1  0.5054750000000  0.4633960000000  0.4437790000000 1.0
C      1  0.5449070000000  0.4601660000000  0.5344360000000 1.0
C      1  0.4439850000000  0.4866590000000  0.4939730000000 1.0
C      1  0.5456040000000  0.4827630000000  0.4595570000000 1.0
C      1  0.5234320000000  0.4899900000000  0.5498640000000 1.0
C      1  0.4861920000000  0.5256810000000  0.5551480000000 1.0
C      1  0.4719600000000  0.5284800000000  0.4647660000000 1.0
C      1  0.5443490000000  0.5299510000000  0.4873870000000 1.0
C      1  0.4720490000000  0.4832900000000  0.5775390000000 1.0
C      1  0.4526770000000  0.4861910000000  0.4318690000000 1.0
C      1  0.5696000000000  0.4840360000000  0.4778270000000 1.0
C      1  0.5040650000000  0.4366310000000  0.4659660000000 1.0
C      1  0.5264100000000  0.4342240000000  0.5225580000000 1.0
C      1  0.4663650000000  0.4372660000000  0.5121240000000 1.0
C      1  0.5478050000000  0.5292390000000  0.5207720000000 1.0
C      1  0.4544280000000  0.5234220000000  0.5310310000000 1.0
C      1  0.5012380000000  0.5266710000000  0.4484270000000 1.0
C      1  0.4664470000000  0.5090130000000  0.5663310000000 1.0
C      1  0.4677160000000  0.5097490000000  0.4363120000000 1.0
C      1  0.5688070000000  0.5074260000000  0.4948680000000 1.0
C      1  0.4330150000000  0.5801460000000  0.4850080000000 1.0
C      1  0.5306080000000  0.5605330000000  0.4261130000000 1.0
C      1  0.5240680000000  0.5678290000000  0.5616410000000 1.0
C      1  0.5293710000000  0.5523350000000  0.4747910000000 1.0
C      1  0.5023580000000  0.5520270000000  0.5409800000000 1.0
C      1  0.4488340000000  0.5613260000000  0.4967360000000 1.0
C      1  0.4889330000000  0.4725340000000  0.4720590000000 1.0
C      1  0.5258650000000  0.4712350000000  0.5085300000000 1.0
C      1  0.4788810000000  0.4735100000000  0.5224980000000 1.0
C      1  0.5730880000000  0.4578220000000  0.4904330000000 1.0
C      1  0.4758620000000  0.4577190000000  0.5674590000000 1.0
C      1  0.4554190000000  0.4589550000000  0.4373950000000 1.0
END
