TITL C-1154802-8274-499 0.00122501067037659 125000 -343.997559923687 0 0 60 (C1) n - 1
REM
REM in /home/nfs/bkarasulu/CARBON/AIRSS/Generating-Clusters/AIREBO/Higher-Symm/Only-C60
REM
REM
REM
REM
REM
REM ./C.cell (28575a23ae977d3b5fae324c64b13b57)
REM
REM compiler GCC version 9.2.1 20190827 (Red Hat 9.2.1-1)
REM options -cpp -mtune=generic -march=x86-64 -g -O0 -fpre-include=/usr/include/finclude/math-vector-fortran.h
REM seed 475927565 -332604794 -453647630 -766298140 -1239855803 -1791702003 954224254 1988739022 -1963355756 -1276114327 -122988821 -970372123 -1571724489 -702862479 1747299499 -1956972482 408073755 -37003239 -91156445 -1823132439 1924974747 258289726 1574242658 144542982 1326064085 781468742 -1636951771 -545322908 1229154042 2115948647 1464950560 843901291 -537879672
REM
CELL 1.54180   50.00000   50.00000   50.00000   90.00000   90.00000   90.00000
LATT -1
SFAC C  
C      1  0.4615230000000  0.4889260000000  0.5790440000000 1.0
C      1  0.4188630000000  0.4869270000000  0.5220350000000 1.0
C      1  0.4269280000000  0.4895110000000  0.4536900000000 1.0
C      1  0.4941530000000  0.4773450000000  0.4151560000000 1.0
C      1  0.5582950000000  0.4885390000000  0.4461470000000 1.0
C      1  0.5846970000000  0.4865790000000  0.5086550000000 1.0
C      1  0.5446880000000  0.4793560000000  0.5773850000000 1.0
C      1  0.5437750000000  0.5196370000000  0.5523220000000 1.0
C      1  0.4896210000000  0.5224170000000  0.5623160000000 1.0
C      1  0.4394660000000  0.5275180000000  0.5300580000000 1.0
C      1  0.4472790000000  0.5272350000000  0.4736660000000 1.0
C      1  0.4804030000000  0.5210750000000  0.4211150000000 1.0
C      1  0.5311480000000  0.5273970000000  0.4492020000000 1.0
C      1  0.5610530000000  0.5289020000000  0.5006220000000 1.0
C      1  0.5031470000000  0.4387980000000  0.4688920000000 1.0
C      1  0.5276890000000  0.4292050000000  0.4795180000000 1.0
C      1  0.5350600000000  0.4366950000000  0.5057490000000 1.0
C      1  0.5151310000000  0.4370380000000  0.5277000000000 1.0
C      1  0.4905000000000  0.4231810000000  0.5245800000000 1.0
C      1  0.4722670000000  0.4331140000000  0.5049480000000 1.0
C      1  0.4793800000000  0.4264960000000  0.4783010000000 1.0
C      1  0.4656940000000  0.4625660000000  0.5091460000000 1.0
C      1  0.4729140000000  0.4783090000000  0.4820690000000 1.0
C      1  0.5006880000000  0.4688670000000  0.4678540000000 1.0
C      1  0.5229610000000  0.4820870000000  0.4877290000000 1.0
C      1  0.5341530000000  0.4687630000000  0.5126710000000 1.0
C      1  0.5116970000000  0.4666510000000  0.5381980000000 1.0
C      1  0.4816660000000  0.4712560000000  0.5340560000000 1.0
C      1  0.5737580000000  0.4680530000000  0.4394550000000 1.0
C      1  0.6026280000000  0.4668530000000  0.5069010000000 1.0
C      1  0.5522460000000  0.4584460000000  0.5921350000000 1.0
C      1  0.4466710000000  0.4719690000000  0.5930570000000 1.0
C      1  0.4005230000000  0.4674350000000  0.5225540000000 1.0
C      1  0.4109980000000  0.4710460000000  0.4433390000000 1.0
C      1  0.4986490000000  0.4540500000000  0.4026980000000 1.0
C      1  0.4759350000000  0.5134650000000  0.5857710000000 1.0
C      1  0.4172080000000  0.5123340000000  0.5352440000000 1.0
C      1  0.4232980000000  0.5171790000000  0.4637540000000 1.0
C      1  0.4812440000000  0.5001090000000  0.4035990000000 1.0
C      1  0.5500100000000  0.5132740000000  0.4321580000000 1.0
C      1  0.5874320000000  0.5142310000000  0.4994830000000 1.0
C      1  0.5587460000000  0.5045520000000  0.5727000000000 1.0
C      1  0.5033460000000  0.5172530000000  0.4457470000000 1.0
C      1  0.5447430000000  0.5256270000000  0.4774030000000 1.0
C      1  0.5519320000000  0.5143510000000  0.5256450000000 1.0
C      1  0.5153910000000  0.5124690000000  0.5585460000000 1.0
C      1  0.4698050000000  0.5192690000000  0.5378330000000 1.0
C      1  0.4538370000000  0.5176030000000  0.5013740000000 1.0
C      1  0.4699770000000  0.5196170000000  0.4524410000000 1.0
C      1  0.5206280000000  0.4829670000000  0.5617570000000 1.0
C      1  0.4692810000000  0.4900030000000  0.5507320000000 1.0
C      1  0.4436620000000  0.4865890000000  0.5080320000000 1.0
C      1  0.4557610000000  0.4905750000000  0.4607300000000 1.0
C      1  0.5018290000000  0.4840460000000  0.4414370000000 1.0
C      1  0.5430610000000  0.4957610000000  0.4704280000000 1.0
C      1  0.5583030000000  0.4858270000000  0.5203180000000 1.0
C      1  0.4965120000000  0.5492140000000  0.5041610000000 1.0
C      1  0.5081250000000  0.5717710000000  0.5013530000000 1.0
C      1  0.4849410000000  0.5216940000000  0.5093580000000 1.0
C      1  0.4959340000000  0.4977750000000  0.4944540000000 1.0
END
