TITL C-1154802-8274-84 -8.87788396478294e-05 125000 -294.811469535046 0 0 60 (C1) n - 1
REM
REM in /home/nfs/bkarasulu/CARBON/AIRSS/Generating-Clusters/AIREBO/Higher-Symm/Only-C60
REM
REM
REM
REM
REM
REM ./C.cell (28575a23ae977d3b5fae324c64b13b57)
REM
REM compiler GCC version 9.2.1 20190827 (Red Hat 9.2.1-1)
REM options -cpp -mtune=generic -march=x86-64 -g -O0 -fpre-include=/usr/include/finclude/math-vector-fortran.h
REM seed 610546118 -1035432083 -1522468855 -481106708 2131778197 1856959320 -1629419013 -595430081 1110423812 1103244987 -1103020287 553453578 999947515 -1835482106 1952051437 371138580 1383997431 1951910988 1981945186 16801170 41486256 1651868595 -1825882270 -2010636626 -60867773 1576227411 -1859031930 -383938050 1419801887 -1396518410 506986844 1485949379 1527845543
REM
CELL 1.54180   50.00000   50.00000   50.00000   90.00000   90.00000   90.00000
LATT -1
SFAC C  
C      1  0.5277150000000  0.4915560000000  0.5009170000000 1.0
C      1  0.5049440000000  0.5278800000000  0.5064760000000 1.0
C      1  0.4759540000000  0.4822100000000  0.5014710000000 1.0
C      1  0.4914130000000  0.5199180000000  0.5316120000000 1.0
C      1  0.4874810000000  0.4806880000000  0.5252700000000 1.0
C      1  0.5251580000000  0.4995270000000  0.5259630000000 1.0
C      1  0.5045030000000  0.4866440000000  0.4315600000000 1.0
C      1  0.5082490000000  0.5193450000000  0.4337900000000 1.0
C      1  0.4712160000000  0.4942920000000  0.4300450000000 1.0
C      1  0.5406320000000  0.4871180000000  0.5639650000000 1.0
C      1  0.4654050000000  0.5474690000000  0.5645520000000 1.0
C      1  0.4706310000000  0.4736160000000  0.5679560000000 1.0
C      1  0.4624990000000  0.5171400000000  0.4447060000000 1.0
C      1  0.5019600000000  0.4561330000000  0.4424900000000 1.0
C      1  0.5368920000000  0.5254010000000  0.4398240000000 1.0
C      1  0.4171480000000  0.5147500000000  0.5006290000000 1.0
C      1  0.5401790000000  0.4266320000000  0.4906620000000 1.0
C      1  0.5458670000000  0.5728110000000  0.5012140000000 1.0
C      1  0.5399350000000  0.5140340000000  0.5642790000000 1.0
C      1  0.4518730000000  0.5246620000000  0.5579580000000 1.0
C      1  0.4955110000000  0.4629130000000  0.5680760000000 1.0
C      1  0.4885910000000  0.5312330000000  0.4549780000000 1.0
C      1  0.4732170000000  0.4702040000000  0.4502490000000 1.0
C      1  0.5339010000000  0.4925350000000  0.4480460000000 1.0
C      1  0.5628280000000  0.4700580000000  0.5034850000000 1.0
C      1  0.4979780000000  0.5671080000000  0.5056940000000 1.0
C      1  0.4409240000000  0.4588170000000  0.5063940000000 1.0
C      1  0.5542500000000  0.5249010000000  0.4912270000000 1.0
C      1  0.4661640000000  0.5230550000000  0.4921860000000 1.0
C      1  0.4947320000000  0.4478580000000  0.4931720000000 1.0
C      1  0.4460860000000  0.4956080000000  0.4922300000000 1.0
C      1  0.5267850000000  0.4590280000000  0.4910140000000 1.0
C      1  0.5278100000000  0.5461980000000  0.4891800000000 1.0
C      1  0.4654270000000  0.4414840000000  0.4913120000000 1.0
C      1  0.5692160000000  0.4988920000000  0.4873280000000 1.0
C      1  0.4712510000000  0.5537450000000  0.4894700000000 1.0
C      1  0.5409430000000  0.5451590000000  0.4578230000000 1.0
C      1  0.4422860000000  0.5114820000000  0.4623840000000 1.0
C      1  0.5207330000000  0.4470780000000  0.4597490000000 1.0
C      1  0.4677420000000  0.5832010000000  0.5037110000000 1.0
C      1  0.4420770000000  0.4258870000000  0.5085300000000 1.0
C      1  0.5928080000000  0.4831940000000  0.5042540000000 1.0
C      1  0.4955520000000  0.5102650000000  0.4808230000000 1.0
C      1  0.4922520000000  0.4767240000000  0.4753700000000 1.0
C      1  0.5290670000000  0.5088210000000  0.4752650000000 1.0
C      1  0.4673990000000  0.4995900000000  0.5445280000000 1.0
C      1  0.5152270000000  0.4730440000000  0.5434000000000 1.0
C      1  0.5223470000000  0.5293330000000  0.5421340000000 1.0
C      1  0.5133620000000  0.4214750000000  0.4929310000000 1.0
C      1  0.5662380000000  0.5545260000000  0.4960870000000 1.0
C      1  0.4377000000000  0.5321540000000  0.5059980000000 1.0
C      1  0.4500520000000  0.4667890000000  0.4746000000000 1.0
C      1  0.5502160000000  0.4750660000000  0.4722870000000 1.0
C      1  0.5002070000000  0.5576770000000  0.4729790000000 1.0
C      1  0.5393140000000  0.4598240000000  0.5233510000000 1.0
C      1  0.5045560000000  0.5572880000000  0.5344920000000 1.0
C      1  0.4447060000000  0.4818970000000  0.5263880000000 1.0
C      1  0.4853800000000  0.5624080000000  0.5533490000000 1.0
C      1  0.4436210000000  0.4699380000000  0.5562790000000 1.0
C      1  0.5518910000000  0.4617210000000  0.5539080000000 1.0
END
