TITL C-1154808-8168-434 -0.000260464581978434 125000 -338.033913561473 0 0 60 (C1) n - 1
REM
REM in /home/nfs/bkarasulu/CARBON/AIRSS/Generating-Clusters/AIREBO/Higher-Symm/Only-C60
REM
REM
REM
REM
REM
REM ./C.cell (28575a23ae977d3b5fae324c64b13b57)
REM
REM compiler GCC version 9.2.1 20190827 (Red Hat 9.2.1-1)
REM options -cpp -mtune=generic -march=x86-64 -g -O0 -fpre-include=/usr/include/finclude/math-vector-fortran.h
REM seed -1926612218 207289965 -1336038474 376385556 1711891511 -117088550 -2130807123 236196686 370402772 -259869239 1987687288 -2145608470 -1451308415 1397036271 -802608239 -2002300911 -1590571246 1770884756 2047132340 2053019715 -1697883415 -42239896 625843847 -1070967713 251359930 1192953163 -907081968 1142060911 -1018604830 -933497943 695369193 -2008069413 -126898577
REM
CELL 1.54180   50.00000   50.00000   50.00000   90.00000   90.00000   90.00000
LATT -1
SFAC C  
C      1  0.4710060000000  0.5635660000000  0.5386850000000 1.0
C      1  0.4725580000000  0.4353210000000  0.5411990000000 1.0
C      1  0.4736920000000  0.4988880000000  0.4332310000000 1.0
C      1  0.5269150000000  0.5530570000000  0.5413180000000 1.0
C      1  0.5343050000000  0.4407060000000  0.5364250000000 1.0
C      1  0.5281950000000  0.4964510000000  0.4270350000000 1.0
C      1  0.4431270000000  0.5461850000000  0.4637440000000 1.0
C      1  0.4458350000000  0.5070180000000  0.5549140000000 1.0
C      1  0.4352740000000  0.4505150000000  0.4886520000000 1.0
C      1  0.5532400000000  0.5417370000000  0.4593690000000 1.0
C      1  0.5537960000000  0.5125210000000  0.5555610000000 1.0
C      1  0.5621160000000  0.4473030000000  0.4778900000000 1.0
C      1  0.4873270000000  0.4672520000000  0.4992050000000 1.0
C      1  0.4812050000000  0.5201480000000  0.4729100000000 1.0
C      1  0.4699630000000  0.5166800000000  0.5246110000000 1.0
C      1  0.5205460000000  0.4707170000000  0.4975420000000 1.0
C      1  0.5141430000000  0.5111700000000  0.4682800000000 1.0
C      1  0.5232440000000  0.5170730000000  0.5246740000000 1.0
C      1  0.4363100000000  0.4686770000000  0.5242310000000 1.0
C      1  0.4524230000000  0.5026770000000  0.4668190000000 1.0
C      1  0.4429810000000  0.5313430000000  0.5140630000000 1.0
C      1  0.5473050000000  0.4740640000000  0.5186050000000 1.0
C      1  0.5704220000000  0.4938410000000  0.4586650000000 1.0
C      1  0.5498490000000  0.5321860000000  0.5096870000000 1.0
C      1  0.5275150000000  0.4806580000000  0.4709790000000 1.0
C      1  0.5127580000000  0.5300850000000  0.4950590000000 1.0
C      1  0.5105240000000  0.4874930000000  0.5356670000000 1.0
C      1  0.4749360000000  0.4698970000000  0.4710340000000 1.0
C      1  0.4838740000000  0.5478600000000  0.4924630000000 1.0
C      1  0.4816900000000  0.4872840000000  0.5239170000000 1.0
C      1  0.5090910000000  0.5307510000000  0.5524180000000 1.0
C      1  0.5147570000000  0.4400980000000  0.5086130000000 1.0
C      1  0.5219540000000  0.5269150000000  0.4391700000000 1.0
C      1  0.4806630000000  0.5341270000000  0.5486120000000 1.0
C      1  0.4845990000000  0.4350840000000  0.5100960000000 1.0
C      1  0.4900280000000  0.5271090000000  0.4408170000000 1.0
C      1  0.5151350000000  0.5581880000000  0.5151070000000 1.0
C      1  0.5144730000000  0.4584530000000  0.5500140000000 1.0
C      1  0.5134640000000  0.4778050000000  0.4437550000000 1.0
C      1  0.4871450000000  0.5697300000000  0.5160040000000 1.0
C      1  0.4904610000000  0.4455310000000  0.5589640000000 1.0
C      1  0.4858660000000  0.4777080000000  0.4464620000000 1.0
C      1  0.4560870000000  0.5264220000000  0.4427510000000 1.0
C      1  0.4472270000000  0.5400340000000  0.5467960000000 1.0
C      1  0.4527390000000  0.4432320000000  0.5147090000000 1.0
C      1  0.5530860000000  0.5136900000000  0.4426990000000 1.0
C      1  0.5527340000000  0.5377010000000  0.5418780000000 1.0
C      1  0.5480270000000  0.4429160000000  0.5052150000000 1.0
C      1  0.5428800000000  0.4896460000000  0.5458620000000 1.0
C      1  0.5557020000000  0.4709170000000  0.4650150000000 1.0
C      1  0.5489970000000  0.5483520000000  0.4831440000000 1.0
C      1  0.4526810000000  0.4847340000000  0.5401980000000 1.0
C      1  0.4457510000000  0.4698470000000  0.4727440000000 1.0
C      1  0.4528560000000  0.5457070000000  0.4893920000000 1.0
C      1  0.5762400000000  0.5166870000000  0.5088050000000 1.0
C      1  0.5738640000000  0.4854870000000  0.5078750000000 1.0
C      1  0.5840760000000  0.5021270000000  0.4816140000000 1.0
C      1  0.4195250000000  0.5146680000000  0.5081740000000 1.0
C      1  0.4199420000000  0.4827320000000  0.5066910000000 1.0
C      1  0.4228780000000  0.5012320000000  0.4799720000000 1.0
END
