TITL C-1154830-9999-405 -0.00423837638068216 125000 -326.350166857539 0 0 60 (C1) n - 1
REM
REM in /home/nfs/bkarasulu/CARBON/AIRSS/Generating-Clusters/AIREBO/Higher-Symm/Only-C60
REM
REM
REM
REM
REM
REM ./C.cell (28575a23ae977d3b5fae324c64b13b57)
REM
REM compiler GCC version 9.2.1 20190827 (Red Hat 9.2.1-1)
REM options -cpp -mtune=generic -march=x86-64 -g -O0 -fpre-include=/usr/include/finclude/math-vector-fortran.h
REM seed 917409627 -1125262724 1543250806 -1050537997 -1930001738 274615763 1773817187 -2120129681 -1654423820 -1156539369 1446437439 2143473528 -481431570 -638462267 850873312 -1722883810 1868405890 -586849956 -303278204 -1101905203 101165797 696915158 227629836 596321829 1060315740 1660408086 -1695542890 -749801339 -1168532042 1852638059 -1650951995 1829440640 1036243265
REM
CELL 1.54180   50.00000   50.00000   50.00000   90.00000   90.00000   90.00000
LATT -1
SFAC C  
C      1  0.4630450000000  0.5170560000000  0.5563980000000 1.0
C      1  0.4680790000000  0.4886910000000  0.4304560000000 1.0
C      1  0.5447130000000  0.5077420000000  0.5541710000000 1.0
C      1  0.5354150000000  0.4847940000000  0.4473830000000 1.0
C      1  0.4629590000000  0.5148040000000  0.4415710000000 1.0
C      1  0.4681530000000  0.4912620000000  0.5679990000000 1.0
C      1  0.5372140000000  0.5150490000000  0.4452320000000 1.0
C      1  0.5446040000000  0.4812820000000  0.5474340000000 1.0
C      1  0.5701660000000  0.4398670000000  0.4887130000000 1.0
C      1  0.5684930000000  0.5421150000000  0.5094190000000 1.0
C      1  0.4290960000000  0.4351280000000  0.4885870000000 1.0
C      1  0.4422050000000  0.5368750000000  0.5131320000000 1.0
C      1  0.5750210000000  0.4554320000000  0.5137680000000 1.0
C      1  0.5615930000000  0.5400510000000  0.4833280000000 1.0
C      1  0.4287780000000  0.4365100000000  0.5143760000000 1.0
C      1  0.4425450000000  0.5379390000000  0.4855720000000 1.0
C      1  0.5480320000000  0.5144110000000  0.4765210000000 1.0
C      1  0.5477380000000  0.4757380000000  0.5140310000000 1.0
C      1  0.4552790000000  0.5131080000000  0.4730790000000 1.0
C      1  0.4503720000000  0.4839520000000  0.5160720000000 1.0
C      1  0.5493080000000  0.5320370000000  0.5307170000000 1.0
C      1  0.5417310000000  0.4798650000000  0.4804260000000 1.0
C      1  0.4584010000000  0.5134510000000  0.5253720000000 1.0
C      1  0.4488400000000  0.4835010000000  0.4855560000000 1.0
C      1  0.5276640000000  0.4575530000000  0.4432050000000 1.0
C      1  0.5302930000000  0.5330730000000  0.5653540000000 1.0
C      1  0.4761190000000  0.4693610000000  0.4480060000000 1.0
C      1  0.4659390000000  0.5461260000000  0.5540650000000 1.0
C      1  0.5307640000000  0.4568120000000  0.5531560000000 1.0
C      1  0.5318430000000  0.5437170000000  0.4449630000000 1.0
C      1  0.4753140000000  0.4711940000000  0.5509700000000 1.0
C      1  0.4698700000000  0.5432380000000  0.4459940000000 1.0
C      1  0.5098740000000  0.5665480000000  0.5244960000000 1.0
C      1  0.5146820000000  0.4399900000000  0.4693510000000 1.0
C      1  0.4793490000000  0.5678650000000  0.5311820000000 1.0
C      1  0.4843180000000  0.4431470000000  0.4681340000000 1.0
C      1  0.5172240000000  0.5666230000000  0.4658660000000 1.0
C      1  0.5122920000000  0.4391250000000  0.5305720000000 1.0
C      1  0.4870250000000  0.5621830000000  0.4685700000000 1.0
C      1  0.4827320000000  0.4439280000000  0.5316860000000 1.0
C      1  0.5432990000000  0.4422850000000  0.5182080000000 1.0
C      1  0.5503490000000  0.5589610000000  0.4657720000000 1.0
C      1  0.4508020000000  0.4535450000000  0.5254550000000 1.0
C      1  0.4531890000000  0.5588380000000  0.4688350000000 1.0
C      1  0.5471290000000  0.4473720000000  0.4763890000000 1.0
C      1  0.5259670000000  0.5537980000000  0.5424610000000 1.0
C      1  0.4525360000000  0.4529040000000  0.4763070000000 1.0
C      1  0.4474780000000  0.5579880000000  0.5311320000000 1.0
C      1  0.4836900000000  0.4826850000000  0.5227620000000 1.0
C      1  0.4871800000000  0.5131910000000  0.4819070000000 1.0
C      1  0.5160690000000  0.4865610000000  0.5200540000000 1.0
C      1  0.5201650000000  0.5120970000000  0.4899100000000 1.0
C      1  0.4800090000000  0.4819610000000  0.4755980000000 1.0
C      1  0.4883600000000  0.5143860000000  0.5135780000000 1.0
C      1  0.5084950000000  0.4801970000000  0.4875910000000 1.0
C      1  0.5205730000000  0.5195220000000  0.5227550000000 1.0
C      1  0.4769620000000  0.5727850000000  0.4981280000000 1.0
C      1  0.5169010000000  0.5737170000000  0.4990810000000 1.0
C      1  0.4725460000000  0.4384650000000  0.4996990000000 1.0
C      1  0.5212190000000  0.4275990000000  0.4994970000000 1.0
END
