TITL C-1154802-8274-532 -0.00287646978745859 125000 -346.012295183707 0 0 60 (C1) n - 1
REM
REM in /home/nfs/bkarasulu/CARBON/AIRSS/Generating-Clusters/AIREBO/Higher-Symm/Only-C60
REM
REM
REM
REM
REM
REM ./C.cell (28575a23ae977d3b5fae324c64b13b57)
REM
REM compiler GCC version 9.2.1 20190827 (Red Hat 9.2.1-1)
REM options -cpp -mtune=generic -march=x86-64 -g -O0 -fpre-include=/usr/include/finclude/math-vector-fortran.h
REM seed -1823849562 263661561 1384772068 -1285764429 -811423047 -1518948115 -1566826959 1924834852 -1632579270 -738710610 -528797968 2125594254 1033541741 -401158851 -1057912134 1006374972 1637025271 1724592612 -1434543662 -858724837 1937609344 -1584253111 -1871550507 901622544 1955098656 -1959100298 -1512271532 -321071644 352946026 -193626153 1727628588 -1014265698 1449929474
REM
CELL 1.54180   50.00000   50.00000   50.00000   90.00000   90.00000   90.00000
LATT -1
SFAC C  
C      1  0.5049290000000  0.4547450000000  0.5348290000000 1.0
C      1  0.4913170000000  0.4609190000000  0.4557660000000 1.0
C      1  0.4534040000000  0.4604790000000  0.5628590000000 1.0
C      1  0.5428260000000  0.4671330000000  0.4361030000000 1.0
C      1  0.4897860000000  0.5833740000000  0.5087950000000 1.0
C      1  0.5101740000000  0.5809570000000  0.4884740000000 1.0
C      1  0.4402090000000  0.4896250000000  0.4738600000000 1.0
C      1  0.5582280000000  0.4893540000000  0.5261960000000 1.0
C      1  0.4979580000000  0.4885330000000  0.4862700000000 1.0
C      1  0.5059530000000  0.4900670000000  0.5161900000000 1.0
C      1  0.4813250000000  0.5158380000000  0.4746950000000 1.0
C      1  0.5250370000000  0.5315350000000  0.5372450000000 1.0
C      1  0.4846210000000  0.4534730000000  0.5621110000000 1.0
C      1  0.5138570000000  0.4686860000000  0.4315130000000 1.0
C      1  0.5609340000000  0.4497880000000  0.4929260000000 1.0
C      1  0.4498240000000  0.4653520000000  0.5057820000000 1.0
C      1  0.4574870000000  0.4648740000000  0.4573840000000 1.0
C      1  0.5333680000000  0.4681170000000  0.5373220000000 1.0
C      1  0.4188100000000  0.5304730000000  0.4942890000000 1.0
C      1  0.5810680000000  0.5266280000000  0.5029670000000 1.0
C      1  0.5714200000000  0.4979970000000  0.5029230000000 1.0
C      1  0.4269120000000  0.5022540000000  0.4959590000000 1.0
C      1  0.5355420000000  0.4306740000000  0.5060710000000 1.0
C      1  0.4618860000000  0.4400140000000  0.4884030000000 1.0
C      1  0.5394410000000  0.4467680000000  0.4701910000000 1.0
C      1  0.4663330000000  0.4484280000000  0.5270060000000 1.0
C      1  0.5651400000000  0.5495160000000  0.4957750000000 1.0
C      1  0.4364420000000  0.5510720000000  0.5026950000000 1.0
C      1  0.5154450000000  0.5240370000000  0.5068770000000 1.0
C      1  0.4857650000000  0.5222630000000  0.5037680000000 1.0
C      1  0.5260710000000  0.5546760000000  0.5491830000000 1.0
C      1  0.4769660000000  0.5349590000000  0.4555160000000 1.0
C      1  0.5119010000000  0.5775370000000  0.5531880000000 1.0
C      1  0.4884680000000  0.5585790000000  0.4481680000000 1.0
C      1  0.5082980000000  0.4388550000000  0.5070340000000 1.0
C      1  0.4905860000000  0.4425980000000  0.4844810000000 1.0
C      1  0.5300870000000  0.5011150000000  0.4663010000000 1.0
C      1  0.4642920000000  0.5008590000000  0.5397180000000 1.0
C      1  0.4998460000000  0.5792240000000  0.4620510000000 1.0
C      1  0.4983510000000  0.5919810000000  0.5342670000000 1.0
C      1  0.4695620000000  0.5242770000000  0.5267880000000 1.0
C      1  0.5282150000000  0.5235340000000  0.4802520000000 1.0
C      1  0.4458770000000  0.4345480000000  0.4638220000000 1.0
C      1  0.5546700000000  0.4478980000000  0.5254730000000 1.0
C      1  0.4696980000000  0.4789090000000  0.4840510000000 1.0
C      1  0.5298440000000  0.5011160000000  0.5359090000000 1.0
C      1  0.4416820000000  0.4844190000000  0.5504030000000 1.0
C      1  0.5533170000000  0.4850100000000  0.4573200000000 1.0
C      1  0.4819060000000  0.4783570000000  0.5312820000000 1.0
C      1  0.5192440000000  0.4693450000000  0.4710390000000 1.0
C      1  0.5686350000000  0.4784990000000  0.4815190000000 1.0
C      1  0.4324450000000  0.4858780000000  0.5207380000000 1.0
C      1  0.4636030000000  0.5714310000000  0.5063450000000 1.0
C      1  0.5375400000000  0.5711050000000  0.4919330000000 1.0
C      1  0.5496490000000  0.4385400000000  0.4436860000000 1.0
C      1  0.4538320000000  0.4326060000000  0.5476410000000 1.0
C      1  0.5433250000000  0.5455670000000  0.4745200000000 1.0
C      1  0.4553350000000  0.5481680000000  0.5275120000000 1.0
C      1  0.3945180000000  0.5365410000000  0.4840390000000 1.0
C      1  0.6067960000000  0.5308970000000  0.5105780000000 1.0
END
