TITL C-1154825-9328-447 -0.000735615839857394 125000 -322.173139683864 0 0 60 (C1) n - 1
REM
REM in /home/nfs/bkarasulu/CARBON/AIRSS/Generating-Clusters/AIREBO/Higher-Symm/Only-C60
REM
REM
REM
REM
REM
REM ./C.cell (28575a23ae977d3b5fae324c64b13b57)
REM
REM compiler GCC version 9.2.1 20190827 (Red Hat 9.2.1-1)
REM options -cpp -mtune=generic -march=x86-64 -g -O0 -fpre-include=/usr/include/finclude/math-vector-fortran.h
REM seed 1577728735 1858812196 1393464049 -1056454618 -844326955 443336815 -1411104481 -373236293 1971100723 360328936 -949521804 -159032712 -2000134908 -138948615 -307200380 -324516359 -1731669968 1052089402 -31737617 -318120686 -1600824488 -2065895210 1383271445 -195448042 -769699076 -414026256 1729693328 -2081021374 97823687 -914755046 -2133693228 1696090651 -583469186
REM
CELL 1.54180   50.00000   50.00000   50.00000   90.00000   90.00000   90.00000
LATT -1
SFAC C  
C      1  0.4542310000000  0.5103480000000  0.4402430000000 1.0
C      1  0.5130880000000  0.5193740000000  0.4384840000000 1.0
C      1  0.5796920000000  0.4938030000000  0.4742280000000 1.0
C      1  0.5651360000000  0.5053390000000  0.5504610000000 1.0
C      1  0.5090020000000  0.5069360000000  0.5702630000000 1.0
C      1  0.4488840000000  0.5074270000000  0.5431970000000 1.0
C      1  0.4339350000000  0.5165660000000  0.4782260000000 1.0
C      1  0.5592150000000  0.5463900000000  0.5018170000000 1.0
C      1  0.5148190000000  0.5623150000000  0.5682970000000 1.0
C      1  0.4621330000000  0.5611960000000  0.5559690000000 1.0
C      1  0.4607140000000  0.5850020000000  0.4998610000000 1.0
C      1  0.4511610000000  0.5693250000000  0.4341240000000 1.0
C      1  0.5042750000000  0.5640310000000  0.4455890000000 1.0
C      1  0.5400880000000  0.5897180000000  0.4744040000000 1.0
C      1  0.4668400000000  0.5596700000000  0.5088000000000 1.0
C      1  0.4713780000000  0.5586100000000  0.4495410000000 1.0
C      1  0.4887820000000  0.5771760000000  0.4715150000000 1.0
C      1  0.5276380000000  0.5454220000000  0.4909410000000 1.0
C      1  0.5325810000000  0.5483840000000  0.5229680000000 1.0
C      1  0.5071110000000  0.5491550000000  0.5416120000000 1.0
C      1  0.4787450000000  0.5567460000000  0.5341420000000 1.0
C      1  0.5328970000000  0.4931390000000  0.4947240000000 1.0
C      1  0.5290030000000  0.4885490000000  0.5244590000000 1.0
C      1  0.5055970000000  0.4714910000000  0.5397010000000 1.0
C      1  0.4621370000000  0.4847000000000  0.5131390000000 1.0
C      1  0.4620520000000  0.4748700000000  0.4831030000000 1.0
C      1  0.4912810000000  0.4846070000000  0.4687200000000 1.0
C      1  0.5244990000000  0.4821030000000  0.4640290000000 1.0
C      1  0.5030770000000  0.4805670000000  0.5705660000000 1.0
C      1  0.4471760000000  0.4807200000000  0.5499580000000 1.0
C      1  0.4382370000000  0.4925030000000  0.4722480000000 1.0
C      1  0.4578450000000  0.4837930000000  0.4332380000000 1.0
C      1  0.5312570000000  0.5012740000000  0.4402660000000 1.0
C      1  0.5593760000000  0.4787180000000  0.4846870000000 1.0
C      1  0.5664780000000  0.4774310000000  0.5495820000000 1.0
C      1  0.5445750000000  0.4636040000000  0.5369580000000 1.0
C      1  0.5060080000000  0.4494540000000  0.5659250000000 1.0
C      1  0.4638960000000  0.4597850000000  0.5362130000000 1.0
C      1  0.4543360000000  0.4438570000000  0.4842390000000 1.0
C      1  0.4759710000000  0.4669450000000  0.4464940000000 1.0
C      1  0.5306590000000  0.4527450000000  0.4568690000000 1.0
C      1  0.5612000000000  0.4512740000000  0.4912410000000 1.0
C      1  0.4672710000000  0.5311230000000  0.4616810000000 1.0
C      1  0.4943720000000  0.5166500000000  0.4631760000000 1.0
C      1  0.5124750000000  0.5190160000000  0.4883450000000 1.0
C      1  0.5491740000000  0.5228740000000  0.5381380000000 1.0
C      1  0.5158590000000  0.5161570000000  0.5393720000000 1.0
C      1  0.4648270000000  0.5167270000000  0.5161950000000 1.0
C      1  0.4561940000000  0.5351820000000  0.4925810000000 1.0
C      1  0.4927680000000  0.4481090000000  0.4940100000000 1.0
C      1  0.5182640000000  0.4339170000000  0.4795140000000 1.0
C      1  0.5401000000000  0.4344760000000  0.5002500000000 1.0
C      1  0.5326820000000  0.4387060000000  0.5272090000000 1.0
C      1  0.5063440000000  0.4317700000000  0.5400510000000 1.0
C      1  0.4785790000000  0.4364120000000  0.5294780000000 1.0
C      1  0.4699320000000  0.4266110000000  0.5025580000000 1.0
C      1  0.4923360000000  0.4728090000000  0.5111570000000 1.0
C      1  0.5212110000000  0.5692130000000  0.4741610000000 1.0
C      1  0.4952280000000  0.5070460000000  0.5139130000000 1.0
C      1  0.4917790000000  0.4455920000000  0.4608210000000 1.0
END
