TITL C-1154826-9507-57 7.67078852225015e-05 125000 -329.84605923806 0 0 60 (C1) n - 1
REM
REM in /home/nfs/bkarasulu/CARBON/AIRSS/Generating-Clusters/AIREBO/Higher-Symm/Only-C60
REM
REM
REM
REM
REM
REM ./C.cell (28575a23ae977d3b5fae324c64b13b57)
REM
REM compiler GCC version 9.2.1 20190827 (Red Hat 9.2.1-1)
REM options -cpp -mtune=generic -march=x86-64 -g -O0 -fpre-include=/usr/include/finclude/math-vector-fortran.h
REM seed 1399218870 -297857922 1032782367 -747975109 567124854 -1576428857 -1448210921 -493040958 1695730991 157880758 -1502465083 -655364150 -1866083574 -1006389687 -1162537458 -749695100 -1740125190 -1223420026 -777339807 1879373864 1570518187 1058678219 1986831347 1724587403 229988362 -1887623308 1540879032 -364838554 2022259324 1861892969 -335951251 -1981793242 -1165051372
REM
CELL 1.54180   50.00000   50.00000   50.00000   90.00000   90.00000   90.00000
LATT -1
SFAC C  
C      1  0.5350730000000  0.5776030000000  0.4735970000000 1.0
C      1  0.4914040000000  0.5620870000000  0.4436020000000 1.0
C      1  0.4472480000000  0.5612310000000  0.4776740000000 1.0
C      1  0.4639040000000  0.5763450000000  0.5276030000000 1.0
C      1  0.5086080000000  0.5635820000000  0.5565490000000 1.0
C      1  0.5531990000000  0.5613550000000  0.5231610000000 1.0
C      1  0.4381370000000  0.5149260000000  0.5095230000000 1.0
C      1  0.4756020000000  0.5192680000000  0.5601360000000 1.0
C      1  0.5394460000000  0.5278240000000  0.5489320000000 1.0
C      1  0.5623550000000  0.5153250000000  0.4904890000000 1.0
C      1  0.5249750000000  0.5191690000000  0.4404280000000 1.0
C      1  0.4612540000000  0.5279310000000  0.4511380000000 1.0
C      1  0.5647510000000  0.4554720000000  0.4571670000000 1.0
C      1  0.4867680000000  0.4512760000000  0.4315760000000 1.0
C      1  0.4437470000000  0.4476600000000  0.4697590000000 1.0
C      1  0.4349870000000  0.4556180000000  0.5429330000000 1.0
C      1  0.5125250000000  0.4522960000000  0.5680180000000 1.0
C      1  0.5555590000000  0.4476750000000  0.5300530000000 1.0
C      1  0.5443340000000  0.4705270000000  0.4466890000000 1.0
C      1  0.4631620000000  0.4495950000000  0.4439260000000 1.0
C      1  0.4293890000000  0.4416860000000  0.4927720000000 1.0
C      1  0.4558220000000  0.4722890000000  0.5527470000000 1.0
C      1  0.5361480000000  0.4500010000000  0.5558390000000 1.0
C      1  0.5701340000000  0.4417940000000  0.5071650000000 1.0
C      1  0.4748120000000  0.4808030000000  0.4897400000000 1.0
C      1  0.4797600000000  0.4846960000000  0.5157920000000 1.0
C      1  0.5044490000000  0.4822290000000  0.5261390000000 1.0
C      1  0.5252500000000  0.4815600000000  0.5095680000000 1.0
C      1  0.5202790000000  0.4851140000000  0.4836000000000 1.0
C      1  0.4957930000000  0.4812060000000  0.4734610000000 1.0
C      1  0.5437910000000  0.5269020000000  0.4669820000000 1.0
C      1  0.4945270000000  0.5224040000000  0.4468180000000 1.0
C      1  0.4512570000000  0.5215960000000  0.4805950000000 1.0
C      1  0.4570800000000  0.5252440000000  0.5338990000000 1.0
C      1  0.5061700000000  0.5237580000000  0.5546270000000 1.0
C      1  0.5492910000000  0.5217780000000  0.5195500000000 1.0
C      1  0.4272460000000  0.4592140000000  0.5153730000000 1.0
C      1  0.4838350000000  0.4694360000000  0.5703750000000 1.0
C      1  0.5561200000000  0.4763790000000  0.5485350000000 1.0
C      1  0.5725100000000  0.4592890000000  0.4845710000000 1.0
C      1  0.5156440000000  0.4685860000000  0.4292490000000 1.0
C      1  0.4434270000000  0.4762730000000  0.4511180000000 1.0
C      1  0.4707600000000  0.4990520000000  0.5783940000000 1.0
C      1  0.5364340000000  0.4985440000000  0.5602360000000 1.0
C      1  0.5724800000000  0.4861300000000  0.4932900000000 1.0
C      1  0.5291830000000  0.4980500000000  0.4206150000000 1.0
C      1  0.4635270000000  0.4984090000000  0.4399410000000 1.0
C      1  0.4275900000000  0.4860100000000  0.5065220000000 1.0
C      1  0.4963650000000  0.5457220000000  0.4706840000000 1.0
C      1  0.4725610000000  0.5453200000000  0.4891620000000 1.0
C      1  0.4748440000000  0.5484990000000  0.5198040000000 1.0
C      1  0.5039730000000  0.5461990000000  0.5300720000000 1.0
C      1  0.5277760000000  0.5456290000000  0.5115950000000 1.0
C      1  0.5253160000000  0.5492620000000  0.4810230000000 1.0
C      1  0.4607270000000  0.4929470000000  0.5340810000000 1.0
C      1  0.5063220000000  0.4896120000000  0.5551750000000 1.0
C      1  0.5522800000000  0.4896210000000  0.5190630000000 1.0
C      1  0.5389380000000  0.4941060000000  0.4638310000000 1.0
C      1  0.4933620000000  0.4884890000000  0.4444370000000 1.0
C      1  0.4477880000000  0.4893980000000  0.4806080000000 1.0
END
