TITL C-1154823-9327-162 0.000597611948012507 125000 -306.316564379531 0 0 60 (C1) n - 1
REM
REM in /home/nfs/bkarasulu/CARBON/AIRSS/Generating-Clusters/AIREBO/Higher-Symm/Only-C60
REM
REM
REM
REM
REM
REM ./C.cell (28575a23ae977d3b5fae324c64b13b57)
REM
REM compiler GCC version 9.2.1 20190827 (Red Hat 9.2.1-1)
REM options -cpp -mtune=generic -march=x86-64 -g -O0 -fpre-include=/usr/include/finclude/math-vector-fortran.h
REM seed -293704636 -378654114 -513553279 1897686130 -150272843 967074305 -1195379073 -856463018 761211490 1796423808 -1433130922 -1481370836 1622214945 -851171862 -2070213215 -16856353 -8548115 -709782616 -1973749970 412542301 772271872 -2144873278 864501114 -211624517 -213663099 -1145083920 962159752 84549872 -1678560508 -855015938 -1681775683 -320395137 -1626899784
REM
CELL 1.54180   50.00000   50.00000   50.00000   90.00000   90.00000   90.00000
LATT -1
SFAC C  
C      1  0.4589290000000  0.5509060000000  0.5085490000000 1.0
C      1  0.5694560000000  0.5144940000000  0.5152870000000 1.0
C      1  0.4835210000000  0.4265910000000  0.5087600000000 1.0
C      1  0.5312710000000  0.5135810000000  0.4320500000000 1.0
C      1  0.5120100000000  0.4695090000000  0.4293270000000 1.0
C      1  0.4862610000000  0.5143620000000  0.4212260000000 1.0
C      1  0.5047730000000  0.4690970000000  0.4567470000000 1.0
C      1  0.4758560000000  0.5231600000000  0.4489080000000 1.0
C      1  0.5245800000000  0.5143440000000  0.4588640000000 1.0
C      1  0.4629180000000  0.5778400000000  0.4648050000000 1.0
C      1  0.5651010000000  0.4801600000000  0.4776390000000 1.0
C      1  0.4430140000000  0.4475380000000  0.4908060000000 1.0
C      1  0.5399720000000  0.5112190000000  0.5431560000000 1.0
C      1  0.4895290000000  0.4548420000000  0.5576460000000 1.0
C      1  0.4757900000000  0.5312950000000  0.5510500000000 1.0
C      1  0.5612240000000  0.5107980000000  0.4841530000000 1.0
C      1  0.4756690000000  0.4464390000000  0.4828410000000 1.0
C      1  0.4648720000000  0.5507880000000  0.4785450000000 1.0
C      1  0.4501120000000  0.5444810000000  0.4419220000000 1.0
C      1  0.5734850000000  0.5490800000000  0.4515660000000 1.0
C      1  0.4722060000000  0.4437450000000  0.4431760000000 1.0
C      1  0.4648910000000  0.4798570000000  0.5233270000000 1.0
C      1  0.4995270000000  0.5244850000000  0.5055130000000 1.0
C      1  0.5200460000000  0.4848300000000  0.5056380000000 1.0
C      1  0.4376160000000  0.5248670000000  0.5121250000000 1.0
C      1  0.5585460000000  0.5466830000000  0.5163020000000 1.0
C      1  0.5102770000000  0.4334920000000  0.5170820000000 1.0
C      1  0.4740110000000  0.5047690000000  0.5019510000000 1.0
C      1  0.5322340000000  0.5162590000000  0.5011260000000 1.0
C      1  0.4904880000000  0.4685390000000  0.5040110000000 1.0
C      1  0.4460670000000  0.5359890000000  0.5433610000000 1.0
C      1  0.5578900000000  0.5345470000000  0.5478190000000 1.0
C      1  0.5121690000000  0.4484860000000  0.5414270000000 1.0
C      1  0.5014870000000  0.5179780000000  0.5689020000000 1.0
C      1  0.5245900000000  0.4927790000000  0.5664570000000 1.0
C      1  0.4931840000000  0.4830230000000  0.5695550000000 1.0
C      1  0.5096680000000  0.5626570000000  0.5196880000000 1.0
C      1  0.5473050000000  0.4654130000000  0.4996250000000 1.0
C      1  0.4373630000000  0.4703960000000  0.5057550000000 1.0
C      1  0.4761580000000  0.4982060000000  0.5462280000000 1.0
C      1  0.5067350000000  0.5112260000000  0.5359870000000 1.0
C      1  0.5261030000000  0.4745340000000  0.5376730000000 1.0
C      1  0.5549760000000  0.4866760000000  0.5250280000000 1.0
C      1  0.4654590000000  0.4524180000000  0.5428920000000 1.0
C      1  0.4843610000000  0.5477760000000  0.5251000000000 1.0
C      1  0.5263250000000  0.4421860000000  0.4951240000000 1.0
C      1  0.4425260000000  0.4997430000000  0.4953860000000 1.0
C      1  0.5303090000000  0.5499960000000  0.5049290000000 1.0
C      1  0.4636300000000  0.4280780000000  0.5288090000000 1.0
C      1  0.4285500000000  0.5563140000000  0.5228320000000 1.0
C      1  0.5877430000000  0.5376530000000  0.5324350000000 1.0
C      1  0.4715290000000  0.4727800000000  0.4608560000000 1.0
C      1  0.4939430000000  0.5352830000000  0.4737470000000 1.0
C      1  0.5176410000000  0.4912990000000  0.4723420000000 1.0
C      1  0.4422600000000  0.5290400000000  0.4686060000000 1.0
C      1  0.5568440000000  0.5362880000000  0.4667370000000 1.0
C      1  0.4898770000000  0.4259930000000  0.4596810000000 1.0
C      1  0.4580700000000  0.4991330000000  0.4651280000000 1.0
C      1  0.5255780000000  0.5439390000000  0.4732130000000 1.0
C      1  0.5134730000000  0.4421200000000  0.4705770000000 1.0
END
