TITL C-1154826-9507-535 0.00395238517825546 125000 -327.859831442381 0 0 60 (C1) n - 1
REM
REM in /home/nfs/bkarasulu/CARBON/AIRSS/Generating-Clusters/AIREBO/Higher-Symm/Only-C60
REM
REM
REM
REM
REM
REM ./C.cell (28575a23ae977d3b5fae324c64b13b57)
REM
REM compiler GCC version 9.2.1 20190827 (Red Hat 9.2.1-1)
REM options -cpp -mtune=generic -march=x86-64 -g -O0 -fpre-include=/usr/include/finclude/math-vector-fortran.h
REM seed 1172046024 -116450704 -493159334 -1914889088 -35235581 -405366395 1714416013 1320301132 564048134 -1993287625 -2119081120 1607035243 2101868270 -433416677 1251081661 1756745086 120412999 -942980678 -313799977 -306736405 189603807 993537522 1768403761 -716144796 633882864 616423482 -312432608 1262245362 1020379085 -802670518 -119885668 -49356206 106945408
REM
CELL 1.54180   50.00000   50.00000   50.00000   90.00000   90.00000   90.00000
LATT -1
SFAC C  
C      1  0.5165050000000  0.4848300000000  0.5726190000000 1.0
C      1  0.5073950000000  0.5664920000000  0.5119260000000 1.0
C      1  0.5214780000000  0.5141380000000  0.4347030000000 1.0
C      1  0.5077830000000  0.4365710000000  0.4821940000000 1.0
C      1  0.5142580000000  0.5152200000000  0.5665820000000 1.0
C      1  0.5175230000000  0.4306470000000  0.5143440000000 1.0
C      1  0.5216150000000  0.4836810000000  0.4341550000000 1.0
C      1  0.5191930000000  0.5681280000000  0.4798930000000 1.0
C      1  0.5481900000000  0.4863950000000  0.5347030000000 1.0
C      1  0.5500640000000  0.5358360000000  0.5171970000000 1.0
C      1  0.5597890000000  0.5152280000000  0.4684630000000 1.0
C      1  0.5304930000000  0.4713910000000  0.4863370000000 1.0
C      1  0.5347090000000  0.5122270000000  0.5323680000000 1.0
C      1  0.5470860000000  0.4692050000000  0.5113710000000 1.0
C      1  0.5549950000000  0.4885840000000  0.4701650000000 1.0
C      1  0.5585010000000  0.5359180000000  0.4912940000000 1.0
C      1  0.5438720000000  0.5286860000000  0.4457450000000 1.0
C      1  0.5356590000000  0.4455320000000  0.4648730000000 1.0
C      1  0.5380440000000  0.4690050000000  0.5573960000000 1.0
C      1  0.5345510000000  0.5587480000000  0.5301800000000 1.0
C      1  0.5432140000000  0.4711670000000  0.4486700000000 1.0
C      1  0.5403790000000  0.5498490000000  0.4700200000000 1.0
C      1  0.5368170000000  0.5374450000000  0.5544940000000 1.0
C      1  0.5351620000000  0.4489820000000  0.5304710000000 1.0
C      1  0.4981520000000  0.5315230000000  0.4349280000000 1.0
C      1  0.5004350000000  0.4404180000000  0.4490380000000 1.0
C      1  0.5011310000000  0.4555900000000  0.5643640000000 1.0
C      1  0.4984080000000  0.5666850000000  0.5447390000000 1.0
C      1  0.4991480000000  0.4647350000000  0.4323520000000 1.0
C      1  0.5008090000000  0.5551120000000  0.4543810000000 1.0
C      1  0.4994110000000  0.5458160000000  0.5649760000000 1.0
C      1  0.4990930000000  0.4364630000000  0.5423220000000 1.0
C      1  0.4541020000000  0.4657380000000  0.5098850000000 1.0
C      1  0.4561100000000  0.5207550000000  0.5405520000000 1.0
C      1  0.4524260000000  0.5449690000000  0.4842640000000 1.0
C      1  0.4548600000000  0.4678050000000  0.4649610000000 1.0
C      1  0.4674140000000  0.5383500000000  0.5229660000000 1.0
C      1  0.4529710000000  0.4872170000000  0.5359350000000 1.0
C      1  0.4520610000000  0.4495120000000  0.4869470000000 1.0
C      1  0.4476790000000  0.5244150000000  0.4627780000000 1.0
C      1  0.4817190000000  0.4750360000000  0.5111720000000 1.0
C      1  0.5057390000000  0.5101750000000  0.5257780000000 1.0
C      1  0.4916380000000  0.5265840000000  0.4839410000000 1.0
C      1  0.4773660000000  0.4851660000000  0.4728150000000 1.0
C      1  0.4931260000000  0.5292000000000  0.5108110000000 1.0
C      1  0.4864420000000  0.4926840000000  0.5326740000000 1.0
C      1  0.5011760000000  0.4768370000000  0.4889480000000 1.0
C      1  0.4716500000000  0.5112210000000  0.4748250000000 1.0
C      1  0.4735410000000  0.4769090000000  0.4288680000000 1.0
C      1  0.4798260000000  0.4207660000000  0.5216140000000 1.0
C      1  0.4769770000000  0.5276730000000  0.5739690000000 1.0
C      1  0.4812280000000  0.5736520000000  0.4695750000000 1.0
C      1  0.4732900000000  0.5169180000000  0.4330750000000 1.0
C      1  0.4756040000000  0.5817440000000  0.5304750000000 1.0
C      1  0.4785780000000  0.4727210000000  0.5759970000000 1.0
C      1  0.4824810000000  0.4178450000000  0.4582590000000 1.0
C      1  0.4648650000000  0.4989600000000  0.5655440000000 1.0
C      1  0.4751560000000  0.5635450000000  0.5014680000000 1.0
C      1  0.4501300000000  0.4952300000000  0.4453800000000 1.0
C      1  0.4755850000000  0.4281250000000  0.4892610000000 1.0
END
