TITL C-1154824-75-169 -0.000591252213873202 125000 -324.346157778213 0 0 60 (C1) n - 1
REM
REM in /home/nfs/bkarasulu/CARBON/AIRSS/Generating-Clusters/AIREBO/Higher-Symm/Only-C60
REM
REM
REM
REM
REM
REM ./C.cell (28575a23ae977d3b5fae324c64b13b57)
REM
REM compiler GCC version 9.2.1 20190827 (Red Hat 9.2.1-1)
REM options -cpp -mtune=generic -march=x86-64 -g -O0 -fpre-include=/usr/include/finclude/math-vector-fortran.h
REM seed 1351495647 1275780286 -649188632 220620936 -1016255024 1546738017 1753424742 1770982744 1135361632 1301648996 -428468906 -1892614887 1344274136 2071018904 -522619834 942880315 1289945481 1739025993 352791504 1923410361 -2067680676 949607136 -1422770469 982026801 806809287 -162237129 86422507 413622477 1468532477 603210229 -1517287733 -735883523 -895091113
REM
CELL 1.54180   50.00000   50.00000   50.00000   90.00000   90.00000   90.00000
LATT -1
SFAC C  
C      1  0.4843840000000  0.5619810000000  0.4487870000000 1.0
C      1  0.4529690000000  0.4587480000000  0.4567390000000 1.0
C      1  0.5581660000000  0.4789590000000  0.4636820000000 1.0
C      1  0.5417060000000  0.5305100000000  0.4473800000000 1.0
C      1  0.4493950000000  0.5259140000000  0.4519270000000 1.0
C      1  0.5014030000000  0.4434660000000  0.4532020000000 1.0
C      1  0.5394870000000  0.4611870000000  0.5013920000000 1.0
C      1  0.5186730000000  0.5549430000000  0.4998460000000 1.0
C      1  0.4422890000000  0.4866780000000  0.4999400000000 1.0
C      1  0.5613350000000  0.5342200000000  0.5058170000000 1.0
C      1  0.4430600000000  0.5333130000000  0.5094800000000 1.0
C      1  0.5025450000000  0.4319270000000  0.5119040000000 1.0
C      1  0.5168070000000  0.4904890000000  0.5649650000000 1.0
C      1  0.4991740000000  0.5197310000000  0.5610740000000 1.0
C      1  0.4829510000000  0.4898510000000  0.5618870000000 1.0
C      1  0.4995050000000  0.5293680000000  0.4914980000000 1.0
C      1  0.4742400000000  0.4860540000000  0.4914320000000 1.0
C      1  0.5231210000000  0.4870840000000  0.4921270000000 1.0
C      1  0.5316450000000  0.4594290000000  0.4542480000000 1.0
C      1  0.5137000000000  0.5481060000000  0.4560040000000 1.0
C      1  0.4504360000000  0.4920760000000  0.4479960000000 1.0
C      1  0.4810540000000  0.4354190000000  0.5303390000000 1.0
C      1  0.5760850000000  0.5142630000000  0.5192110000000 1.0
C      1  0.4633810000000  0.5459830000000  0.5236730000000 1.0
C      1  0.5030890000000  0.4767790000000  0.4478810000000 1.0
C      1  0.5111140000000  0.5157630000000  0.4493230000000 1.0
C      1  0.4822900000000  0.5036820000000  0.4485190000000 1.0
C      1  0.4916620000000  0.4475460000000  0.5576670000000 1.0
C      1  0.5449420000000  0.5185870000000  0.5616110000000 1.0
C      1  0.4609450000000  0.5312750000000  0.5607820000000 1.0
C      1  0.5281480000000  0.4928660000000  0.5229850000000 1.0
C      1  0.4920110000000  0.5284830000000  0.5223340000000 1.0
C      1  0.4811810000000  0.4809470000000  0.5225650000000 1.0
C      1  0.4630760000000  0.5479060000000  0.4400540000000 1.0
C      1  0.4710760000000  0.4417260000000  0.4435290000000 1.0
C      1  0.5623790000000  0.5049980000000  0.4522710000000 1.0
C      1  0.5003800000000  0.5712600000000  0.4773220000000 1.0
C      1  0.4290070000000  0.4780790000000  0.4703790000000 1.0
C      1  0.5555070000000  0.4470320000000  0.4750660000000 1.0
C      1  0.4992680000000  0.4392600000000  0.4854500000000 1.0
C      1  0.5529490000000  0.5283450000000  0.4793940000000 1.0
C      1  0.4486140000000  0.5303810000000  0.4819510000000 1.0
C      1  0.4585830000000  0.4564250000000  0.5201060000000 1.0
C      1  0.5604590000000  0.4865980000000  0.5239930000000 1.0
C      1  0.4833850000000  0.5670810000000  0.5330810000000 1.0
C      1  0.4990020000000  0.4719490000000  0.4808250000000 1.0
C      1  0.5243020000000  0.5139620000000  0.4792520000000 1.0
C      1  0.4764960000000  0.5144550000000  0.4787450000000 1.0
C      1  0.5090160000000  0.4700200000000  0.5389530000000 1.0
C      1  0.5224500000000  0.5231450000000  0.5365220000000 1.0
C      1  0.4687580000000  0.5088440000000  0.5375120000000 1.0
C      1  0.4976950000000  0.5772380000000  0.5110200000000 1.0
C      1  0.4442370000000  0.4542370000000  0.4899510000000 1.0
C      1  0.5701920000000  0.4712230000000  0.4951510000000 1.0
C      1  0.5245190000000  0.4469140000000  0.5221630000000 1.0
C      1  0.5389350000000  0.5445830000000  0.5190660000000 1.0
C      1  0.4394740000000  0.5068790000000  0.5209470000000 1.0
C      1  0.4637930000000  0.4630250000000  0.5534740000000 1.0
C      1  0.5496620000000  0.4886700000000  0.5562380000000 1.0
C      1  0.4838960000000  0.5501370000000  0.5593710000000 1.0
END
