TITL C-1154823-9327-532 0.000662744260329913 125000 -305.592864589263 0 0 60 (C1) n - 1
REM
REM in /home/nfs/bkarasulu/CARBON/AIRSS/Generating-Clusters/AIREBO/Higher-Symm/Only-C60
REM
REM
REM
REM
REM
REM ./C.cell (28575a23ae977d3b5fae324c64b13b57)
REM
REM compiler GCC version 9.2.1 20190827 (Red Hat 9.2.1-1)
REM options -cpp -mtune=generic -march=x86-64 -g -O0 -fpre-include=/usr/include/finclude/math-vector-fortran.h
REM seed -743067889 -1964733480 1256888535 628124906 162234010 -1256689321 1424438764 -1522991065 1329527532 -1544304875 1552766851 1813511834 45360540 -1523503400 1977292842 -6611998 -752870727 1678066574 1583427310 -1831222656 1761273172 -1908413727 -1257474689 -1867493397 -373735883 217569803 -1568334406 1548181650 -1631792776 -302624171 -1863926254 1191348341 -1004692825
REM
CELL 1.54180   50.00000   50.00000   50.00000   90.00000   90.00000   90.00000
LATT -1
SFAC C  
C      1  0.5365200000000  0.5160430000000  0.4817060000000 1.0
C      1  0.5186420000000  0.4619840000000  0.5207900000000 1.0
C      1  0.4466500000000  0.4830130000000  0.4832650000000 1.0
C      1  0.4791770000000  0.5486020000000  0.5180760000000 1.0
C      1  0.4926490000000  0.4511100000000  0.5025140000000 1.0
C      1  0.4468530000000  0.5143890000000  0.4963700000000 1.0
C      1  0.5108810000000  0.5451780000000  0.5063660000000 1.0
C      1  0.5483750000000  0.4864910000000  0.4936530000000 1.0
C      1  0.5249970000000  0.5142200000000  0.4281200000000 1.0
C      1  0.5140720000000  0.4797470000000  0.5728000000000 1.0
C      1  0.4723040000000  0.4851500000000  0.4339500000000 1.0
C      1  0.4859030000000  0.5214870000000  0.5659750000000 1.0
C      1  0.4539690000000  0.4453870000000  0.4945080000000 1.0
C      1  0.4406780000000  0.5471520000000  0.5030670000000 1.0
C      1  0.5395590000000  0.5586430000000  0.4981890000000 1.0
C      1  0.5625140000000  0.4582160000000  0.5039450000000 1.0
C      1  0.4937330000000  0.4648150000000  0.5611930000000 1.0
C      1  0.4607280000000  0.5088800000000  0.4441660000000 1.0
C      1  0.5076270000000  0.5373100000000  0.5578810000000 1.0
C      1  0.5394940000000  0.4895200000000  0.4369160000000 1.0
C      1  0.4575040000000  0.5503220000000  0.4734620000000 1.0
C      1  0.5476730000000  0.5422530000000  0.5272130000000 1.0
C      1  0.5498350000000  0.4523970000000  0.4727970000000 1.0
C      1  0.4536390000000  0.4602020000000  0.5225630000000 1.0
C      1  0.5343670000000  0.4395670000000  0.4999080000000 1.0
C      1  0.4267820000000  0.4646030000000  0.5021770000000 1.0
C      1  0.4640100000000  0.5715790000000  0.4991900000000 1.0
C      1  0.5616340000000  0.5338880000000  0.4973610000000 1.0
C      1  0.4928210000000  0.5653550000000  0.4849860000000 1.0
C      1  0.5659280000000  0.5065980000000  0.5138030000000 1.0
C      1  0.5078930000000  0.4296240000000  0.4810200000000 1.0
C      1  0.4294990000000  0.4941320000000  0.5175360000000 1.0
C      1  0.5298620000000  0.4654440000000  0.4510420000000 1.0
C      1  0.4693730000000  0.4754180000000  0.5472810000000 1.0
C      1  0.4762750000000  0.5312470000000  0.4564460000000 1.0
C      1  0.5314670000000  0.5232410000000  0.5474640000000 1.0
C      1  0.4384760000000  0.4890470000000  0.5455390000000 1.0
C      1  0.4932610000000  0.5593470000000  0.4527500000000 1.0
C      1  0.5603600000000  0.5073660000000  0.5460130000000 1.0
C      1  0.5199960000000  0.4338030000000  0.4539470000000 1.0
C      1  0.4782370000000  0.4661210000000  0.4519780000000 1.0
C      1  0.4683330000000  0.5153470000000  0.5468990000000 1.0
C      1  0.5214770000000  0.5324580000000  0.4476920000000 1.0
C      1  0.5432730000000  0.4776310000000  0.5587690000000 1.0
C      1  0.4726490000000  0.4952250000000  0.5198310000000 1.0
C      1  0.5039920000000  0.5227070000000  0.4742530000000 1.0
C      1  0.5251530000000  0.4924600000000  0.5344390000000 1.0
C      1  0.5038780000000  0.4717180000000  0.4702630000000 1.0
C      1  0.5060110000000  0.4454710000000  0.5457070000000 1.0
C      1  0.4388540000000  0.5022450000000  0.4591620000000 1.0
C      1  0.4986950000000  0.5578430000000  0.5422130000000 1.0
C      1  0.5540400000000  0.5072560000000  0.4545810000000 1.0
C      1  0.5187010000000  0.5150290000000  0.5106470000000 1.0
C      1  0.5167270000000  0.4842050000000  0.4953870000000 1.0
C      1  0.4775410000000  0.4782890000000  0.4909150000000 1.0
C      1  0.4801930000000  0.5207600000000  0.4985690000000 1.0
C      1  0.5615860000000  0.4770590000000  0.5300930000000 1.0
C      1  0.4770270000000  0.4422880000000  0.4736310000000 1.0
C      1  0.4451010000000  0.5252750000000  0.5287270000000 1.0
C      1  0.5225510000000  0.5578460000000  0.4702980000000 1.0
END
