TITL C-1154804-8633-458 0.000485291645345372 125000 -339.598994234058 0 0 60 (C1) n - 1
REM
REM in /home/nfs/bkarasulu/CARBON/AIRSS/Generating-Clusters/AIREBO/Higher-Symm/Only-C60
REM
REM
REM
REM
REM
REM ./C.cell (28575a23ae977d3b5fae324c64b13b57)
REM
REM compiler GCC version 9.2.1 20190827 (Red Hat 9.2.1-1)
REM options -cpp -mtune=generic -march=x86-64 -g -O0 -fpre-include=/usr/include/finclude/math-vector-fortran.h
REM seed -250550894 -165348689 1730587736 -969948993 -376215628 -925879121 -1404654681 -1941876646 -1946329715 554682710 1125937073 1437704504 -1439492405 611697162 -1956128309 -1621717046 -65776440 -1192605867 1682026865 -877575490 -1613638335 -145639590 -1745314626 -699780856 -247962969 -409744269 470552956 1481549641 612144606 2017191395 1946930622 1215837888 -1044365078
REM
CELL 1.54180   50.00000   50.00000   50.00000   90.00000   90.00000   90.00000
LATT -1
SFAC C  
C      1  0.4860480000000  0.5656570000000  0.4890550000000 1.0
C      1  0.4856270000000  0.5328210000000  0.5621990000000 1.0
C      1  0.4860430000000  0.4558170000000  0.5480330000000 1.0
C      1  0.4825700000000  0.4364590000000  0.4678980000000 1.0
C      1  0.4867300000000  0.5099830000000  0.4345120000000 1.0
C      1  0.5168860000000  0.5665780000000  0.4858800000000 1.0
C      1  0.5168530000000  0.5357410000000  0.5609330000000 1.0
C      1  0.5172240000000  0.4583610000000  0.5478970000000 1.0
C      1  0.5134430000000  0.4386010000000  0.4670960000000 1.0
C      1  0.5177170000000  0.5086050000000  0.4323560000000 1.0
C      1  0.5141200000000  0.5645700000000  0.5170730000000 1.0
C      1  0.5142420000000  0.5062110000000  0.5692230000000 1.0
C      1  0.5128380000000  0.4419260000000  0.5222230000000 1.0
C      1  0.5173200000000  0.4589720000000  0.4439160000000 1.0
C      1  0.5143760000000  0.5368020000000  0.4443580000000 1.0
C      1  0.4835370000000  0.5649410000000  0.5204710000000 1.0
C      1  0.4846590000000  0.5021950000000  0.5710540000000 1.0
C      1  0.4826050000000  0.4382470000000  0.5217960000000 1.0
C      1  0.4864260000000  0.4584360000000  0.4457380000000 1.0
C      1  0.4844650000000  0.5395350000000  0.4452430000000 1.0
C      1  0.5261090000000  0.4465630000000  0.4935570000000 1.0
C      1  0.5299130000000  0.4861050000000  0.4492180000000 1.0
C      1  0.5293790000000  0.5447170000000  0.4693080000000 1.0
C      1  0.5271360000000  0.5413830000000  0.5327940000000 1.0
C      1  0.5307730000000  0.4856250000000  0.5552340000000 1.0
C      1  0.4696320000000  0.4447990000000  0.4937410000000 1.0
C      1  0.4737450000000  0.4862250000000  0.4502260000000 1.0
C      1  0.4717180000000  0.5454590000000  0.4717110000000 1.0
C      1  0.4726630000000  0.5404730000000  0.5354580000000 1.0
C      1  0.4699400000000  0.4816140000000  0.5549480000000 1.0
C      1  0.4818910000000  0.4725690000000  0.5013640000000 1.0
C      1  0.4853030000000  0.4943380000000  0.4779670000000 1.0
C      1  0.4689990000000  0.5193380000000  0.4888010000000 1.0
C      1  0.4836860000000  0.5171050000000  0.5174630000000 1.0
C      1  0.4682130000000  0.4891870000000  0.5239760000000 1.0
C      1  0.5128120000000  0.4746960000000  0.4993510000000 1.0
C      1  0.5181180000000  0.4956880000000  0.4761500000000 1.0
C      1  0.5318460000000  0.5201790000000  0.4883870000000 1.0
C      1  0.5146450000000  0.5171860000000  0.5161770000000 1.0
C      1  0.5286330000000  0.4887470000000  0.5232630000000 1.0
C      1  0.5693430000000  0.5032870000000  0.5295780000000 1.0
C      1  0.5580610000000  0.4815200000000  0.5091440000000 1.0
C      1  0.5727050000000  0.4756030000000  0.4793790000000 1.0
C      1  0.5720190000000  0.5091560000000  0.4736310000000 1.0
C      1  0.5612630000000  0.5205570000000  0.5014220000000 1.0
C      1  0.4306570000000  0.5012560000000  0.5304840000000 1.0
C      1  0.4394220000000  0.4804370000000  0.5080090000000 1.0
C      1  0.4263190000000  0.4757540000000  0.4773280000000 1.0
C      1  0.4312410000000  0.5091050000000  0.4744910000000 1.0
C      1  0.4395310000000  0.5200580000000  0.5035720000000 1.0
C      1  0.5576170000000  0.5379280000000  0.5280250000000 1.0
C      1  0.5615630000000  0.4935050000000  0.5558730000000 1.0
C      1  0.5558070000000  0.4516490000000  0.4945470000000 1.0
C      1  0.5597950000000  0.4866810000000  0.4517060000000 1.0
C      1  0.5611380000000  0.5386130000000  0.4657360000000 1.0
C      1  0.4421450000000  0.5360070000000  0.5311370000000 1.0
C      1  0.4387390000000  0.4892500000000  0.5555490000000 1.0
C      1  0.4399170000000  0.4504440000000  0.4936130000000 1.0
C      1  0.4438340000000  0.4872950000000  0.4520960000000 1.0
C      1  0.4400030000000  0.5394440000000  0.4686350000000 1.0
END
