TITL C-1154824-75-608 0.000148487417319255 125000 -309.928476916965 0 0 60 (C5) n - 1
REM
REM in /home/nfs/bkarasulu/CARBON/AIRSS/Generating-Clusters/AIREBO/Higher-Symm/Only-C60
REM
REM
REM
REM
REM
REM ./C.cell (28575a23ae977d3b5fae324c64b13b57)
REM
REM compiler GCC version 9.2.1 20190827 (Red Hat 9.2.1-1)
REM options -cpp -mtune=generic -march=x86-64 -g -O0 -fpre-include=/usr/include/finclude/math-vector-fortran.h
REM seed -34712583 -1512966722 1286846335 -1386626150 -2112902972 -46255651 -1514737944 2085075042 1280724128 -1172382861 1866577256 -866545398 584747460 1612535906 -1982626299 723428372 -529434822 972484533 978282625 -1993636648 -804329005 1846851187 -253704249 -592006899 -496055251 1517647213 -1846810838 -73826509 -942288969 -1184506243 403106251 -1153744848 317291103
REM
CELL 1.54180   50.00000   50.00000   50.00000   90.00000   90.00000   90.00000
LATT -1
SFAC C  
C      1  0.5091000000000  0.4930440000000  0.5751200000000 1.0
C      1  0.4313690000000  0.4930390000000  0.5318680000000 1.0
C      1  0.4484840000000  0.4930310000000  0.4445770000000 1.0
C      1  0.5367920000000  0.4930310000000  0.4338790000000 1.0
C      1  0.5742550000000  0.4930390000000  0.5145600000000 1.0
C      1  0.5050640000000  0.5009990000000  0.4244550000000 1.0
C      1  0.4297180000000  0.5010020000000  0.4718400000000 1.0
C      1  0.4514990000000  0.5010110000000  0.5581400000000 1.0
C      1  0.5403070000000  0.5010130000000  0.5640930000000 1.0
C      1  0.5734120000000  0.5010050000000  0.4814710000000 1.0
C      1  0.4703410000000  0.5514910000000  0.5353740000000 1.0
C      1  0.4571870000000  0.5514850000000  0.4827220000000 1.0
C      1  0.5031970000000  0.5514830000000  0.4539400000000 1.0
C      1  0.5447890000000  0.5514870000000  0.4888050000000 1.0
C      1  0.5244820000000  0.5514920000000  0.5391340000000 1.0
C      1  0.4734750000000  0.5466110000000  0.4606270000000 1.0
C      1  0.4543610000000  0.5466160000000  0.5130560000000 1.0
C      1  0.4983180000000  0.5466200000000  0.5474350000000 1.0
C      1  0.5445980000000  0.5466180000000  0.5162540000000 1.0
C      1  0.5292440000000  0.5466120000000  0.4626040000000 1.0
C      1  0.5665110000000  0.4473940000000  0.4913630000000 1.0
C      1  0.5287730000000  0.4474000000000  0.5605900000000 1.0
C      1  0.4512730000000  0.4473970000000  0.5460910000000 1.0
C      1  0.4411130000000  0.4473890000000  0.4679030000000 1.0
C      1  0.5123340000000  0.4473870000000  0.4340790000000 1.0
C      1  0.5620160000000  0.4396970000000  0.5175180000000 1.0
C      1  0.5358190000000  0.4396900000000  0.4464370000000 1.0
C      1  0.4601230000000  0.4396890000000  0.4493870000000 1.0
C      1  0.4395360000000  0.4396950000000  0.5222900000000 1.0
C      1  0.5025100000000  0.4397010000000  0.5643980000000 1.0
C      1  0.4551470000000  0.5125870000000  0.4912090000000 1.0
C      1  0.4945000000000  0.5125830000000  0.4546250000000 1.0
C      1  0.5414530000000  0.5125860000000  0.4807460000000 1.0
C      1  0.5311200000000  0.5125920000000  0.5334740000000 1.0
C      1  0.4777790000000  0.5125910000000  0.5399400000000 1.0
C      1  0.4582800000000  0.5073240000000  0.5193170000000 1.0
C      1  0.5054800000000  0.5073270000000  0.5456460000000 1.0
C      1  0.5451070000000  0.5073240000000  0.5088930000000 1.0
C      1  0.5223970000000  0.5073190000000  0.4598490000000 1.0
C      1  0.4687360000000  0.5073190000000  0.4662910000000 1.0
C      1  0.5659090000000  0.5325500000000  0.4700370000000 1.0
C      1  0.5488600000000  0.5325580000000  0.5534220000000 1.0
C      1  0.4642880000000  0.5325570000000  0.5629750000000 1.0
C      1  0.4290680000000  0.5325500000000  0.4854940000000 1.0
C      1  0.4918730000000  0.5325450000000  0.4280550000000 1.0
C      1  0.5684900000000  0.5246770000000  0.5264500000000 1.0
C      1  0.5463220000000  0.5246680000000  0.4430330000000 1.0
C      1  0.4601380000000  0.5246660000000  0.4383390000000 1.0
C      1  0.4290410000000  0.5246740000000  0.5188550000000 1.0
C      1  0.4960060000000  0.5246800000000  0.5733100000000 1.0
C      1  0.4474320000000  0.4696050000000  0.5131840000000 1.0
C      1  0.4712200000000  0.4695990000000  0.4540810000000 1.0
C      1  0.5347810000000  0.4696010000000  0.4584410000000 1.0
C      1  0.5502760000000  0.4696070000000  0.5202380000000 1.0
C      1  0.4962920000000  0.4696100000000  0.5540710000000 1.0
C      1  0.4477440000000  0.4740240000000  0.4820220000000 1.0
C      1  0.4667510000000  0.4740310000000  0.5441450000000 1.0
C      1  0.5317080000000  0.4740320000000  0.5452650000000 1.0
C      1  0.5528460000000  0.4740260000000  0.4838340000000 1.0
C      1  0.5009530000000  0.4740220000000  0.4447470000000 1.0
END
