TITL C-1154825-9328-251 0.000175055908580644 125000 -314.578906058042 0 0 60 (C1) n - 1
REM
REM in /home/nfs/bkarasulu/CARBON/AIRSS/Generating-Clusters/AIREBO/Higher-Symm/Only-C60
REM
REM
REM
REM
REM
REM ./C.cell (28575a23ae977d3b5fae324c64b13b57)
REM
REM compiler GCC version 9.2.1 20190827 (Red Hat 9.2.1-1)
REM options -cpp -mtune=generic -march=x86-64 -g -O0 -fpre-include=/usr/include/finclude/math-vector-fortran.h
REM seed -673339225 766402221 -476413229 369310574 -1074291758 33911068 -265249054 -1421693299 925108957 -64123783 -1853107328 779454282 -404787541 -1770047032 -287579202 1789060901 -1213146044 625597728 1393995192 -376738694 2037756162 -416837694 2008466742 -854907058 971500587 -2062250139 -1623561322 503472027 -1921544781 -1617938178 -1561055360 1418238512 1931459973
REM
CELL 1.54180   50.00000   50.00000   50.00000   90.00000   90.00000   90.00000
LATT -1
SFAC C  
C      1  0.5255130000000  0.4167480000000  0.4665880000000 1.0
C      1  0.5278740000000  0.5844090000000  0.5325180000000 1.0
C      1  0.5371550000000  0.5750220000000  0.4696280000000 1.0
C      1  0.5218700000000  0.4065290000000  0.5289490000000 1.0
C      1  0.5579170000000  0.4758530000000  0.4839760000000 1.0
C      1  0.5702540000000  0.5104040000000  0.5199290000000 1.0
C      1  0.5609720000000  0.5089810000000  0.4875230000000 1.0
C      1  0.5678780000000  0.4804600000000  0.5146410000000 1.0
C      1  0.4747780000000  0.4365790000000  0.5262600000000 1.0
C      1  0.4214520000000  0.5754630000000  0.4723940000000 1.0
C      1  0.4812310000000  0.5740590000000  0.5142600000000 1.0
C      1  0.4769620000000  0.4266820000000  0.4731170000000 1.0
C      1  0.4781840000000  0.5246000000000  0.6000350000000 1.0
C      1  0.4738620000000  0.4601230000000  0.4040440000000 1.0
C      1  0.4822860000000  0.4647520000000  0.5937670000000 1.0
C      1  0.4805790000000  0.5373460000000  0.4189580000000 1.0
C      1  0.5401570000000  0.5307850000000  0.5843150000000 1.0
C      1  0.5286700000000  0.5244220000000  0.4375780000000 1.0
C      1  0.5269230000000  0.5250460000000  0.5632560000000 1.0
C      1  0.5428560000000  0.5306070000000  0.4172890000000 1.0
C      1  0.4448700000000  0.4667940000000  0.4852420000000 1.0
C      1  0.4474080000000  0.5339440000000  0.5153680000000 1.0
C      1  0.4440740000000  0.5289010000000  0.4843430000000 1.0
C      1  0.4405890000000  0.4705010000000  0.5159900000000 1.0
C      1  0.5766560000000  0.4633940000000  0.4637570000000 1.0
C      1  0.5630340000000  0.5374390000000  0.5351750000000 1.0
C      1  0.5820530000000  0.5197570000000  0.4680410000000 1.0
C      1  0.5561770000000  0.4578990000000  0.5335080000000 1.0
C      1  0.4776670000000  0.5062060000000  0.4203360000000 1.0
C      1  0.4802140000000  0.4828070000000  0.5740880000000 1.0
C      1  0.4781110000000  0.4792620000000  0.4229530000000 1.0
C      1  0.4795460000000  0.5109640000000  0.5770100000000 1.0
C      1  0.4802840000000  0.5226360000000  0.5507670000000 1.0
C      1  0.4820370000000  0.4728400000000  0.4515150000000 1.0
C      1  0.4794030000000  0.4770000000000  0.5460890000000 1.0
C      1  0.4805100000000  0.5220110000000  0.4494780000000 1.0
C      1  0.4561070000000  0.4876330000000  0.5322310000000 1.0
C      1  0.4578310000000  0.5123460000000  0.4674550000000 1.0
C      1  0.4577700000000  0.5159790000000  0.5338800000000 1.0
C      1  0.4574070000000  0.4848090000000  0.4685480000000 1.0
C      1  0.5101980000000  0.5175390000000  0.5357070000000 1.0
C      1  0.5097140000000  0.4853460000000  0.4664440000000 1.0
C      1  0.5076900000000  0.4841620000000  0.5302410000000 1.0
C      1  0.5110660000000  0.5164520000000  0.4633300000000 1.0
C      1  0.4886980000000  0.4652760000000  0.4837960000000 1.0
C      1  0.5020310000000  0.5399780000000  0.5124140000000 1.0
C      1  0.4934750000000  0.5311790000000  0.4882570000000 1.0
C      1  0.4949710000000  0.4592130000000  0.5140690000000 1.0
C      1  0.4496300000000  0.4401030000000  0.5143600000000 1.0
C      1  0.4371710000000  0.5594810000000  0.4866470000000 1.0
C      1  0.4553950000000  0.5644170000000  0.5118400000000 1.0
C      1  0.4522800000000  0.4365560000000  0.4831210000000 1.0
C      1  0.5328280000000  0.4716750000000  0.5149920000000 1.0
C      1  0.5332480000000  0.5277370000000  0.4865090000000 1.0
C      1  0.5388710000000  0.5221670000000  0.5180310000000 1.0
C      1  0.5284900000000  0.4646460000000  0.4836910000000 1.0
C      1  0.5076810000000  0.4370480000000  0.4833870000000 1.0
C      1  0.5134080000000  0.5696150000000  0.5142400000000 1.0
C      1  0.5291220000000  0.5586790000000  0.4884560000000 1.0
C      1  0.5049090000000  0.4267370000000  0.5156680000000 1.0
END
