TITL C-1154802-8274-339 0.000404202449098184 125000 -321.264858586239 0 0 60 (C1) n - 1
REM
REM in /home/nfs/bkarasulu/CARBON/AIRSS/Generating-Clusters/AIREBO/Higher-Symm/Only-C60
REM
REM
REM
REM
REM
REM ./C.cell (28575a23ae977d3b5fae324c64b13b57)
REM
REM compiler GCC version 9.2.1 20190827 (Red Hat 9.2.1-1)
REM options -cpp -mtune=generic -march=x86-64 -g -O0 -fpre-include=/usr/include/finclude/math-vector-fortran.h
REM seed -1141180299 578545779 1410249063 2002716173 -1917940708 1438470026 -306512660 -986076250 -32741017 1014828164 1597469298 -1650561639 2129193258 987712465 1802155255 926548540 524667130 -2086132775 -323093002 -1611548232 -491650223 127016812 -1535363973 715251240 -1272451224 -1904343417 350196524 -2049800195 1152539148 159675811 107486335 -1922659380 242299724
REM
CELL 1.54180   50.00000   50.00000   50.00000   90.00000   90.00000   90.00000
LATT -1
SFAC C  
C      1  0.5065360000000  0.4639120000000  0.4357830000000 1.0
C      1  0.4883260000000  0.5364330000000  0.4349620000000 1.0
C      1  0.4890430000000  0.4656850000000  0.5676400000000 1.0
C      1  0.5029220000000  0.5393440000000  0.5631380000000 1.0
C      1  0.4599280000000  0.4988270000000  0.4382060000000 1.0
C      1  0.5367880000000  0.4989140000000  0.4367630000000 1.0
C      1  0.4658060000000  0.4861200000000  0.5673690000000 1.0
C      1  0.5418470000000  0.5062030000000  0.5686450000000 1.0
C      1  0.4279730000000  0.4971580000000  0.4724210000000 1.0
C      1  0.5739330000000  0.5021620000000  0.4779070000000 1.0
C      1  0.5731790000000  0.4954210000000  0.5243530000000 1.0
C      1  0.4289150000000  0.5079320000000  0.5195730000000 1.0
C      1  0.4974920000000  0.4276090000000  0.4729060000000 1.0
C      1  0.5083810000000  0.5754920000000  0.4759650000000 1.0
C      1  0.5000930000000  0.5739820000000  0.5227390000000 1.0
C      1  0.5057350000000  0.4261050000000  0.5188010000000 1.0
C      1  0.5183390000000  0.4972590000000  0.5376850000000 1.0
C      1  0.4675430000000  0.5046490000000  0.5451750000000 1.0
C      1  0.4776070000000  0.4973400000000  0.4639680000000 1.0
C      1  0.5241170000000  0.5075890000000  0.4646810000000 1.0
C      1  0.4954270000000  0.5182810000000  0.5419710000000 1.0
C      1  0.5068620000000  0.4676130000000  0.5445650000000 1.0
C      1  0.4923700000000  0.4725300000000  0.4645570000000 1.0
C      1  0.4965900000000  0.5234180000000  0.4652690000000 1.0
C      1  0.4778510000000  0.4484180000000  0.4454380000000 1.0
C      1  0.5175650000000  0.5459090000000  0.4507560000000 1.0
C      1  0.5319840000000  0.4483970000000  0.5437630000000 1.0
C      1  0.4786570000000  0.5537110000000  0.5492660000000 1.0
C      1  0.4530710000000  0.4701770000000  0.4481380000000 1.0
C      1  0.5470270000000  0.5280020000000  0.4516320000000 1.0
C      1  0.4565190000000  0.5331690000000  0.5426900000000 1.0
C      1  0.5447330000000  0.4797000000000  0.5475130000000 1.0
C      1  0.4842250000000  0.4419810000000  0.5074810000000 1.0
C      1  0.5192490000000  0.5575240000000  0.5098490000000 1.0
C      1  0.5196220000000  0.4410500000000  0.4847670000000 1.0
C      1  0.4844850000000  0.5654920000000  0.4872340000000 1.0
C      1  0.4417480000000  0.4843200000000  0.5075460000000 1.0
C      1  0.5601470000000  0.5176580000000  0.5118830000000 1.0
C      1  0.4404610000000  0.5197330000000  0.4835130000000 1.0
C      1  0.5582110000000  0.4821400000000  0.4899000000000 1.0
C      1  0.4915810000000  0.4707780000000  0.5166480000000 1.0
C      1  0.5089880000000  0.5288400000000  0.5153760000000 1.0
C      1  0.5087580000000  0.4694520000000  0.4894810000000 1.0
C      1  0.4887210000000  0.5351370000000  0.4934920000000 1.0
C      1  0.4704830000000  0.4913800000000  0.5172050000000 1.0
C      1  0.5314310000000  0.5084660000000  0.5111310000000 1.0
C      1  0.4693800000000  0.5111900000000  0.4918640000000 1.0
C      1  0.5287110000000  0.4904970000000  0.4874710000000 1.0
C      1  0.4430900000000  0.4674990000000  0.4795000000000 1.0
C      1  0.5615760000000  0.5336220000000  0.4818710000000 1.0
C      1  0.5572970000000  0.4657920000000  0.5190930000000 1.0
C      1  0.4444630000000  0.5373480000000  0.5123580000000 1.0
C      1  0.4679620000000  0.4438440000000  0.4776570000000 1.0
C      1  0.5340260000000  0.5534360000000  0.4795580000000 1.0
C      1  0.4692730000000  0.5606610000000  0.5172860000000 1.0
C      1  0.5368240000000  0.4388120000000  0.5132310000000 1.0
C      1  0.5280930000000  0.4761860000000  0.4257470000000 1.0
C      1  0.4629620000000  0.4596690000000  0.5859860000000 1.0
C      1  0.4686200000000  0.5214990000000  0.4230880000000 1.0
C      1  0.5264530000000  0.5285300000000  0.5755430000000 1.0
END
