TITL C-1154825-9328-595 0.000121151729875816 125000 -323.766113453611 0 0 60 (C1) n - 1
REM
REM in /home/nfs/bkarasulu/CARBON/AIRSS/Generating-Clusters/AIREBO/Higher-Symm/Only-C60
REM
REM
REM
REM
REM
REM ./C.cell (28575a23ae977d3b5fae324c64b13b57)
REM
REM compiler GCC version 9.2.1 20190827 (Red Hat 9.2.1-1)
REM options -cpp -mtune=generic -march=x86-64 -g -O0 -fpre-include=/usr/include/finclude/math-vector-fortran.h
REM seed -863498950 182435025 -2098728758 648071700 775196936 739037952 930134350 843948090 -372915073 1226643566 503754417 -1696463002 1578790934 -1798037550 1909131930 -1027211299 -1024103717 -618933528 1373214427 -1935467486 1442603904 -1759237240 -635447064 653863433 834834745 -1978825712 -874183809 -1472598248 -1066362113 465640788 -201896232 1104524529 67390189
REM
CELL 1.54180   50.00000   50.00000   50.00000   90.00000   90.00000   90.00000
LATT -1
SFAC C  
C      1  0.4475110000000  0.4700430000000  0.5147520000000 1.0
C      1  0.4476240000000  0.5281080000000  0.4882990000000 1.0
C      1  0.4427640000000  0.4723420000000  0.4848630000000 1.0
C      1  0.4442310000000  0.5246110000000  0.5177470000000 1.0
C      1  0.4494920000000  0.4387980000000  0.5204590000000 1.0
C      1  0.4499310000000  0.5594400000000  0.4836780000000 1.0
C      1  0.4505220000000  0.4405580000000  0.4884390000000 1.0
C      1  0.4446810000000  0.5574480000000  0.5148870000000 1.0
C      1  0.5056270000000  0.4149210000000  0.4360010000000 1.0
C      1  0.4975260000000  0.5905190000000  0.5331730000000 1.0
C      1  0.5006860000000  0.4148000000000  0.5447890000000 1.0
C      1  0.5175510000000  0.5852360000000  0.4455490000000 1.0
C      1  0.5537790000000  0.5149630000000  0.4627110000000 1.0
C      1  0.5535300000000  0.4819790000000  0.5392220000000 1.0
C      1  0.5548150000000  0.5094100000000  0.5338190000000 1.0
C      1  0.5557340000000  0.4877670000000  0.4588310000000 1.0
C      1  0.5499560000000  0.4724350000000  0.4325070000000 1.0
C      1  0.5517250000000  0.5290880000000  0.5574830000000 1.0
C      1  0.5460590000000  0.4775590000000  0.5663470000000 1.0
C      1  0.5497010000000  0.5315350000000  0.4370540000000 1.0
C      1  0.5024040000000  0.4769360000000  0.5221980000000 1.0
C      1  0.5019690000000  0.5096940000000  0.4857710000000 1.0
C      1  0.5194790000000  0.4819640000000  0.4940340000000 1.0
C      1  0.5010740000000  0.5088560000000  0.5169910000000 1.0
C      1  0.5209200000000  0.4881840000000  0.5711210000000 1.0
C      1  0.5198560000000  0.5159890000000  0.4419440000000 1.0
C      1  0.5198010000000  0.4855600000000  0.4414320000000 1.0
C      1  0.5198250000000  0.5183680000000  0.5623310000000 1.0
C      1  0.4819390000000  0.4917100000000  0.5785670000000 1.0
C      1  0.4843090000000  0.5149820000000  0.4238250000000 1.0
C      1  0.4844530000000  0.4901940000000  0.4234350000000 1.0
C      1  0.4831060000000  0.5167150000000  0.5778290000000 1.0
C      1  0.4724690000000  0.5124240000000  0.4746480000000 1.0
C      1  0.4714460000000  0.4848280000000  0.5286380000000 1.0
C      1  0.4720880000000  0.5158230000000  0.5305420000000 1.0
C      1  0.4621440000000  0.4858890000000  0.4669650000000 1.0
C      1  0.4900250000000  0.5635010000000  0.4899090000000 1.0
C      1  0.4878200000000  0.4300410000000  0.5169630000000 1.0
C      1  0.4814980000000  0.5718940000000  0.5152680000000 1.0
C      1  0.4897370000000  0.4351620000000  0.4849120000000 1.0
C      1  0.5248100000000  0.5227040000000  0.5288690000000 1.0
C      1  0.5312320000000  0.4697870000000  0.4692990000000 1.0
C      1  0.5242110000000  0.5280030000000  0.4734580000000 1.0
C      1  0.5347530000000  0.4685010000000  0.5215810000000 1.0
C      1  0.5074370000000  0.4372260000000  0.4492970000000 1.0
C      1  0.5110850000000  0.5646780000000  0.5410310000000 1.0
C      1  0.5131540000000  0.4437090000000  0.5442160000000 1.0
C      1  0.5123840000000  0.5623140000000  0.4569800000000 1.0
C      1  0.5251400000000  0.5511720000000  0.5198580000000 1.0
C      1  0.5225770000000  0.4406020000000  0.4779690000000 1.0
C      1  0.5211840000000  0.5559790000000  0.4891530000000 1.0
C      1  0.5185580000000  0.4422170000000  0.5106730000000 1.0
C      1  0.4725750000000  0.4537110000000  0.4660680000000 1.0
C      1  0.4706230000000  0.5485810000000  0.5350640000000 1.0
C      1  0.4747990000000  0.4530320000000  0.5382250000000 1.0
C      1  0.4763360000000  0.5455330000000  0.4673790000000 1.0
C      1  0.4961630000000  0.4674620000000  0.5604480000000 1.0
C      1  0.4955170000000  0.5388310000000  0.4429900000000 1.0
C      1  0.4929120000000  0.4647390000000  0.4416800000000 1.0
C      1  0.4947430000000  0.5409440000000  0.5578270000000 1.0
END
