TITL C-1154829-9094-634 10.0312839974837 125000 -316.29589178793 0 0 60 (C1) n - 1
REM
REM in /home/nfs/bkarasulu/CARBON/AIRSS/Generating-Clusters/AIREBO/Higher-Symm/Only-C60
REM
REM
REM
REM
REM
REM ./C.cell (28575a23ae977d3b5fae324c64b13b57)
REM
REM compiler GCC version 9.2.1 20190827 (Red Hat 9.2.1-1)
REM options -cpp -mtune=generic -march=x86-64 -g -O0 -fpre-include=/usr/include/finclude/math-vector-fortran.h
REM seed -904840145 -236763243 -1461117909 484676228 -373448811 2110310715 -139983062 -552604689 1888997838 -2012122602 -628851172 2077898000 768933163 -747776740 240363024 1651868068 -1769144571 1805943804 -24956192 -1489588812 -270975950 508630720 689825576 -67937644 1256493387 -310919901 592943831 1362783224 1272153370 -1384583603 1199608164 -1914997986 1366431837
REM
CELL 1.54180   50.00000   50.00000   50.00000   90.00000   90.00000   90.00000
LATT -1
SFAC C  
C      1  0.5461990000000  0.4905780000000  0.4631480000000 1.0
C      1  0.4790000000000  0.4889090000000  0.5507230000000 1.0
C      1  0.4879670000000  0.5463420000000  0.4881330000000 1.0
C      1  0.4770320000000  0.5151000000000  0.4803280000000 1.0
C      1  0.5516340000000  0.5105110000000  0.5162130000000 1.0
C      1  0.4575770000000  0.4927570000000  0.5245460000000 1.0
C      1  0.5084190000000  0.5247720000000  0.5566270000000 1.0
C      1  0.4888730000000  0.5112990000000  0.4486340000000 1.0
C      1  0.5157680000000  0.4819200000000  0.4506640000000 1.0
C      1  0.5081890000000  0.4650140000000  0.4792860000000 1.0
C      1  0.4799650000000  0.4369910000000  0.5083380000000 1.0
C      1  0.5068300000000  0.5521770000000  0.5391040000000 1.0
C      1  0.5342320000000  0.4891140000000  0.5283260000000 1.0
C      1  0.4861170000000  0.4816020000000  0.4340030000000 1.0
C      1  0.4807680000000  0.5510340000000  0.5210310000000 1.0
C      1  0.4318120000000  0.5095690000000  0.5235930000000 1.0
C      1  0.5437690000000  0.5157970000000  0.4858640000000 1.0
C      1  0.4658440000000  0.4892440000000  0.4943400000000 1.0
C      1  0.5183900000000  0.5107230000000  0.4317620000000 1.0
C      1  0.4775870000000  0.5175410000000  0.5690070000000 1.0
C      1  0.5127160000000  0.4908210000000  0.5547160000000 1.0
C      1  0.5260680000000  0.4656930000000  0.5050820000000 1.0
C      1  0.4791790000000  0.4599280000000  0.4874360000000 1.0
C      1  0.5185010000000  0.5368080000000  0.4837390000000 1.0
C      1  0.5374160000000  0.5371980000000  0.5595690000000 1.0
C      1  0.5395220000000  0.5615430000000  0.5379310000000 1.0
C      1  0.5556650000000  0.5341500000000  0.5333810000000 1.0
C      1  0.4716540000000  0.4576920000000  0.5595510000000 1.0
C      1  0.5264740000000  0.4563380000000  0.4295640000000 1.0
C      1  0.4679810000000  0.5341630000000  0.4464520000000 1.0
C      1  0.4673490000000  0.4405790000000  0.5323050000000 1.0
C      1  0.5235570000000  0.4438940000000  0.4599420000000 1.0
C      1  0.4706830000000  0.5617010000000  0.4632020000000 1.0
C      1  0.4491170000000  0.4657640000000  0.5379820000000 1.0
C      1  0.5495620000000  0.4607360000000  0.4519810000000 1.0
C      1  0.4514230000000  0.5372180000000  0.4747880000000 1.0
C      1  0.5394400000000  0.5302750000000  0.4365430000000 1.0
C      1  0.5365270000000  0.5477280000000  0.4630030000000 1.0
C      1  0.5617900000000  0.5271900000000  0.4593490000000 1.0
C      1  0.4613240000000  0.4675060000000  0.4394040000000 1.0
C      1  0.5186990000000  0.4580890000000  0.5617250000000 1.0
C      1  0.4552500000000  0.5354200000000  0.5624630000000 1.0
C      1  0.4614670000000  0.4495190000000  0.4646120000000 1.0
C      1  0.5344350000000  0.4496590000000  0.5338730000000 1.0
C      1  0.4572310000000  0.5516370000000  0.5348460000000 1.0
C      1  0.4369270000000  0.4696620000000  0.4605800000000 1.0
C      1  0.5489460000000  0.4721470000000  0.5544830000000 1.0
C      1  0.4328830000000  0.5318280000000  0.5395600000000 1.0
C      1  0.4948940000000  0.5107000000000  0.5952140000000 1.0
C      1  0.5091250000000  0.5791760000000  0.5198900000000 1.0
C      1  0.5775520000000  0.5002440000000  0.5005670000000 1.0
C      1  0.5148390000000  0.4958100000000  0.5882840000000 1.0
C      1  0.4930920000000  0.4849850000000  0.4035200000000 1.0
C      1  0.5119810000000  0.5027780000000  0.4021760000000 1.0
C      1  0.5022740000000  0.4200260000000  0.5056110000000 1.0
C      1  0.5264590000000  0.4316470000000  0.5088200000000 1.0
C      1  0.5019660000000  0.5763840000000  0.4957450000000 1.0
C      1  0.4185350000000  0.5015720000000  0.4996930000000 1.0
C      1  0.5757820000000  0.4938970000000  0.4762660000000 1.0
C      1  0.4357430000000  0.4869030000000  0.4824820000000 1.0
END
