TITL C-1154830-9999-549 0.00170690710512314 125000 -339.105437548933 0 0 60 (C1) n - 1
REM
REM in /home/nfs/bkarasulu/CARBON/AIRSS/Generating-Clusters/AIREBO/Higher-Symm/Only-C60
REM
REM
REM
REM
REM
REM ./C.cell (28575a23ae977d3b5fae324c64b13b57)
REM
REM compiler GCC version 9.2.1 20190827 (Red Hat 9.2.1-1)
REM options -cpp -mtune=generic -march=x86-64 -g -O0 -fpre-include=/usr/include/finclude/math-vector-fortran.h
REM seed -192786966 2115970472 119856014 -819603186 -986103360 -227196564 270131519 18357577 1361000095 1157965757 -1865485375 -1215138741 -1900322003 -132040461 -278031949 2077368243 1071164115 93930309 -1799642961 987308380 -1882305064 391560250 587368501 -1084366368 1346621788 -1094369578 1966562415 2089681563 1917396219 625320334 -298104236 -1227194092 -15214710
REM
CELL 1.54180   50.00000   50.00000   50.00000   90.00000   90.00000   90.00000
LATT -1
SFAC C  
C      1  0.5279760000000  0.4719440000000  0.5600220000000 1.0
C      1  0.4631270000000  0.4713270000000  0.5542900000000 1.0
C      1  0.4820790000000  0.4604690000000  0.4500090000000 1.0
C      1  0.5117620000000  0.4638240000000  0.4551150000000 1.0
C      1  0.4871980000000  0.5628650000000  0.4482530000000 1.0
C      1  0.5121150000000  0.5632980000000  0.4473620000000 1.0
C      1  0.5417430000000  0.5598620000000  0.4910910000000 1.0
C      1  0.4566650000000  0.5568240000000  0.4918950000000 1.0
C      1  0.4596440000000  0.5519120000000  0.5185760000000 1.0
C      1  0.5415760000000  0.5555180000000  0.5180480000000 1.0
C      1  0.5149650000000  0.4841890000000  0.5309810000000 1.0
C      1  0.4840510000000  0.4833360000000  0.5304300000000 1.0
C      1  0.5461540000000  0.4574200000000  0.5383250000000 1.0
C      1  0.4495270000000  0.4513840000000  0.5323880000000 1.0
C      1  0.5669710000000  0.5104610000000  0.4711170000000 1.0
C      1  0.4322770000000  0.5115050000000  0.4715610000000 1.0
C      1  0.5605150000000  0.5185480000000  0.4975260000000 1.0
C      1  0.4409060000000  0.5172490000000  0.4980800000000 1.0
C      1  0.4415940000000  0.4695750000000  0.4883940000000 1.0
C      1  0.5569930000000  0.4703330000000  0.4926820000000 1.0
C      1  0.5319020000000  0.5466350000000  0.4637550000000 1.0
C      1  0.4683910000000  0.5450020000000  0.4644140000000 1.0
C      1  0.5143460000000  0.4180370000000  0.5156630000000 1.0
C      1  0.4873540000000  0.4173780000000  0.5123080000000 1.0
C      1  0.4869230000000  0.5165280000000  0.4173090000000 1.0
C      1  0.5145360000000  0.5155070000000  0.4174680000000 1.0
C      1  0.4745480000000  0.5116970000000  0.5780980000000 1.0
C      1  0.5418860000000  0.4990490000000  0.5733760000000 1.0
C      1  0.5628540000000  0.4739560000000  0.5224170000000 1.0
C      1  0.4309660000000  0.4687480000000  0.5160080000000 1.0
C      1  0.4405390000000  0.4899050000000  0.5363870000000 1.0
C      1  0.5711110000000  0.4995050000000  0.5309200000000 1.0
C      1  0.5557240000000  0.5293780000000  0.5290560000000 1.0
C      1  0.4466460000000  0.5228880000000  0.5306760000000 1.0
C      1  0.4725750000000  0.5059810000000  0.4386830000000 1.0
C      1  0.5277830000000  0.5053330000000  0.4397440000000 1.0
C      1  0.4706210000000  0.5170820000000  0.4992430000000 1.0
C      1  0.5305370000000  0.5216020000000  0.4990860000000 1.0
C      1  0.4390980000000  0.4842940000000  0.4651130000000 1.0
C      1  0.5592630000000  0.4827830000000  0.4676320000000 1.0
C      1  0.5161390000000  0.4843290000000  0.4807210000000 1.0
C      1  0.4837530000000  0.4816650000000  0.4772230000000 1.0
C      1  0.5054620000000  0.4588390000000  0.5765800000000 1.0
C      1  0.4806040000000  0.4620430000000  0.5773970000000 1.0
C      1  0.5380270000000  0.4790990000000  0.4477710000000 1.0
C      1  0.4597920000000  0.4809790000000  0.4452640000000 1.0
C      1  0.5342920000000  0.5083740000000  0.5450980000000 1.0
C      1  0.4723800000000  0.5096440000000  0.5485420000000 1.0
C      1  0.4410750000000  0.5317490000000  0.4534330000000 1.0
C      1  0.5573950000000  0.5298230000000  0.4522960000000 1.0
C      1  0.5163980000000  0.5610960000000  0.5324270000000 1.0
C      1  0.4889060000000  0.5541680000000  0.5274810000000 1.0
C      1  0.5173310000000  0.5164960000000  0.4697470000000 1.0
C      1  0.4831190000000  0.5147450000000  0.4693390000000 1.0
C      1  0.5302340000000  0.4396420000000  0.5202740000000 1.0
C      1  0.4690090000000  0.4372700000000  0.5150790000000 1.0
C      1  0.5163680000000  0.5252980000000  0.5242990000000 1.0
C      1  0.4859430000000  0.5224990000000  0.5233960000000 1.0
C      1  0.4717350000000  0.4688640000000  0.5041110000000 1.0
C      1  0.5265990000000  0.4702480000000  0.5060200000000 1.0
END
