TITL C-1154810-7815-167 1.3049345380449 125000 -318.774858037552 0 0 60 (C1) n - 1
REM
REM in /home/nfs/bkarasulu/CARBON/AIRSS/Generating-Clusters/AIREBO/Higher-Symm/Only-C60
REM
REM
REM
REM
REM
REM ./C.cell (28575a23ae977d3b5fae324c64b13b57)
REM
REM compiler GCC version 9.2.1 20190827 (Red Hat 9.2.1-1)
REM options -cpp -mtune=generic -march=x86-64 -g -O0 -fpre-include=/usr/include/finclude/math-vector-fortran.h
REM seed -1908013103 1381191925 739970420 -614852821 1820098949 -953024660 614237735 -244088814 903913080 -155819674 1078379477 1137250140 -936013539 1656689764 -1854355077 -510257339 1116046629 191750387 -859309859 -1339419398 1248486027 -322101524 1634691677 -552498797 1730876285 -683054289 1641575067 -1174156712 -197075212 -402830015 -1196470296 1224811841 1977393400
REM
CELL 1.54180   50.00000   50.00000   50.00000   90.00000   90.00000   90.00000
LATT -1
SFAC C  
C      1  0.5699650000000  0.4908410000000  0.4505750000000 1.0
C      1  0.5574620000000  0.5045570000000  0.5556020000000 1.0
C      1  0.5297030000000  0.5572090000000  0.4466300000000 1.0
C      1  0.5290830000000  0.5642510000000  0.5525760000000 1.0
C      1  0.4690650000000  0.4481940000000  0.5520840000000 1.0
C      1  0.4519310000000  0.4555160000000  0.4442040000000 1.0
C      1  0.4848990000000  0.5195280000000  0.5592190000000 1.0
C      1  0.4952940000000  0.5183370000000  0.4451150000000 1.0
C      1  0.4773580000000  0.4451080000000  0.4822960000000 1.0
C      1  0.4744760000000  0.4314200000000  0.5105620000000 1.0
C      1  0.5085990000000  0.4445680000000  0.5468470000000 1.0
C      1  0.5047550000000  0.4559320000000  0.4421160000000 1.0
C      1  0.4382400000000  0.4734270000000  0.4891830000000 1.0
C      1  0.4452800000000  0.4710690000000  0.5182690000000 1.0
C      1  0.5086370000000  0.4387930000000  0.4920810000000 1.0
C      1  0.5030230000000  0.4293490000000  0.5211580000000 1.0
C      1  0.4918690000000  0.4888610000000  0.4824980000000 1.0
C      1  0.4979540000000  0.4862820000000  0.5160070000000 1.0
C      1  0.4677680000000  0.4960270000000  0.5230000000000 1.0
C      1  0.4427790000000  0.4987520000000  0.4786930000000 1.0
C      1  0.5095840000000  0.5708950000000  0.5277990000000 1.0
C      1  0.5072300000000  0.5645440000000  0.4686630000000 1.0
C      1  0.4690270000000  0.5267750000000  0.5141970000000 1.0
C      1  0.4717410000000  0.5162850000000  0.4819690000000 1.0
C      1  0.5264670000000  0.5029510000000  0.5241170000000 1.0
C      1  0.5252190000000  0.4952350000000  0.4800190000000 1.0
C      1  0.5421160000000  0.5423510000000  0.4816290000000 1.0
C      1  0.5509550000000  0.5470300000000  0.5105920000000 1.0
C      1  0.5258570000000  0.5088580000000  0.4367020000000 1.0
C      1  0.5171530000000  0.5154620000000  0.5692820000000 1.0
C      1  0.5333590000000  0.5363430000000  0.5578680000000 1.0
C      1  0.5417280000000  0.5331100000000  0.4425490000000 1.0
C      1  0.4715550000000  0.4923500000000  0.5623990000000 1.0
C      1  0.4732420000000  0.4968950000000  0.4427260000000 1.0
C      1  0.5411670000000  0.5710030000000  0.5229620000000 1.0
C      1  0.5387610000000  0.5748000000000  0.4720370000000 1.0
C      1  0.5108570000000  0.4292720000000  0.5700030000000 1.0
C      1  0.5009400000000  0.4419250000000  0.4190370000000 1.0
C      1  0.4565900000000  0.4438530000000  0.5277030000000 1.0
C      1  0.4481240000000  0.4525080000000  0.4734440000000 1.0
C      1  0.5326530000000  0.4893280000000  0.5620300000000 1.0
C      1  0.5411140000000  0.4851170000000  0.4412520000000 1.0
C      1  0.5143370000000  0.5253390000000  0.4712270000000 1.0
C      1  0.5036730000000  0.5220630000000  0.5328810000000 1.0
C      1  0.5295270000000  0.4679360000000  0.5432080000000 1.0
C      1  0.5284660000000  0.4638080000000  0.4537650000000 1.0
C      1  0.4688830000000  0.5372380000000  0.4553230000000 1.0
C      1  0.4600240000000  0.5384310000000  0.5448440000000 1.0
C      1  0.4437790000000  0.4898020000000  0.5463020000000 1.0
C      1  0.4477740000000  0.5037200000000  0.4499170000000 1.0
C      1  0.4960660000000  0.5472390000000  0.5167560000000 1.0
C      1  0.4929070000000  0.5431210000000  0.4866470000000 1.0
C      1  0.5278630000000  0.4618310000000  0.4858180000000 1.0
C      1  0.5358490000000  0.4736930000000  0.5140490000000 1.0
C      1  0.5517450000000  0.5127870000000  0.4678720000000 1.0
C      1  0.5501070000000  0.5248810000000  0.5307350000000 1.0
C      1  0.4492920000000  0.5421840000000  0.4830800000000 1.0
C      1  0.4447560000000  0.5501480000000  0.5158230000000 1.0
C      1  0.4812270000000  0.4682050000000  0.4576400000000 1.0
C      1  0.4901460000000  0.4726650000000  0.5464170000000 1.0
END
