TITL C-1154823-9327-68 0.000307822175038566 125000 -323.886273118889 0 0 60 (C1) n - 1
REM
REM in /home/nfs/bkarasulu/CARBON/AIRSS/Generating-Clusters/AIREBO/Higher-Symm/Only-C60
REM
REM
REM
REM
REM
REM ./C.cell (28575a23ae977d3b5fae324c64b13b57)
REM
REM compiler GCC version 9.2.1 20190827 (Red Hat 9.2.1-1)
REM options -cpp -mtune=generic -march=x86-64 -g -O0 -fpre-include=/usr/include/finclude/math-vector-fortran.h
REM seed -597718847 993079036 -1897610021 -1584662381 1205105487 4635420 -1605637905 595616075 1778542686 1489336953 2049086039 112018704 -1894426905 -1756223110 -1195941794 -1821733635 1007221543 1534343549 -2073657531 916978618 1682860393 -515607749 -780040094 536689014 -860581736 1882976875 1200715661 -1263113442 1863218633 1923928581 375908148 1577767389 2089688691
REM
CELL 1.54180   50.00000   50.00000   50.00000   90.00000   90.00000   90.00000
LATT -1
SFAC C  
C      1  0.5253490000000  0.5633910000000  0.5172120000000 1.0
C      1  0.5250920000000  0.5593020000000  0.4878020000000 1.0
C      1  0.4996150000000  0.5527930000000  0.4703540000000 1.0
C      1  0.4741380000000  0.5626430000000  0.4824200000000 1.0
C      1  0.4756670000000  0.5568010000000  0.5106300000000 1.0
C      1  0.5000930000000  0.5518330000000  0.5290080000000 1.0
C      1  0.5209300000000  0.4465740000000  0.4887150000000 1.0
C      1  0.5231830000000  0.4385580000000  0.5155090000000 1.0
C      1  0.4988850000000  0.4371720000000  0.5292190000000 1.0
C      1  0.4774930000000  0.4460290000000  0.5132090000000 1.0
C      1  0.4733380000000  0.4411580000000  0.4833650000000 1.0
C      1  0.5010550000000  0.4384010000000  0.4703650000000 1.0
C      1  0.5549210000000  0.5459320000000  0.4648480000000 1.0
C      1  0.5017240000000  0.5414220000000  0.4388520000000 1.0
C      1  0.4479210000000  0.5479880000000  0.4711640000000 1.0
C      1  0.4458510000000  0.5447460000000  0.5340690000000 1.0
C      1  0.4980590000000  0.5409500000000  0.5611280000000 1.0
C      1  0.5514160000000  0.5479110000000  0.5278130000000 1.0
C      1  0.5468300000000  0.4549610000000  0.5288250000000 1.0
C      1  0.4955490000000  0.4543950000000  0.5574830000000 1.0
C      1  0.4431370000000  0.4559170000000  0.5308200000000 1.0
C      1  0.4464990000000  0.4532980000000  0.4669280000000 1.0
C      1  0.5038250000000  0.4549980000000  0.4426580000000 1.0
C      1  0.5550130000000  0.4566530000000  0.4703900000000 1.0
C      1  0.5233800000000  0.4861150000000  0.5161850000000 1.0
C      1  0.5246440000000  0.4769050000000  0.4860070000000 1.0
C      1  0.5015580000000  0.4878740000000  0.4697450000000 1.0
C      1  0.4783800000000  0.4747010000000  0.4857710000000 1.0
C      1  0.4745490000000  0.4770810000000  0.5189070000000 1.0
C      1  0.4976360000000  0.4875420000000  0.5336740000000 1.0
C      1  0.5261770000000  0.5267480000000  0.4844690000000 1.0
C      1  0.5316940000000  0.5167990000000  0.5123820000000 1.0
C      1  0.5041790000000  0.5187730000000  0.5285230000000 1.0
C      1  0.4746620000000  0.5241070000000  0.5157630000000 1.0
C      1  0.4730050000000  0.5081480000000  0.4889420000000 1.0
C      1  0.4978620000000  0.5192780000000  0.4718530000000 1.0
C      1  0.4633690000000  0.4458520000000  0.5504500000000 1.0
C      1  0.5284520000000  0.4463990000000  0.5543790000000 1.0
C      1  0.5637200000000  0.4575130000000  0.4994260000000 1.0
C      1  0.5354130000000  0.4459380000000  0.4514650000000 1.0
C      1  0.4708950000000  0.4466310000000  0.4440830000000 1.0
C      1  0.4427490000000  0.4627220000000  0.4994020000000 1.0
C      1  0.4692790000000  0.5500900000000  0.4447900000000 1.0
C      1  0.5322890000000  0.5536740000000  0.4474320000000 1.0
C      1  0.5611460000000  0.5423280000000  0.4957110000000 1.0
C      1  0.5304650000000  0.5492630000000  0.5545200000000 1.0
C      1  0.4675170000000  0.5528740000000  0.5520120000000 1.0
C      1  0.4393100000000  0.5418270000000  0.5034840000000 1.0
C      1  0.4415570000000  0.5161380000000  0.4811810000000 1.0
C      1  0.4478240000000  0.5139210000000  0.5307680000000 1.0
C      1  0.4961010000000  0.5121910000000  0.5750830000000 1.0
C      1  0.5643350000000  0.5176380000000  0.5192730000000 1.0
C      1  0.5514870000000  0.5144590000000  0.4687910000000 1.0
C      1  0.5035360000000  0.5120060000000  0.4271330000000 1.0
C      1  0.4461680000000  0.4874910000000  0.5304600000000 1.0
C      1  0.4429960000000  0.4860220000000  0.4746300000000 1.0
C      1  0.5031450000000  0.4869760000000  0.4382300000000 1.0
C      1  0.5525540000000  0.4878740000000  0.4699620000000 1.0
C      1  0.5561830000000  0.4856410000000  0.5175370000000 1.0
C      1  0.4962040000000  0.4866340000000  0.5647930000000 1.0
END
