TITL C-1154804-8633-3 0.00117965292932299 125000 -327.955170971881 0 0 60 (C1) n - 1
REM
REM in /home/nfs/bkarasulu/CARBON/AIRSS/Generating-Clusters/AIREBO/Higher-Symm/Only-C60
REM
REM
REM
REM
REM
REM ./C.cell (28575a23ae977d3b5fae324c64b13b57)
REM
REM compiler GCC version 9.2.1 20190827 (Red Hat 9.2.1-1)
REM options -cpp -mtune=generic -march=x86-64 -g -O0 -fpre-include=/usr/include/finclude/math-vector-fortran.h
REM seed 1043252206 615486286 -1608156464 -18047396 716863222 -403173592 609989865 -310297782 698064525 1983686242 -1854725334 2055011020 1780804385 116174440 942193052 -893025142 -381557605 -1732973839 -697778465 486031523 -407814130 2075582293 -689960176 -1254947405 -31693730 842931176 1616212530 653091556 -62303752 -1613934088 -646636511 -1233987028 506084120
REM
CELL 1.54180   50.00000   50.00000   50.00000   90.00000   90.00000   90.00000
LATT -1
SFAC C  
C      1  0.5186200000000  0.5309260000000  0.5812110000000 1.0
C      1  0.4939250000000  0.4330430000000  0.4589420000000 1.0
C      1  0.5201670000000  0.4797520000000  0.5262030000000 1.0
C      1  0.4971990000000  0.4513540000000  0.4339420000000 1.0
C      1  0.5703190000000  0.5076180000000  0.4693160000000 1.0
C      1  0.5279870000000  0.4483360000000  0.4309610000000 1.0
C      1  0.4672970000000  0.5547210000000  0.5173410000000 1.0
C      1  0.5220930000000  0.5009310000000  0.4591870000000 1.0
C      1  0.5580830000000  0.5383210000000  0.4711800000000 1.0
C      1  0.5478950000000  0.4522250000000  0.4833590000000 1.0
C      1  0.4667430000000  0.4340210000000  0.5004470000000 1.0
C      1  0.4368070000000  0.4980540000000  0.4777920000000 1.0
C      1  0.4713620000000  0.5369660000000  0.5616590000000 1.0
C      1  0.5008250000000  0.5222670000000  0.4610400000000 1.0
C      1  0.5182850000000  0.5251310000000  0.4252780000000 1.0
C      1  0.5351310000000  0.4859200000000  0.5002140000000 1.0
C      1  0.4962740000000  0.4993970000000  0.5308470000000 1.0
C      1  0.5594470000000  0.4756510000000  0.5216480000000 1.0
C      1  0.4518070000000  0.5182820000000  0.5611050000000 1.0
C      1  0.4992330000000  0.5486870000000  0.5710100000000 1.0
C      1  0.5162020000000  0.4775400000000  0.4770500000000 1.0
C      1  0.5413090000000  0.5469760000000  0.4914990000000 1.0
C      1  0.5225390000000  0.4491780000000  0.4646870000000 1.0
C      1  0.4942920000000  0.5495870000000  0.5373680000000 1.0
C      1  0.5684460000000  0.4960580000000  0.5368540000000 1.0
C      1  0.5157260000000  0.5251050000000  0.5330030000000 1.0
C      1  0.4350380000000  0.4709560000000  0.4809510000000 1.0
C      1  0.4572920000000  0.5427240000000  0.4865010000000 1.0
C      1  0.5441090000000  0.4491930000000  0.5124640000000 1.0
C      1  0.4984990000000  0.5049220000000  0.4251590000000 1.0
C      1  0.4774700000000  0.4231460000000  0.4786090000000 1.0
C      1  0.4852900000000  0.4773240000000  0.4345020000000 1.0
C      1  0.4870120000000  0.4790860000000  0.4870290000000 1.0
C      1  0.5215750000000  0.4844370000000  0.5598530000000 1.0
C      1  0.4496300000000  0.5081190000000  0.5050070000000 1.0
C      1  0.4386380000000  0.5381480000000  0.5145570000000 1.0
C      1  0.5475700000000  0.5187000000000  0.5430920000000 1.0
C      1  0.5449780000000  0.5403880000000  0.4398060000000 1.0
C      1  0.4310620000000  0.5186790000000  0.5383430000000 1.0
C      1  0.5593740000000  0.4810350000000  0.4768790000000 1.0
C      1  0.4343240000000  0.4863380000000  0.5261580000000 1.0
C      1  0.5429410000000  0.5389500000000  0.5178070000000 1.0
C      1  0.5138010000000  0.5498710000000  0.4490390000000 1.0
C      1  0.4487270000000  0.4619520000000  0.5088290000000 1.0
C      1  0.4520540000000  0.5208670000000  0.4671780000000 1.0
C      1  0.4935710000000  0.5265200000000  0.4909100000000 1.0
C      1  0.5464530000000  0.5084140000000  0.4481930000000 1.0
C      1  0.5108460000000  0.5543280000000  0.4827470000000 1.0
C      1  0.5054090000000  0.5699180000000  0.5124830000000 1.0
C      1  0.5300340000000  0.5096050000000  0.5669270000000 1.0
C      1  0.4733280000000  0.5135780000000  0.4461430000000 1.0
C      1  0.5123130000000  0.4479170000000  0.5245710000000 1.0
C      1  0.5114690000000  0.4562130000000  0.5569750000000 1.0
C      1  0.4853480000000  0.4525460000000  0.5689710000000 1.0
C      1  0.4524580000000  0.4889460000000  0.5522850000000 1.0
C      1  0.4801570000000  0.5678090000000  0.4885110000000 1.0
C      1  0.4800550000000  0.5045260000000  0.5048620000000 1.0
C      1  0.4821300000000  0.4605590000000  0.5151360000000 1.0
C      1  0.4782300000000  0.4752590000000  0.5455690000000 1.0
C      1  0.4708040000000  0.4829780000000  0.4608090000000 1.0
END
