TITL C-1154823-9327-425 0.00145187544614631 125000 -346.359006570706 0 0 60 (C1) n - 1
REM
REM in /home/nfs/bkarasulu/CARBON/AIRSS/Generating-Clusters/AIREBO/Higher-Symm/Only-C60
REM
REM
REM
REM
REM
REM ./C.cell (28575a23ae977d3b5fae324c64b13b57)
REM
REM compiler GCC version 9.2.1 20190827 (Red Hat 9.2.1-1)
REM options -cpp -mtune=generic -march=x86-64 -g -O0 -fpre-include=/usr/include/finclude/math-vector-fortran.h
REM seed -107108373 -2078837532 886380373 -1527671481 -1009881772 1868024623 1105587111 1456329344 1097871188 -683158319 -337656297 279822209 -1420075986 -1315892807 -1700044246 -158650732 -1199902693 656240554 1372722840 1018626524 533286128 1519518073 509861446 -1463505988 -1496164721 464460294 106047920 -865347768 -1924257751 -731995943 -486752867 -984895348 -1506840484
REM
CELL 1.54180   50.00000   50.00000   50.00000   90.00000   90.00000   90.00000
LATT -1
SFAC C  
C      1  0.4848970000000  0.4364710000000  0.5254360000000 1.0
C      1  0.4811330000000  0.5650560000000  0.4687560000000 1.0
C      1  0.5189870000000  0.4374120000000  0.5183720000000 1.0
C      1  0.5148840000000  0.5607090000000  0.4689290000000 1.0
C      1  0.4724880000000  0.4420890000000  0.4773070000000 1.0
C      1  0.4831650000000  0.5632470000000  0.5255320000000 1.0
C      1  0.5308000000000  0.4427100000000  0.4700990000000 1.0
C      1  0.5155010000000  0.5547600000000  0.5249270000000 1.0
C      1  0.4157070000000  0.5208450000000  0.4870330000000 1.0
C      1  0.4312220000000  0.4880050000000  0.5216940000000 1.0
C      1  0.5660390000000  0.5170200000000  0.4872280000000 1.0
C      1  0.5629540000000  0.4792870000000  0.5205560000000 1.0
C      1  0.4218230000000  0.5169510000000  0.5166530000000 1.0
C      1  0.4159670000000  0.4900690000000  0.4880740000000 1.0
C      1  0.5633430000000  0.5250090000000  0.5183250000000 1.0
C      1  0.5748990000000  0.4875440000000  0.4958560000000 1.0
C      1  0.5191830000000  0.5293170000000  0.4565960000000 1.0
C      1  0.5123530000000  0.4645990000000  0.5327710000000 1.0
C      1  0.4876970000000  0.5336830000000  0.4580000000000 1.0
C      1  0.4808470000000  0.4695080000000  0.5324840000000 1.0
C      1  0.5194260000000  0.5286580000000  0.5439770000000 1.0
C      1  0.5163720000000  0.4696710000000  0.4661510000000 1.0
C      1  0.4879890000000  0.5297150000000  0.5393970000000 1.0
C      1  0.4853100000000  0.4677100000000  0.4652030000000 1.0
C      1  0.4725910000000  0.4866590000000  0.4423890000000 1.0
C      1  0.4744590000000  0.5122640000000  0.5598340000000 1.0
C      1  0.5264010000000  0.4838170000000  0.4399130000000 1.0
C      1  0.5240200000000  0.5044840000000  0.5654300000000 1.0
C      1  0.4728160000000  0.4871720000000  0.5577720000000 1.0
C      1  0.4733470000000  0.5114420000000  0.4395740000000 1.0
C      1  0.5243230000000  0.4802750000000  0.5584990000000 1.0
C      1  0.5268680000000  0.5084710000000  0.4348890000000 1.0
C      1  0.4546710000000  0.5586150000000  0.5126250000000 1.0
C      1  0.4486550000000  0.4482490000000  0.4911670000000 1.0
C      1  0.5423550000000  0.5665020000000  0.5113460000000 1.0
C      1  0.5564350000000  0.4439630000000  0.4826710000000 1.0
C      1  0.4528340000000  0.5588170000000  0.4843610000000 1.0
C      1  0.4526040000000  0.4444290000000  0.5193500000000 1.0
C      1  0.5439650000000  0.5662740000000  0.4828300000000 1.0
C      1  0.5516730000000  0.4353490000000  0.5108750000000 1.0
C      1  0.4634430000000  0.4886370000000  0.5146050000000 1.0
C      1  0.4649490000000  0.5213630000000  0.4773540000000 1.0
C      1  0.5316890000000  0.4848070000000  0.5185600000000 1.0
C      1  0.5345900000000  0.5153850000000  0.4815940000000 1.0
C      1  0.4670210000000  0.4906390000000  0.4817610000000 1.0
C      1  0.4713720000000  0.5220220000000  0.5107460000000 1.0
C      1  0.5243750000000  0.4883920000000  0.4893980000000 1.0
C      1  0.5418650000000  0.5116930000000  0.5304870000000 1.0
C      1  0.5672490000000  0.4520840000000  0.5281180000000 1.0
C      1  0.5637730000000  0.5483350000000  0.4741790000000 1.0
C      1  0.4356020000000  0.4600930000000  0.5339670000000 1.0
C      1  0.4365150000000  0.5352100000000  0.4737930000000 1.0
C      1  0.5760870000000  0.4646860000000  0.4785170000000 1.0
C      1  0.5646660000000  0.5529560000000  0.5231050000000 1.0
C      1  0.4395590000000  0.4742910000000  0.4843830000000 1.0
C      1  0.4424070000000  0.5343440000000  0.5236080000000 1.0
C      1  0.4891320000000  0.5470770000000  0.4961470000000 1.0
C      1  0.5166000000000  0.4255410000000  0.4870800000000 1.0
C      1  0.4889070000000  0.4276800000000  0.4941050000000 1.0
C      1  0.5191960000000  0.5379370000000  0.4956110000000 1.0
END
