TITL C-1154827-9204-629 -0.00244181703219585 125000 -336.893459263112 0 0 60 (C1) n - 1
REM
REM in /home/nfs/bkarasulu/CARBON/AIRSS/Generating-Clusters/AIREBO/Higher-Symm/Only-C60
REM
REM
REM
REM
REM
REM ./C.cell (28575a23ae977d3b5fae324c64b13b57)
REM
REM compiler GCC version 9.2.1 20190827 (Red Hat 9.2.1-1)
REM options -cpp -mtune=generic -march=x86-64 -g -O0 -fpre-include=/usr/include/finclude/math-vector-fortran.h
REM seed -1835510858 1552880907 -1265288506 -488628961 -2117127232 -2129619092 210076833 1828341408 1094558447 -875754299 717960821 -187973027 -1601465019 1725882166 217776799 -844520632 406080651 -2136771911 -1574170405 -1822644504 -1166648218 -498639995 -1973693698 1613519712 -667606855 1734975326 661001136 -1761348174 955555960 -39377499 1530238873 -1458433374 1399975093
REM
CELL 1.54180   50.00000   50.00000   50.00000   90.00000   90.00000   90.00000
LATT -1
SFAC C  
C      1  0.4384510000000  0.5475290000000  0.5203180000000 1.0
C      1  0.5576640000000  0.5479380000000  0.5193880000000 1.0
C      1  0.5049340000000  0.4712800000000  0.4911910000000 1.0
C      1  0.4770070000000  0.4644010000000  0.4846050000000 1.0
C      1  0.4325860000000  0.4946890000000  0.5274090000000 1.0
C      1  0.5679400000000  0.4986830000000  0.5271770000000 1.0
C      1  0.5136370000000  0.4337790000000  0.4453040000000 1.0
C      1  0.4873130000000  0.4378380000000  0.4388780000000 1.0
C      1  0.5331070000000  0.4478560000000  0.4595430000000 1.0
C      1  0.4645960000000  0.4503030000000  0.4496910000000 1.0
C      1  0.5511170000000  0.4871540000000  0.4788060000000 1.0
C      1  0.4481780000000  0.4911630000000  0.4793140000000 1.0
C      1  0.5509900000000  0.5325920000000  0.4946270000000 1.0
C      1  0.4490990000000  0.5299780000000  0.4979480000000 1.0
C      1  0.5123710000000  0.5427620000000  0.5344830000000 1.0
C      1  0.4899170000000  0.5251040000000  0.5160150000000 1.0
C      1  0.4827820000000  0.5087960000000  0.4536810000000 1.0
C      1  0.5134710000000  0.5028510000000  0.4490370000000 1.0
C      1  0.5575690000000  0.5252500000000  0.5389030000000 1.0
C      1  0.4420990000000  0.5217370000000  0.5374530000000 1.0
C      1  0.4273490000000  0.4724700000000  0.5076480000000 1.0
C      1  0.5741630000000  0.4743240000000  0.5086900000000 1.0
C      1  0.4597310000000  0.5441890000000  0.4767120000000 1.0
C      1  0.5397200000000  0.5463240000000  0.4683550000000 1.0
C      1  0.4592480000000  0.5008550000000  0.5080340000000 1.0
C      1  0.5420320000000  0.5035470000000  0.5056980000000 1.0
C      1  0.5149750000000  0.4740550000000  0.5794080000000 1.0
C      1  0.4882900000000  0.4761390000000  0.5654490000000 1.0
C      1  0.4666370000000  0.5632090000000  0.5114930000000 1.0
C      1  0.5290600000000  0.5584460000000  0.5156800000000 1.0
C      1  0.5606180000000  0.5269420000000  0.4493580000000 1.0
C      1  0.4339550000000  0.5221170000000  0.4438310000000 1.0
C      1  0.4499000000000  0.4387570000000  0.4704360000000 1.0
C      1  0.5536850000000  0.4406080000000  0.4779130000000 1.0
C      1  0.4505830000000  0.4531840000000  0.5008640000000 1.0
C      1  0.5581680000000  0.4503600000000  0.5047130000000 1.0
C      1  0.5123410000000  0.4629440000000  0.5205690000000 1.0
C      1  0.4851530000000  0.4613660000000  0.5378910000000 1.0
C      1  0.5717160000000  0.5048770000000  0.4606030000000 1.0
C      1  0.4239630000000  0.5035250000000  0.4620400000000 1.0
C      1  0.5851120000000  0.4847420000000  0.4814480000000 1.0
C      1  0.4137130000000  0.4823730000000  0.4826000000000 1.0
C      1  0.4599250000000  0.5310250000000  0.4519580000000 1.0
C      1  0.5297740000000  0.5250180000000  0.4441820000000 1.0
C      1  0.5369180000000  0.4446490000000  0.5226290000000 1.0
C      1  0.4638710000000  0.4425480000000  0.5268600000000 1.0
C      1  0.4877740000000  0.5572550000000  0.4855260000000 1.0
C      1  0.5191860000000  0.5582900000000  0.4893870000000 1.0
C      1  0.4843950000000  0.5065820000000  0.5641980000000 1.0
C      1  0.5178560000000  0.5021720000000  0.5600570000000 1.0
C      1  0.5209070000000  0.4928480000000  0.5301150000000 1.0
C      1  0.4869880000000  0.4932550000000  0.5262380000000 1.0
C      1  0.5254330000000  0.4772860000000  0.4645990000000 1.0
C      1  0.4691080000000  0.4810620000000  0.4578940000000 1.0
C      1  0.4935630000000  0.5239040000000  0.4822150000000 1.0
C      1  0.5121510000000  0.5022530000000  0.4924240000000 1.0
C      1  0.5352810000000  0.5441040000000  0.5797390000000 1.0
C      1  0.4784170000000  0.5565050000000  0.5376310000000 1.0
C      1  0.4719140000000  0.5250540000000  0.5448650000000 1.0
C      1  0.5316010000000  0.5291550000000  0.5562770000000 1.0
END
