TITL C-1154828-9214-300 0.0024297028289093 125000 -359.157499568356 0 0 60 (C1) n - 1
REM
REM in /home/nfs/bkarasulu/CARBON/AIRSS/Generating-Clusters/AIREBO/Higher-Symm/Only-C60
REM
REM
REM
REM
REM
REM ./C.cell (28575a23ae977d3b5fae324c64b13b57)
REM
REM compiler GCC version 9.2.1 20190827 (Red Hat 9.2.1-1)
REM options -cpp -mtune=generic -march=x86-64 -g -O0 -fpre-include=/usr/include/finclude/math-vector-fortran.h
REM seed 1321547740 1659444414 -1996106062 -668123837 -2127183122 -1044405969 -1195937406 983351462 -1168773408 15507482 1066027147 -841614004 885286240 2109148588 -346392356 -1981322928 -1632401473 -1751178181 1035179743 799454122 712379673 944581821 -955897 -1164377989 -1476940485 768115865 517534898 2126565641 -540343857 866982038 -2040276236 -1481717611 2141939883
REM
CELL 1.54180   50.00000   50.00000   50.00000   90.00000   90.00000   90.00000
LATT -1
SFAC C  
C      1  0.4988070000000  0.4361470000000  0.4791340000000 1.0
C      1  0.4912420000000  0.5665950000000  0.5239480000000 1.0
C      1  0.4947900000000  0.5649910000000  0.4719090000000 1.0
C      1  0.4984510000000  0.4434920000000  0.5281400000000 1.0
C      1  0.5603790000000  0.5337780000000  0.4803240000000 1.0
C      1  0.5607390000000  0.4469210000000  0.5252390000000 1.0
C      1  0.5654070000000  0.4621840000000  0.4652340000000 1.0
C      1  0.5519220000000  0.5206490000000  0.5322490000000 1.0
C      1  0.4971720000000  0.4679020000000  0.4317060000000 1.0
C      1  0.4883950000000  0.5324970000000  0.5710260000000 1.0
C      1  0.4829330000000  0.5307580000000  0.4292670000000 1.0
C      1  0.4967730000000  0.4676050000000  0.5742360000000 1.0
C      1  0.4663500000000  0.5308820000000  0.5462970000000 1.0
C      1  0.4761240000000  0.4727020000000  0.4561380000000 1.0
C      1  0.4821880000000  0.4719250000000  0.5506660000000 1.0
C      1  0.4634450000000  0.5369210000000  0.4492320000000 1.0
C      1  0.5234490000000  0.4783230000000  0.4391890000000 1.0
C      1  0.5146960000000  0.5223610000000  0.5618120000000 1.0
C      1  0.5092470000000  0.5248930000000  0.4382130000000 1.0
C      1  0.5244630000000  0.4686480000000  0.5749920000000 1.0
C      1  0.5574710000000  0.4988600000000  0.5130100000000 1.0
C      1  0.5630040000000  0.4898980000000  0.4612650000000 1.0
C      1  0.5444330000000  0.4731330000000  0.5276930000000 1.0
C      1  0.5632440000000  0.5058420000000  0.4853790000000 1.0
C      1  0.5359040000000  0.5205310000000  0.4285740000000 1.0
C      1  0.5407920000000  0.4827470000000  0.5570350000000 1.0
C      1  0.5458240000000  0.4955380000000  0.4386740000000 1.0
C      1  0.5400390000000  0.5110830000000  0.5568050000000 1.0
C      1  0.5387250000000  0.5461170000000  0.4929330000000 1.0
C      1  0.5564300000000  0.4331490000000  0.5018720000000 1.0
C      1  0.5465010000000  0.4484770000000  0.4804450000000 1.0
C      1  0.5394730000000  0.5435280000000  0.5220610000000 1.0
C      1  0.4486480000000  0.4296150000000  0.5162080000000 1.0
C      1  0.4480030000000  0.5720170000000  0.4794060000000 1.0
C      1  0.4438800000000  0.5750260000000  0.5062240000000 1.0
C      1  0.4487950000000  0.4298610000000  0.4909730000000 1.0
C      1  0.4669240000000  0.4500700000000  0.5333060000000 1.0
C      1  0.4684020000000  0.5614330000000  0.4630390000000 1.0
C      1  0.4619240000000  0.5594100000000  0.5282270000000 1.0
C      1  0.4706670000000  0.4452720000000  0.4732350000000 1.0
C      1  0.5056210000000  0.4182460000000  0.5207660000000 1.0
C      1  0.5019540000000  0.5892720000000  0.4845490000000 1.0
C      1  0.4991720000000  0.5897360000000  0.5121570000000 1.0
C      1  0.5042520000000  0.4136950000000  0.4935140000000 1.0
C      1  0.4488090000000  0.4695350000000  0.5150280000000 1.0
C      1  0.4375460000000  0.5314750000000  0.4883370000000 1.0
C      1  0.4420420000000  0.5361550000000  0.5152100000000 1.0
C      1  0.4526380000000  0.4695630000000  0.4880490000000 1.0
C      1  0.5158850000000  0.4684130000000  0.5158010000000 1.0
C      1  0.5089170000000  0.5402990000000  0.4834760000000 1.0
C      1  0.5072880000000  0.5414230000000  0.5170050000000 1.0
C      1  0.5176760000000  0.4603070000000  0.4851700000000 1.0
C      1  0.4957290000000  0.4882270000000  0.5304940000000 1.0
C      1  0.5079800000000  0.5158980000000  0.4658280000000 1.0
C      1  0.4956800000000  0.5182750000000  0.5346490000000 1.0
C      1  0.5061340000000  0.4838160000000  0.4671290000000 1.0
C      1  0.4344780000000  0.4886900000000  0.5292920000000 1.0
C      1  0.4491400000000  0.5187510000000  0.4659330000000 1.0
C      1  0.4404250000000  0.5147550000000  0.5351130000000 1.0
C      1  0.4525780000000  0.4916890000000  0.4671810000000 1.0
END
