TITL C-1154801-8518-4 0.000305351264900439 125000 -337.280350131604 0 0 60 (C1) n - 1
REM
REM in /home/nfs/bkarasulu/CARBON/AIRSS/Generating-Clusters/AIREBO/Higher-Symm/Only-C60
REM
REM
REM
REM
REM
REM ./C.cell (28575a23ae977d3b5fae324c64b13b57)
REM
REM compiler GCC version 9.2.1 20190827 (Red Hat 9.2.1-1)
REM options -cpp -mtune=generic -march=x86-64 -g -O0 -fpre-include=/usr/include/finclude/math-vector-fortran.h
REM seed -834600229 -541049096 -1321479293 -1173388641 -543127395 1195551019 1820886920 -1755341990 1946199002 1667068207 -1167787328 459276032 2144412315 559611269 -286978123 881654891 -1768341689 -784459634 -1087511942 613812073 -1003638226 343580215 -1033466904 -1337018864 -48268687 777124020 1262142025 -518425965 1848492401 -1873894825 -697024 1702516734 -267554642
REM
CELL 1.54180   50.00000   50.00000   50.00000   90.00000   90.00000   90.00000
LATT -1
SFAC C  
C      1  0.4810810000000  0.5385160000000  0.4560150000000 1.0
C      1  0.5396600000000  0.5419970000000  0.4642560000000 1.0
C      1  0.5446340000000  0.5400110000000  0.5256540000000 1.0
C      1  0.4893090000000  0.5382060000000  0.5510500000000 1.0
C      1  0.4481720000000  0.5404340000000  0.5073270000000 1.0
C      1  0.4787320000000  0.4568580000000  0.4582120000000 1.0
C      1  0.5404000000000  0.4607870000000  0.4812710000000 1.0
C      1  0.5364190000000  0.4667290000000  0.5145280000000 1.0
C      1  0.4753770000000  0.4563570000000  0.5477560000000 1.0
C      1  0.4617220000000  0.4607530000000  0.4867580000000 1.0
C      1  0.4920430000000  0.5475050000000  0.4829260000000 1.0
C      1  0.5218840000000  0.5579090000000  0.4789000000000 1.0
C      1  0.5218130000000  0.5503790000000  0.5094100000000 1.0
C      1  0.4948950000000  0.5476400000000  0.5231540000000 1.0
C      1  0.4709360000000  0.5566780000000  0.5059300000000 1.0
C      1  0.5053500000000  0.4454560000000  0.4488730000000 1.0
C      1  0.5590690000000  0.4385180000000  0.4948860000000 1.0
C      1  0.5229870000000  0.4572170000000  0.5420320000000 1.0
C      1  0.4540690000000  0.4449740000000  0.5335770000000 1.0
C      1  0.4460130000000  0.4372300000000  0.4674870000000 1.0
C      1  0.4999470000000  0.5274380000000  0.4381690000000 1.0
C      1  0.5595160000000  0.5278690000000  0.4799680000000 1.0
C      1  0.5368510000000  0.5275720000000  0.5505070000000 1.0
C      1  0.4633490000000  0.5270940000000  0.5531950000000 1.0
C      1  0.4433160000000  0.5256330000000  0.4834710000000 1.0
C      1  0.4874040000000  0.5003930000000  0.4255910000000 1.0
C      1  0.5664030000000  0.5004300000000  0.4639600000000 1.0
C      1  0.5555360000000  0.5006870000000  0.5512570000000 1.0
C      1  0.4695820000000  0.5023590000000  0.5740870000000 1.0
C      1  0.4286490000000  0.4986100000000  0.4910380000000 1.0
C      1  0.5022040000000  0.4924360000000  0.5715640000000 1.0
C      1  0.4359790000000  0.4930730000000  0.5238340000000 1.0
C      1  0.4587490000000  0.4969860000000  0.4436030000000 1.0
C      1  0.5393920000000  0.4960840000000  0.4437680000000 1.0
C      1  0.5687650000000  0.4978930000000  0.5207980000000 1.0
C      1  0.5617670000000  0.5258920000000  0.5081830000000 1.0
C      1  0.5109670000000  0.5239410000000  0.5619970000000 1.0
C      1  0.4435390000000  0.5253630000000  0.5322830000000 1.0
C      1  0.4572980000000  0.5244730000000  0.4594160000000 1.0
C      1  0.5284860000000  0.5267730000000  0.4423180000000 1.0
C      1  0.4472050000000  0.4660550000000  0.4499610000000 1.0
C      1  0.5295440000000  0.4639520000000  0.4522560000000 1.0
C      1  0.5696810000000  0.4674480000000  0.5075170000000 1.0
C      1  0.5017110000000  0.4643110000000  0.5570180000000 1.0
C      1  0.4444360000000  0.4617050000000  0.5138000000000 1.0
C      1  0.4287160000000  0.4920960000000  0.4590940000000 1.0
C      1  0.5153050000000  0.4809710000000  0.4264790000000 1.0
C      1  0.5839410000000  0.4925230000000  0.4907860000000 1.0
C      1  0.5350260000000  0.4960710000000  0.5774410000000 1.0
C      1  0.4409300000000  0.4944940000000  0.5574380000000 1.0
C      1  0.5395360000000  0.4930360000000  0.4834480000000 1.0
C      1  0.5302090000000  0.4944090000000  0.5294450000000 1.0
C      1  0.4712450000000  0.4867250000000  0.5441430000000 1.0
C      1  0.4615450000000  0.4914290000000  0.4933500000000 1.0
C      1  0.4949220000000  0.4836020000000  0.4537350000000 1.0
C      1  0.4845110000000  0.5159460000000  0.4903800000000 1.0
C      1  0.5065310000000  0.4972490000000  0.4764410000000 1.0
C      1  0.5238860000000  0.5192750000000  0.4958190000000 1.0
C      1  0.5071580000000  0.5158850000000  0.5230900000000 1.0
C      1  0.4816970000000  0.4976700000000  0.5193490000000 1.0
END
