TITL C-1154801-8518-357 0.0035664240934849 125000 -292.825780292719 0 0 60 (C1) n - 1
REM
REM in /home/nfs/bkarasulu/CARBON/AIRSS/Generating-Clusters/AIREBO/Higher-Symm/Only-C60
REM
REM
REM
REM
REM
REM ./C.cell (28575a23ae977d3b5fae324c64b13b57)
REM
REM compiler GCC version 9.2.1 20190827 (Red Hat 9.2.1-1)
REM options -cpp -mtune=generic -march=x86-64 -g -O0 -fpre-include=/usr/include/finclude/math-vector-fortran.h
REM seed 239224929 551941642 -712118047 858557169 659533501 -667191707 -1776385525 1097343631 1943938716 -583914165 1295416384 -1137664499 -71766993 -1803541633 -1892249051 -948769088 -2060242596 -1418968125 -993174773 -995977888 -1268105119 738648483 284600997 1580992541 -764036631 -1559696541 -940224522 -189021416 -235743786 -302563044 -708615877 523214444 2014980004
REM
CELL 1.54180   50.00000   50.00000   50.00000   90.00000   90.00000   90.00000
LATT -1
SFAC C  
C      1  0.4820010000000  0.4395660000000  0.5146390000000 1.0
C      1  0.5677980000000  0.5134510000000  0.5128740000000 1.0
C      1  0.4556760000000  0.5510880000000  0.5115790000000 1.0
C      1  0.4789090000000  0.4377370000000  0.4829050000000 1.0
C      1  0.5649130000000  0.5180280000000  0.4821570000000 1.0
C      1  0.4473370000000  0.5483800000000  0.4814920000000 1.0
C      1  0.4866110000000  0.5652950000000  0.5125350000000 1.0
C      1  0.5692020000000  0.4800750000000  0.5171330000000 1.0
C      1  0.4522300000000  0.4545660000000  0.5072480000000 1.0
C      1  0.4784110000000  0.5622030000000  0.4809920000000 1.0
C      1  0.5641940000000  0.4838950000000  0.4863540000000 1.0
C      1  0.4492990000000  0.4516200000000  0.4752640000000 1.0
C      1  0.5504280000000  0.5420350000000  0.5192070000000 1.0
C      1  0.4417270000000  0.5208120000000  0.5184190000000 1.0
C      1  0.5153720000000  0.4462330000000  0.5158740000000 1.0
C      1  0.5441770000000  0.5448010000000  0.4789630000000 1.0
C      1  0.4366130000000  0.5161950000000  0.4792230000000 1.0
C      1  0.5119620000000  0.4461680000000  0.4845700000000 1.0
C      1  0.5479710000000  0.4547560000000  0.5216090000000 1.0
C      1  0.4423870000000  0.4863100000000  0.5152200000000 1.0
C      1  0.5187120000000  0.5540780000000  0.5141260000000 1.0
C      1  0.5443270000000  0.4571720000000  0.4792510000000 1.0
C      1  0.4362340000000  0.4820150000000  0.4832650000000 1.0
C      1  0.5116440000000  0.5548050000000  0.4833360000000 1.0
C      1  0.5059440000000  0.5370510000000  0.5607280000000 1.0
C      1  0.4604220000000  0.4805100000000  0.5503060000000 1.0
C      1  0.5338250000000  0.4764230000000  0.5529460000000 1.0
C      1  0.5069500000000  0.5338960000000  0.4400010000000 1.0
C      1  0.4624610000000  0.4850660000000  0.4532870000000 1.0
C      1  0.5290260000000  0.4819240000000  0.4518390000000 1.0
C      1  0.5079530000000  0.4665090000000  0.5630000000000 1.0
C      1  0.4638960000000  0.5090480000000  0.5489660000000 1.0
C      1  0.5314990000000  0.5251980000000  0.5524260000000 1.0
C      1  0.5053900000000  0.4659180000000  0.4404950000000 1.0
C      1  0.4638870000000  0.5140610000000  0.4503840000000 1.0
C      1  0.5308750000000  0.5185180000000  0.4521270000000 1.0
C      1  0.4609220000000  0.4656110000000  0.4333860000000 1.0
C      1  0.5511230000000  0.4896420000000  0.4320350000000 1.0
C      1  0.4883800000000  0.5409870000000  0.4222930000000 1.0
C      1  0.4622560000000  0.4612490000000  0.5700240000000 1.0
C      1  0.5531780000000  0.4882940000000  0.5692930000000 1.0
C      1  0.4839570000000  0.5416130000000  0.5766680000000 1.0
C      1  0.4636380000000  0.5305940000000  0.4282240000000 1.0
C      1  0.5549010000000  0.5166640000000  0.4298520000000 1.0
C      1  0.4857530000000  0.4576080000000  0.4243630000000 1.0
C      1  0.4611780000000  0.5279680000000  0.5692900000000 1.0
C      1  0.5520920000000  0.5157920000000  0.5686560000000 1.0
C      1  0.4879300000000  0.4549570000000  0.5781580000000 1.0
C      1  0.5253300000000  0.5173330000000  0.4858030000000 1.0
C      1  0.4703280000000  0.5161420000000  0.4837160000000 1.0
C      1  0.4964330000000  0.4717650000000  0.4724510000000 1.0
C      1  0.5286180000000  0.5159470000000  0.5196270000000 1.0
C      1  0.4755570000000  0.5173230000000  0.5181100000000 1.0
C      1  0.5008640000000  0.4704050000000  0.5313060000000 1.0
C      1  0.5244990000000  0.4840540000000  0.4856090000000 1.0
C      1  0.4700520000000  0.4836170000000  0.4864610000000 1.0
C      1  0.4972460000000  0.5285760000000  0.4712660000000 1.0
C      1  0.5295800000000  0.4833060000000  0.5197560000000 1.0
C      1  0.4759260000000  0.4833730000000  0.5200050000000 1.0
C      1  0.4999950000000  0.5317760000000  0.5289110000000 1.0
END
