TITL C-1154808-8168-511 -0.000650316369681622 125000 -328.261003675585 0 0 60 (C1) n - 1
REM
REM in /home/nfs/bkarasulu/CARBON/AIRSS/Generating-Clusters/AIREBO/Higher-Symm/Only-C60
REM
REM
REM
REM
REM
REM ./C.cell (28575a23ae977d3b5fae324c64b13b57)
REM
REM compiler GCC version 9.2.1 20190827 (Red Hat 9.2.1-1)
REM options -cpp -mtune=generic -march=x86-64 -g -O0 -fpre-include=/usr/include/finclude/math-vector-fortran.h
REM seed 714903743 -2086071722 420517521 -271762659 1779835891 -1851657626 -587924404 773945923 -1538218026 -182681932 1064671048 715641239 2059170399 -613351850 -1183636307 -1745243496 173172090 748574097 -551483269 -487660388 1155776745 892900481 280076208 1060864502 1253096883 563111517 1648537199 -1247976573 -865399630 -273297085 -1777441451 -1693268042 -672022571
REM
CELL 1.54180   50.00000   50.00000   50.00000   90.00000   90.00000   90.00000
LATT -1
SFAC C  
C      1  0.5192210000000  0.5252680000000  0.5208930000000 1.0
C      1  0.4732760000000  0.5083230000000  0.5259220000000 1.0
C      1  0.5220400000000  0.4465680000000  0.5229880000000 1.0
C      1  0.5202390000000  0.5150260000000  0.4827210000000 1.0
C      1  0.4780210000000  0.5084020000000  0.4741530000000 1.0
C      1  0.5043270000000  0.4678550000000  0.4857630000000 1.0
C      1  0.5037300000000  0.5390400000000  0.4974190000000 1.0
C      1  0.4669730000000  0.4905680000000  0.5009140000000 1.0
C      1  0.5307970000000  0.4732730000000  0.5038510000000 1.0
C      1  0.5649870000000  0.5035980000000  0.4439850000000 1.0
C      1  0.4621450000000  0.5639250000000  0.4437030000000 1.0
C      1  0.4612520000000  0.4357220000000  0.4497910000000 1.0
C      1  0.5228290000000  0.4447550000000  0.5628900000000 1.0
C      1  0.5317290000000  0.5365810000000  0.5589690000000 1.0
C      1  0.4452620000000  0.5067380000000  0.5593960000000 1.0
C      1  0.5195730000000  0.5619720000000  0.4805150000000 1.0
C      1  0.4420970000000  0.4928950000000  0.4783340000000 1.0
C      1  0.5407410000000  0.4535960000000  0.4779220000000 1.0
C      1  0.5761450000000  0.4862210000000  0.5074400000000 1.0
C      1  0.4741740000000  0.5778170000000  0.5058400000000 1.0
C      1  0.4441140000000  0.4443750000000  0.5116040000000 1.0
C      1  0.5155660000000  0.5000370000000  0.4539690000000 1.0
C      1  0.4922730000000  0.5246640000000  0.4512090000000 1.0
C      1  0.4929530000000  0.4747860000000  0.4568620000000 1.0
C      1  0.4636420000000  0.5517180000000  0.5244680000000 1.0
C      1  0.4737360000000  0.4410250000000  0.5283640000000 1.0
C      1  0.5636910000000  0.5066370000000  0.5318500000000 1.0
C      1  0.4725420000000  0.5431170000000  0.4333720000000 1.0
C      1  0.4802250000000  0.4496630000000  0.4399580000000 1.0
C      1  0.5418090000000  0.5089760000000  0.4345740000000 1.0
C      1  0.4511710000000  0.4613220000000  0.5402220000000 1.0
C      1  0.5666460000000  0.4751500000000  0.5381540000000 1.0
C      1  0.4890870000000  0.5684630000000  0.5349380000000 1.0
C      1  0.5633260000000  0.5235570000000  0.4915550000000 1.0
C      1  0.4488190000000  0.5466460000000  0.4818030000000 1.0
C      1  0.4824920000000  0.4344580000000  0.4836380000000 1.0
C      1  0.4785950000000  0.4622460000000  0.5028520000000 1.0
C      1  0.5404030000000  0.5039230000000  0.5072240000000 1.0
C      1  0.4724360000000  0.5301130000000  0.4998320000000 1.0
C      1  0.5051060000000  0.4209790000000  0.4847390000000 1.0
C      1  0.5652640000000  0.5497430000000  0.4919990000000 1.0
C      1  0.4244620000000  0.5367460000000  0.4786260000000 1.0
C      1  0.5045640000000  0.5198690000000  0.5479600000000 1.0
C      1  0.4922230000000  0.4913910000000  0.5485170000000 1.0
C      1  0.5141330000000  0.4719570000000  0.5444370000000 1.0
C      1  0.5467440000000  0.4618870000000  0.5497270000000 1.0
C      1  0.5083730000000  0.5540100000000  0.5462980000000 1.0
C      1  0.4602820000000  0.4831680000000  0.5540180000000 1.0
C      1  0.5680060000000  0.4958860000000  0.4761960000000 1.0
C      1  0.4697120000000  0.5702310000000  0.4756610000000 1.0
C      1  0.4510720000000  0.4431610000000  0.4812020000000 1.0
C      1  0.4206230000000  0.5096750000000  0.4768830000000 1.0
C      1  0.5271100000000  0.4344110000000  0.4951540000000 1.0
C      1  0.5457470000000  0.5679900000000  0.4860720000000 1.0
C      1  0.4966110000000  0.5565150000000  0.4623290000000 1.0
C      1  0.4602650000000  0.4719930000000  0.4663480000000 1.0
C      1  0.5408260000000  0.4806620000000  0.4659540000000 1.0
C      1  0.4509820000000  0.5285000000000  0.5420040000000 1.0
C      1  0.4987370000000  0.4352610000000  0.5427450000000 1.0
C      1  0.5560740000000  0.5269450000000  0.5532740000000 1.0
END
