TITL C-1154821-8623-466 0.000552513122874807 125000 -296.468513733759 0 0 60 (C1) n - 1
REM
REM in /home/nfs/bkarasulu/CARBON/AIRSS/Generating-Clusters/AIREBO/Higher-Symm/Only-C60
REM
REM
REM
REM
REM
REM ./C.cell (28575a23ae977d3b5fae324c64b13b57)
REM
REM compiler GCC version 9.2.1 20190827 (Red Hat 9.2.1-1)
REM options -cpp -mtune=generic -march=x86-64 -g -O0 -fpre-include=/usr/include/finclude/math-vector-fortran.h
REM seed 1574417359 1249526089 -755723406 -1533763863 -298523011 -2131983251 -969430124 2127451214 1358259259 -301172492 -270907078 -920389288 -179679364 -1856433230 -711110780 1571927960 1092875066 1599566593 568797599 461955964 -1997883766 -1756916404 -1767539638 612111498 521185089 -52801567 -2086578685 813656183 -1929104371 -810968375 -828655211 -2095423211 -1179965321
REM
CELL 1.54180   50.00000   50.00000   50.00000   90.00000   90.00000   90.00000
LATT -1
SFAC C  
C      1  0.4672320000000  0.5872420000000  0.4811710000000 1.0
C      1  0.5240220000000  0.5758210000000  0.4324130000000 1.0
C      1  0.5214120000000  0.5543850000000  0.4460160000000 1.0
C      1  0.5218770000000  0.5792080000000  0.5620370000000 1.0
C      1  0.5045200000000  0.5585850000000  0.5620390000000 1.0
C      1  0.4761680000000  0.5548340000000  0.5666700000000 1.0
C      1  0.4777500000000  0.5650680000000  0.4919500000000 1.0
C      1  0.5354870000000  0.5186680000000  0.5642630000000 1.0
C      1  0.4678830000000  0.5315000000000  0.5555280000000 1.0
C      1  0.4444560000000  0.5172440000000  0.4971370000000 1.0
C      1  0.4559820000000  0.5182650000000  0.4574600000000 1.0
C      1  0.5066140000000  0.5064520000000  0.4280210000000 1.0
C      1  0.5666620000000  0.5372310000000  0.4715700000000 1.0
C      1  0.5653840000000  0.5283930000000  0.5184660000000 1.0
C      1  0.4833330000000  0.4908060000000  0.4478540000000 1.0
C      1  0.5336740000000  0.5004620000000  0.4477400000000 1.0
C      1  0.5623580000000  0.5020940000000  0.4967080000000 1.0
C      1  0.5378430000000  0.5042660000000  0.5342640000000 1.0
C      1  0.4847220000000  0.5063390000000  0.5645240000000 1.0
C      1  0.4478180000000  0.5029670000000  0.5272000000000 1.0
C      1  0.4379420000000  0.4974570000000  0.4746520000000 1.0
C      1  0.4709850000000  0.4679100000000  0.4640250000000 1.0
C      1  0.5306340000000  0.4729940000000  0.4673370000000 1.0
C      1  0.5368800000000  0.4801200000000  0.4962150000000 1.0
C      1  0.5230970000000  0.4745440000000  0.5268150000000 1.0
C      1  0.4934090000000  0.4828410000000  0.5415080000000 1.0
C      1  0.4642150000000  0.4731600000000  0.5269930000000 1.0
C      1  0.4596370000000  0.4796770000000  0.4938960000000 1.0
C      1  0.5140990000000  0.4726410000000  0.5656940000000 1.0
C      1  0.4525270000000  0.4699780000000  0.5587620000000 1.0
C      1  0.4314490000000  0.4647550000000  0.5057170000000 1.0
C      1  0.4434180000000  0.4592990000000  0.4503970000000 1.0
C      1  0.5250060000000  0.4621580000000  0.4362910000000 1.0
C      1  0.5785550000000  0.4991690000000  0.4684780000000 1.0
C      1  0.5555900000000  0.4663380000000  0.5326140000000 1.0
C      1  0.5401330000000  0.5222100000000  0.4806420000000 1.0
C      1  0.5329730000000  0.5247840000000  0.5114130000000 1.0
C      1  0.5074300000000  0.5280410000000  0.5513450000000 1.0
C      1  0.4670410000000  0.5308990000000  0.5246990000000 1.0
C      1  0.4722190000000  0.5330980000000  0.4908210000000 1.0
C      1  0.4870640000000  0.5213160000000  0.4624780000000 1.0
C      1  0.5170420000000  0.5274970000000  0.4599430000000 1.0
C      1  0.4799790000000  0.4431730000000  0.5300580000000 1.0
C      1  0.4938330000000  0.4618030000000  0.5027180000000 1.0
C      1  0.4758530000000  0.4352730000000  0.4913110000000 1.0
C      1  0.4906430000000  0.4442540000000  0.4670390000000 1.0
C      1  0.5177340000000  0.4447560000000  0.4714560000000 1.0
C      1  0.5256730000000  0.4314890000000  0.4943010000000 1.0
C      1  0.5131890000000  0.4425990000000  0.5222190000000 1.0
C      1  0.4655120000000  0.4836200000000  0.5759260000000 1.0
C      1  0.4247950000000  0.4798350000000  0.5264680000000 1.0
C      1  0.4251490000000  0.4765180000000  0.4563450000000 1.0
C      1  0.5035520000000  0.4751990000000  0.4254090000000 1.0
C      1  0.5650010000000  0.5021740000000  0.4471270000000 1.0
C      1  0.5733360000000  0.4784850000000  0.5185770000000 1.0
C      1  0.5373120000000  0.4870700000000  0.5636150000000 1.0
C      1  0.5004490000000  0.5559760000000  0.5072970000000 1.0
C      1  0.4997230000000  0.5238650000000  0.5184630000000 1.0
C      1  0.4881840000000  0.4951520000000  0.5040530000000 1.0
C      1  0.4638890000000  0.4197940000000  0.5133190000000 1.0
END
