TITL C-1154823-9327-691 -9.77554736890569e-06 125000 -329.712184961185 0 0 60 (C1) n - 1
REM
REM in /home/nfs/bkarasulu/CARBON/AIRSS/Generating-Clusters/AIREBO/Higher-Symm/Only-C60
REM
REM
REM
REM
REM
REM ./C.cell (28575a23ae977d3b5fae324c64b13b57)
REM
REM compiler GCC version 9.2.1 20190827 (Red Hat 9.2.1-1)
REM options -cpp -mtune=generic -march=x86-64 -g -O0 -fpre-include=/usr/include/finclude/math-vector-fortran.h
REM seed 2073037770 183893270 635630231 578875478 989627897 1281884458 2014169968 1206606056 -1256618953 -782566520 1224317455 1638171291 -328864056 488119429 1310585200 -1854224401 -2035648531 -1228179251 512986469 -2051104436 -1328972448 2022510175 1864456563 -531260344 539479526 -453124764 -233320916 -21288297 -1345824097 545468604 700179031 2107900225 -551677101
REM
CELL 1.54180   50.00000   50.00000   50.00000   90.00000   90.00000   90.00000
LATT -1
SFAC C  
C      1  0.5091180000000  0.5242970000000  0.4906130000000 1.0
C      1  0.5132170000000  0.5175820000000  0.5221390000000 1.0
C      1  0.5055060000000  0.4852760000000  0.5219150000000 1.0
C      1  0.5007000000000  0.4759160000000  0.4938170000000 1.0
C      1  0.5052540000000  0.4977810000000  0.4738620000000 1.0
C      1  0.5374640000000  0.4855110000000  0.5276160000000 1.0
C      1  0.5466860000000  0.4740560000000  0.4601850000000 1.0
C      1  0.5383540000000  0.5051080000000  0.4712490000000 1.0
C      1  0.5409580000000  0.5288780000000  0.4956420000000 1.0
C      1  0.5529090000000  0.5149970000000  0.5205140000000 1.0
C      1  0.5483660000000  0.4773660000000  0.4317300000000 1.0
C      1  0.5418270000000  0.5231920000000  0.4435570000000 1.0
C      1  0.5512930000000  0.5533620000000  0.4805080000000 1.0
C      1  0.5488000000000  0.5273130000000  0.5497660000000 1.0
C      1  0.5430350000000  0.4817370000000  0.5578380000000 1.0
C      1  0.4786090000000  0.4602570000000  0.5562370000000 1.0
C      1  0.4827370000000  0.4331910000000  0.4772140000000 1.0
C      1  0.4808390000000  0.5012930000000  0.4302990000000 1.0
C      1  0.4876120000000  0.5579620000000  0.4925010000000 1.0
C      1  0.4776650000000  0.5319640000000  0.5604260000000 1.0
C      1  0.4490210000000  0.4811820000000  0.5214580000000 1.0
C      1  0.4529280000000  0.4723170000000  0.4915520000000 1.0
C      1  0.4540430000000  0.4986360000000  0.4743660000000 1.0
C      1  0.4519940000000  0.5222730000000  0.4948830000000 1.0
C      1  0.4364130000000  0.5089340000000  0.5177360000000 1.0
C      1  0.4819470000000  0.4331160000000  0.4490760000000 1.0
C      1  0.4837000000000  0.5281900000000  0.4219510000000 1.0
C      1  0.4877810000000  0.5788670000000  0.5110660000000 1.0
C      1  0.4714640000000  0.5174990000000  0.5832580000000 1.0
C      1  0.4804050000000  0.4351250000000  0.5444310000000 1.0
C      1  0.4859310000000  0.4511440000000  0.4289210000000 1.0
C      1  0.4837610000000  0.5495090000000  0.4395280000000 1.0
C      1  0.4800860000000  0.5778910000000  0.5373190000000 1.0
C      1  0.4761000000000  0.4927450000000  0.5936160000000 1.0
C      1  0.4881820000000  0.4188610000000  0.5241190000000 1.0
C      1  0.5471260000000  0.5074440000000  0.5691330000000 1.0
C      1  0.5421210000000  0.4576420000000  0.5704860000000 1.0
C      1  0.5452420000000  0.5039080000000  0.4227230000000 1.0
C      1  0.5486380000000  0.5493640000000  0.4523020000000 1.0
C      1  0.5586130000000  0.5765090000000  0.4929560000000 1.0
C      1  0.4761010000000  0.4834320000000  0.5366750000000 1.0
C      1  0.4794190000000  0.4588300000000  0.4883370000000 1.0
C      1  0.4798660000000  0.4997040000000  0.4582730000000 1.0
C      1  0.4793250000000  0.5302660000000  0.5058750000000 1.0
C      1  0.4839430000000  0.5156210000000  0.5362270000000 1.0
C      1  0.4194280000000  0.5205060000000  0.5336420000000 1.0
C      1  0.4300620000000  0.4618980000000  0.5360100000000 1.0
C      1  0.4296030000000  0.4545990000000  0.4823720000000 1.0
C      1  0.4295290000000  0.4992780000000  0.4556330000000 1.0
C      1  0.4371450000000  0.5461720000000  0.4828210000000 1.0
C      1  0.4742890000000  0.4676850000000  0.5827760000000 1.0
C      1  0.4853840000000  0.4135130000000  0.4972840000000 1.0
C      1  0.4805070000000  0.4758180000000  0.4182090000000 1.0
C      1  0.4902580000000  0.5574440000000  0.4647640000000 1.0
C      1  0.4815100000000  0.5592890000000  0.5571350000000 1.0
C      1  0.5905090000000  0.5025020000000  0.4899420000000 1.0
C      1  0.5833770000000  0.5103070000000  0.5151820000000 1.0
C      1  0.5498510000000  0.4633740000000  0.5085890000000 1.0
C      1  0.5511200000000  0.4570460000000  0.4820080000000 1.0
C      1  0.5723270000000  0.5045210000000  0.4697400000000 1.0
END
