TITL C-1154828-9214-235 0.000836915543718092 125000 -321.156608118213 0 0 60 (C1) n - 1
REM
REM in /home/nfs/bkarasulu/CARBON/AIRSS/Generating-Clusters/AIREBO/Higher-Symm/Only-C60
REM
REM
REM
REM
REM
REM ./C.cell (28575a23ae977d3b5fae324c64b13b57)
REM
REM compiler GCC version 9.2.1 20190827 (Red Hat 9.2.1-1)
REM options -cpp -mtune=generic -march=x86-64 -g -O0 -fpre-include=/usr/include/finclude/math-vector-fortran.h
REM seed -1375965718 -1177496822 -1513115083 -2146901564 -144393850 -1931787010 -1950657813 -589216726 -1565583258 -2123108983 1857078579 694154089 1445048785 2089267277 1041887706 -1340582686 -456896232 1207352737 1478482756 78093838 842237082 1788131867 -610599088 -1523121724 -290868887 -1846456080 -1501496044 -1310545726 966747414 -1696589832 -2029717568 -1325365909 931378377
REM
CELL 1.54180   50.00000   50.00000   50.00000   90.00000   90.00000   90.00000
LATT -1
SFAC C  
C      1  0.5437380000000  0.5563270000000  0.4940970000000 1.0
C      1  0.5452640000000  0.4433020000000  0.5069290000000 1.0
C      1  0.5368380000000  0.4907700000000  0.5460820000000 1.0
C      1  0.5389300000000  0.5091750000000  0.4485340000000 1.0
C      1  0.5207020000000  0.4744990000000  0.4819460000000 1.0
C      1  0.5234020000000  0.5254050000000  0.5200420000000 1.0
C      1  0.4773910000000  0.4773380000000  0.5530850000000 1.0
C      1  0.4804350000000  0.5182390000000  0.4473850000000 1.0
C      1  0.4908850000000  0.4813810000000  0.4706760000000 1.0
C      1  0.4918630000000  0.5227920000000  0.5279010000000 1.0
C      1  0.4545500000000  0.5521430000000  0.5060480000000 1.0
C      1  0.4621680000000  0.4497710000000  0.4891540000000 1.0
C      1  0.5456380000000  0.5617330000000  0.5232320000000 1.0
C      1  0.5421110000000  0.4378190000000  0.4778410000000 1.0
C      1  0.5554320000000  0.4662380000000  0.4647170000000 1.0
C      1  0.5597110000000  0.5328160000000  0.5342840000000 1.0
C      1  0.5183680000000  0.4479520000000  0.5491930000000 1.0
C      1  0.5116750000000  0.5570040000000  0.4561330000000 1.0
C      1  0.5702520000000  0.4895340000000  0.5089310000000 1.0
C      1  0.5698230000000  0.5095470000000  0.4879890000000 1.0
C      1  0.5584920000000  0.5005730000000  0.5328270000000 1.0
C      1  0.5588390000000  0.4980090000000  0.4637360000000 1.0
C      1  0.5182130000000  0.4272840000000  0.4701570000000 1.0
C      1  0.5237220000000  0.5728960000000  0.5348200000000 1.0
C      1  0.5641640000000  0.4644630000000  0.4976210000000 1.0
C      1  0.5632100000000  0.5342680000000  0.5003060000000 1.0
C      1  0.4737890000000  0.5342850000000  0.4766290000000 1.0
C      1  0.4731630000000  0.4718080000000  0.5205130000000 1.0
C      1  0.4618040000000  0.5073290000000  0.5567940000000 1.0
C      1  0.4582880000000  0.4926310000000  0.4508240000000 1.0
C      1  0.5044580000000  0.4949350000000  0.5423950000000 1.0
C      1  0.5099290000000  0.5065880000000  0.4596630000000 1.0
C      1  0.4408070000000  0.4731830000000  0.4767020000000 1.0
C      1  0.4359660000000  0.5295580000000  0.5205560000000 1.0
C      1  0.4781390000000  0.5046240000000  0.4848790000000 1.0
C      1  0.4791260000000  0.5001860000000  0.5120120000000 1.0
C      1  0.4735940000000  0.4721620000000  0.4327410000000 1.0
C      1  0.4789590000000  0.5257940000000  0.5701730000000 1.0
C      1  0.4917120000000  0.4509670000000  0.5059590000000 1.0
C      1  0.4881680000000  0.5525870000000  0.5015410000000 1.0
C      1  0.4330660000000  0.5040820000000  0.4687930000000 1.0
C      1  0.4374890000000  0.5095230000000  0.5404630000000 1.0
C      1  0.4432890000000  0.4690430000000  0.5103690000000 1.0
C      1  0.4430650000000  0.5254850000000  0.4875540000000 1.0
C      1  0.4943270000000  0.5483530000000  0.4402270000000 1.0
C      1  0.4997190000000  0.4554670000000  0.5642010000000 1.0
C      1  0.5203040000000  0.4540210000000  0.5190390000000 1.0
C      1  0.5163350000000  0.5471500000000  0.4851380000000 1.0
C      1  0.4262940000000  0.4841370000000  0.5314800000000 1.0
C      1  0.4063250000000  0.5090620000000  0.4557800000000 1.0
C      1  0.4968590000000  0.5560180000000  0.5331780000000 1.0
C      1  0.4924350000000  0.4474360000000  0.4721400000000 1.0
C      1  0.5165290000000  0.5138910000000  0.4902700000000 1.0
C      1  0.5168440000000  0.4870480000000  0.5117290000000 1.0
C      1  0.4533560000000  0.4625460000000  0.5655900000000 1.0
C      1  0.4798510000000  0.5136530000000  0.4161800000000 1.0
C      1  0.5021000000000  0.5399530000000  0.5623530000000 1.0
C      1  0.4955740000000  0.4568990000000  0.4396280000000 1.0
C      1  0.5287470000000  0.5355250000000  0.5481080000000 1.0
C      1  0.5237740000000  0.4627930000000  0.4527320000000 1.0
END
