TITL C-1154802-8274-537 130.054769681088 125000 -286.207900375783 0 0 60 (C4) n - 1
REM
REM in /home/nfs/bkarasulu/CARBON/AIRSS/Generating-Clusters/AIREBO/Higher-Symm/Only-C60
REM
REM
REM
REM
REM
REM ./C.cell (28575a23ae977d3b5fae324c64b13b57)
REM
REM compiler GCC version 9.2.1 20190827 (Red Hat 9.2.1-1)
REM options -cpp -mtune=generic -march=x86-64 -g -O0 -fpre-include=/usr/include/finclude/math-vector-fortran.h
REM seed 1348043741 -1775876257 1238425623 -161198165 -1153113553 1681897523 2044552553 339131952 -1677590735 -277526508 -1556557148 -1766157439 -280755053 123253091 974483180 1259770748 48124321 -2094821116 855342634 -1644927240 -667639832 -337140123 586110590 -1545931241 768728771 1579672665 115592962 -764923362 -371016821 1257012604 1449213961 419597353 1726851496
REM
CELL 1.54180   50.00000   50.00000   50.00000   90.00000   90.00000   90.00000
LATT -1
SFAC C  
C      1  0.5497540000000  0.4826710000000  0.4587790000000 1.0
C      1  0.5497500000000  0.4587780000000  0.5173370000000 1.0
C      1  0.5497450000000  0.5173360000000  0.5412300000000 1.0
C      1  0.5497480000000  0.5412290000000  0.4826720000000 1.0
C      1  0.5515780000000  0.5170660000000  0.4583210000000 1.0
C      1  0.5515720000000  0.5416870000000  0.5170670000000 1.0
C      1  0.5515740000000  0.4829410000000  0.5416890000000 1.0
C      1  0.5515800000000  0.4583210000000  0.4829430000000 1.0
C      1  0.5305670000000  0.4748020000000  0.5687780000000 1.0
C      1  0.5305630000000  0.5687760000000  0.5252030000000 1.0
C      1  0.5305740000000  0.5252030000000  0.4312280000000 1.0
C      1  0.5305770000000  0.4312290000000  0.4748030000000 1.0
C      1  0.5289030000000  0.5261170000000  0.5679870000000 1.0
C      1  0.5289130000000  0.4320180000000  0.5261170000000 1.0
C      1  0.5289200000000  0.4738880000000  0.4320180000000 1.0
C      1  0.5289090000000  0.5679870000000  0.4738890000000 1.0
C      1  0.5158980000000  0.5160610000000  0.5382250000000 1.0
C      1  0.5159010000000  0.5382250000000  0.4839410000000 1.0
C      1  0.5159070000000  0.4839410000000  0.4617780000000 1.0
C      1  0.5159040000000  0.4617790000000  0.5160620000000 1.0
C      1  0.5177100000000  0.4839460000000  0.5387650000000 1.0
C      1  0.5177170000000  0.4612400000000  0.4839470000000 1.0
C      1  0.5177150000000  0.5160560000000  0.4612390000000 1.0
C      1  0.5177090000000  0.5387630000000  0.5160560000000 1.0
C      1  0.4660140000000  0.5238350000000  0.5618320000000 1.0
C      1  0.4660200000000  0.5618340000000  0.4761600000000 1.0
C      1  0.4660290000000  0.4761600000000  0.4381610000000 1.0
C      1  0.4660230000000  0.4381630000000  0.5238330000000 1.0
C      1  0.4681580000000  0.4752100000000  0.5617150000000 1.0
C      1  0.4681670000000  0.4382830000000  0.4752110000000 1.0
C      1  0.4681640000000  0.5247840000000  0.4382820000000 1.0
C      1  0.4681540000000  0.5617120000000  0.5247830000000 1.0
C      1  0.4829340000000  0.5144790000000  0.5359640000000 1.0
C      1  0.4829360000000  0.5359640000000  0.4855170000000 1.0
C      1  0.4829420000000  0.4855180000000  0.4640330000000 1.0
C      1  0.4829390000000  0.4640350000000  0.5144800000000 1.0
C      1  0.4858700000000  0.4842850000000  0.5364110000000 1.0
C      1  0.4858770000000  0.4635900000000  0.4842850000000 1.0
C      1  0.4858750000000  0.5157130000000  0.4635890000000 1.0
C      1  0.4858690000000  0.5364080000000  0.5157120000000 1.0
C      1  0.4966840000000  0.4258360000000  0.4779960000000 1.0
C      1  0.4966730000000  0.4779940000000  0.5741660000000 1.0
C      1  0.4966700000000  0.5741640000000  0.5220040000000 1.0
C      1  0.4966820000000  0.5220040000000  0.4258350000000 1.0
C      1  0.4952710000000  0.5732350000000  0.4791410000000 1.0
C      1  0.4952660000000  0.5208590000000  0.5732340000000 1.0
C      1  0.4952770000000  0.4267650000000  0.5208570000000 1.0
C      1  0.4952830000000  0.4791410000000  0.4267640000000 1.0
C      1  0.4460740000000  0.5156280000000  0.4624840000000 1.0
C      1  0.4460760000000  0.4624860000000  0.4843630000000 1.0
C      1  0.4460690000000  0.4843650000000  0.5375040000000 1.0
C      1  0.4460680000000  0.5375060000000  0.5156270000000 1.0
C      1  0.4433370000000  0.4840100000000  0.4622730000000 1.0
C      1  0.4433310000000  0.5377180000000  0.4840090000000 1.0
C      1  0.4433280000000  0.5159820000000  0.5377180000000 1.0
C      1  0.4433340000000  0.4622730000000  0.5159800000000 1.0
C      1  0.5184020000000  0.4124860000000  0.5004260000000 1.0
C      1  0.5183880000000  0.5004260000000  0.5875170000000 1.0
C      1  0.5183900000000  0.5875170000000  0.4995770000000 1.0
C      1  0.5184040000000  0.4995770000000  0.4124860000000 1.0
END
