TITL C-1154816-9297-669 -3.3368095560858e-05 125000 -354.359716310264 0 0 60 (C2h) n - 1
REM
REM in /home/nfs/bkarasulu/CARBON/AIRSS/Generating-Clusters/AIREBO/Higher-Symm/Only-C60
REM
REM
REM
REM
REM
REM ./C.cell (28575a23ae977d3b5fae324c64b13b57)
REM
REM compiler GCC version 9.2.1 20190827 (Red Hat 9.2.1-1)
REM options -cpp -mtune=generic -march=x86-64 -g -O0 -fpre-include=/usr/include/finclude/math-vector-fortran.h
REM seed 744424542 -1535890794 2051812880 -1527226961 1360816815 -217172121 -935553291 -1617042399 1155109202 -1940502872 -1165392520 1205635490 -1330455615 1077866896 -770959147 1756325269 -642272191 -846751956 -1070746104 -1096267009 1678716767 -1356595752 -47009691 -2137126007 767029272 -688991005 2142855884 -1872481004 -1161630985 -1287081503 245899542 668913834 296686210
REM
CELL 1.54180   50.00000   50.00000   50.00000   90.00000   90.00000   90.00000
LATT -1
SFAC C  
C      1  0.4293490000000  0.5402500000000  0.5129420000000 1.0
C      1  0.5748200000000  0.5279100000000  0.4867980000000 1.0
C      1  0.4251800000000  0.4720900000000  0.5132020000000 1.0
C      1  0.5706510000000  0.4597500000000  0.4870580000000 1.0
C      1  0.4293590000000  0.5401650000000  0.4867430000000 1.0
C      1  0.5748110000000  0.5279960000000  0.5130740000000 1.0
C      1  0.4251890000000  0.4720040000000  0.4869260000000 1.0
C      1  0.5706410000000  0.4598350000000  0.5132570000000 1.0
C      1  0.5302930000000  0.5085850000000  0.4450860000000 1.0
C      1  0.4743790000000  0.5213400000000  0.5531060000000 1.0
C      1  0.5256210000000  0.4786600000000  0.4468940000000 1.0
C      1  0.4697070000000  0.4914150000000  0.5549140000000 1.0
C      1  0.5302520000000  0.5089430000000  0.5548790000000 1.0
C      1  0.4744180000000  0.5209930000000  0.4467370000000 1.0
C      1  0.5255820000000  0.4790070000000  0.5532630000000 1.0
C      1  0.4697480000000  0.4910570000000  0.4451210000000 1.0
C      1  0.4198080000000  0.4938560000000  0.5355440000000 1.0
C      1  0.5777920000000  0.4793960000000  0.4634480000000 1.0
C      1  0.4222080000000  0.5206040000000  0.5365520000000 1.0
C      1  0.5801920000000  0.5061440000000  0.4644560000000 1.0
C      1  0.4198340000000  0.4936240000000  0.4644380000000 1.0
C      1  0.5777650000000  0.4796350000000  0.5367430000000 1.0
C      1  0.4222350000000  0.5203650000000  0.4632570000000 1.0
C      1  0.5801660000000  0.5063760000000  0.5355620000000 1.0
C      1  0.5180080000000  0.4178120000000  0.4625460000000 1.0
C      1  0.5234900000000  0.4430640000000  0.5362450000000 1.0
C      1  0.4765100000000  0.5569360000000  0.4637550000000 1.0
C      1  0.4819920000000  0.5821880000000  0.5374540000000 1.0
C      1  0.5179800000000  0.4180590000000  0.5380030000000 1.0
C      1  0.5235160000000  0.4428290000000  0.4641450000000 1.0
C      1  0.4764840000000  0.5571710000000  0.5358550000000 1.0
C      1  0.4820200000000  0.5819410000000  0.4619970000000 1.0
C      1  0.4497400000000  0.5389740000000  0.4601220000000 1.0
C      1  0.5529180000000  0.5249430000000  0.5376530000000 1.0
C      1  0.4470820000000  0.4750570000000  0.4623470000000 1.0
C      1  0.5502600000000  0.4610260000000  0.5398780000000 1.0
C      1  0.4497100000000  0.5392340000000  0.5395850000000 1.0
C      1  0.5529450000000  0.5246970000000  0.4622240000000 1.0
C      1  0.4470550000000  0.4753030000000  0.5377760000000 1.0
C      1  0.5502900000000  0.4607660000000  0.4604150000000 1.0
C      1  0.5080910000000  0.4694650000000  0.4742760000000 1.0
C      1  0.4781800000000  0.4770470000000  0.5262800000000 1.0
C      1  0.5218200000000  0.5229530000000  0.4737200000000 1.0
C      1  0.4919090000000  0.5305350000000  0.5257240000000 1.0
C      1  0.5080720000000  0.4696340000000  0.5259280000000 1.0
C      1  0.4781990000000  0.4768750000000  0.4738550000000 1.0
C      1  0.5218010000000  0.5231250000000  0.5261450000000 1.0
C      1  0.4919280000000  0.5303660000000  0.4740720000000 1.0
C      1  0.4919790000000  0.5307780000000  0.5769860000000 1.0
C      1  0.5163960000000  0.5234870000000  0.4218240000000 1.0
C      1  0.4836040000000  0.4765130000000  0.5781760000000 1.0
C      1  0.5080210000000  0.4692220000000  0.4230140000000 1.0
C      1  0.4920360000000  0.5302750000000  0.4228090000000 1.0
C      1  0.5163380000000  0.5239970000000  0.5780330000000 1.0
C      1  0.4836620000000  0.4760030000000  0.4219670000000 1.0
C      1  0.5079640000000  0.4697250000000  0.5771910000000 1.0
C      1  0.4751180000000  0.4924120000000  0.5000160000000 1.0
C      1  0.5182910000000  0.4812910000000  0.5000680000000 1.0
C      1  0.4817090000000  0.5187090000000  0.4999320000000 1.0
C      1  0.5248820000000  0.5075880000000  0.4999840000000 1.0
END
