TITL C-1154829-9094-386 0.00262511017073381 125000 -312.765642771293 0 0 60 (C1) n - 1
REM
REM in /home/nfs/bkarasulu/CARBON/AIRSS/Generating-Clusters/AIREBO/Higher-Symm/Only-C60
REM
REM
REM
REM
REM
REM ./C.cell (28575a23ae977d3b5fae324c64b13b57)
REM
REM compiler GCC version 9.2.1 20190827 (Red Hat 9.2.1-1)
REM options -cpp -mtune=generic -march=x86-64 -g -O0 -fpre-include=/usr/include/finclude/math-vector-fortran.h
REM seed -1828282551 -1700041720 1219758789 274335064 1471377449 419049646 -1434818831 1680706022 -1460858018 524021355 608271249 895663934 2073909886 -931501272 1293764173 -1261951235 -1931372604 -2063504876 -1635616848 808625205 778403234 -574333592 -853928864 -1283599647 -758682805 -2064792848 -191288168 -103223614 -655282904 44341066 441250630 195389315 301752846
REM
CELL 1.54180   50.00000   50.00000   50.00000   90.00000   90.00000   90.00000
LATT -1
SFAC C  
C      1  0.5293220000000  0.5142420000000  0.4478070000000 1.0
C      1  0.4976860000000  0.4517650000000  0.5275690000000 1.0
C      1  0.4550960000000  0.5345760000000  0.5040830000000 1.0
C      1  0.4685890000000  0.5108240000000  0.5470280000000 1.0
C      1  0.4749960000000  0.4951580000000  0.4494720000000 1.0
C      1  0.5259520000000  0.4963660000000  0.5484310000000 1.0
C      1  0.5036210000000  0.4504070000000  0.4774390000000 1.0
C      1  0.5033410000000  0.5409290000000  0.5272750000000 1.0
C      1  0.4960830000000  0.5426750000000  0.4763630000000 1.0
C      1  0.5429520000000  0.5199940000000  0.5004890000000 1.0
C      1  0.5427460000000  0.4644990000000  0.5054260000000 1.0
C      1  0.4583410000000  0.4794440000000  0.5012730000000 1.0
C      1  0.4521810000000  0.5079440000000  0.5187750000000 1.0
C      1  0.5188120000000  0.4457180000000  0.5057670000000 1.0
C      1  0.5004980000000  0.5171060000000  0.4562780000000 1.0
C      1  0.5516970000000  0.5169110000000  0.4714760000000 1.0
C      1  0.4519180000000  0.4832610000000  0.4714620000000 1.0
C      1  0.5418050000000  0.4935860000000  0.5184290000000 1.0
C      1  0.4807440000000  0.4567230000000  0.5006590000000 1.0
C      1  0.5190510000000  0.5392030000000  0.4995900000000 1.0
C      1  0.4812540000000  0.5498280000000  0.5056100000000 1.0
C      1  0.4983200000000  0.5147720000000  0.5409870000000 1.0
C      1  0.5067400000000  0.4706220000000  0.5513210000000 1.0
C      1  0.4937780000000  0.4695100000000  0.4528930000000 1.0
C      1  0.4308390000000  0.5258820000000  0.4632490000000 1.0
C      1  0.5221680000000  0.4642470000000  0.4450180000000 1.0
C      1  0.4494010000000  0.4357960000000  0.5278050000000 1.0
C      1  0.5672480000000  0.5266700000000  0.5435420000000 1.0
C      1  0.5634690000000  0.4790350000000  0.4647990000000 1.0
C      1  0.4349310000000  0.4756720000000  0.5461100000000 1.0
C      1  0.4786720000000  0.4633790000000  0.5605000000000 1.0
C      1  0.4755000000000  0.5346440000000  0.4433760000000 1.0
C      1  0.5302950000000  0.5457620000000  0.5667050000000 1.0
C      1  0.5530740000000  0.4339870000000  0.4707460000000 1.0
C      1  0.5451830000000  0.5641930000000  0.5254110000000 1.0
C      1  0.4506320000000  0.5676660000000  0.4709010000000 1.0
C      1  0.4507140000000  0.5185250000000  0.4449000000000 1.0
C      1  0.4393170000000  0.4617340000000  0.5216130000000 1.0
C      1  0.5279070000000  0.4367900000000  0.4578180000000 1.0
C      1  0.5446150000000  0.5218950000000  0.5606140000000 1.0
C      1  0.4594450000000  0.4836620000000  0.5578000000000 1.0
C      1  0.5403010000000  0.4851930000000  0.4499690000000 1.0
C      1  0.5602860000000  0.4583810000000  0.4841430000000 1.0
C      1  0.4390030000000  0.5443910000000  0.4832280000000 1.0
C      1  0.5594050000000  0.5398460000000  0.5192350000000 1.0
C      1  0.4730240000000  0.4370650000000  0.5435670000000 1.0
C      1  0.5224500000000  0.5588840000000  0.5425410000000 1.0
C      1  0.4751210000000  0.5612210000000  0.4579560000000 1.0
C      1  0.4274430000000  0.4792370000000  0.4626990000000 1.0
C      1  0.5462390000000  0.4799130000000  0.5677020000000 1.0
C      1  0.5354170000000  0.5283580000000  0.4243150000000 1.0
C      1  0.4587970000000  0.5319640000000  0.5633040000000 1.0
C      1  0.5718240000000  0.4834830000000  0.5249800000000 1.0
C      1  0.5771930000000  0.5165670000000  0.4651040000000 1.0
C      1  0.4214520000000  0.5067880000000  0.5253000000000 1.0
C      1  0.4704550000000  0.4300190000000  0.4863930000000 1.0
C      1  0.4723620000000  0.4891480000000  0.4186870000000 1.0
C      1  0.5281400000000  0.4165370000000  0.5088500000000 1.0
C      1  0.4762540000000  0.5800140000000  0.5090260000000 1.0
C      1  0.5259030000000  0.5673900000000  0.4861920000000 1.0
END
