TITL C-1154804-8633-248 0.000573488286568374 125000 -326.352802068221 0 0 60 (C1) n - 1
REM
REM in /home/nfs/bkarasulu/CARBON/AIRSS/Generating-Clusters/AIREBO/Higher-Symm/Only-C60
REM
REM
REM
REM
REM
REM ./C.cell (28575a23ae977d3b5fae324c64b13b57)
REM
REM compiler GCC version 9.2.1 20190827 (Red Hat 9.2.1-1)
REM options -cpp -mtune=generic -march=x86-64 -g -O0 -fpre-include=/usr/include/finclude/math-vector-fortran.h
REM seed -1319693584 -1368611112 913212704 -652123691 355322176 609278838 -97565832 -417383423 -979022184 -535029386 334904858 -423313710 11674271 946789381 -210595375 -451002252 -1668766051 1376992984 1352357400 1089360702 -1989970983 -900175889 -1701542104 -233814551 156993526 1950712140 101627411 1170159752 -124429057 1112749401 -1550753756 -1600561035 1320810809
REM
CELL 1.54180   50.00000   50.00000   50.00000   90.00000   90.00000   90.00000
LATT -1
SFAC C  
C      1  0.5373620000000  0.5207820000000  0.4402890000000 1.0
C      1  0.4463070000000  0.5216290000000  0.4647980000000 1.0
C      1  0.4516320000000  0.5294540000000  0.5660430000000 1.0
C      1  0.5594560000000  0.5259130000000  0.5441240000000 1.0
C      1  0.5448360000000  0.4688000000000  0.4481850000000 1.0
C      1  0.4334920000000  0.4728480000000  0.4610710000000 1.0
C      1  0.4617360000000  0.4792080000000  0.5458460000000 1.0
C      1  0.5641430000000  0.4727910000000  0.5419210000000 1.0
C      1  0.5294060000000  0.4685560000000  0.5235110000000 1.0
C      1  0.5165560000000  0.4705730000000  0.4761910000000 1.0
C      1  0.4785480000000  0.4873380000000  0.4816820000000 1.0
C      1  0.4975450000000  0.4655210000000  0.5262750000000 1.0
C      1  0.5247190000000  0.5252560000000  0.5248740000000 1.0
C      1  0.5148080000000  0.5222230000000  0.4732430000000 1.0
C      1  0.4886900000000  0.5132990000000  0.4931020000000 1.0
C      1  0.4760900000000  0.5262160000000  0.5219270000000 1.0
C      1  0.4309170000000  0.5295580000000  0.4867140000000 1.0
C      1  0.4820800000000  0.5355260000000  0.5668000000000 1.0
C      1  0.5651680000000  0.5265250000000  0.5137070000000 1.0
C      1  0.5132660000000  0.5262020000000  0.4216110000000 1.0
C      1  0.4188180000000  0.4687070000000  0.4852750000000 1.0
C      1  0.4830860000000  0.4644570000000  0.5634730000000 1.0
C      1  0.5670080000000  0.4734680000000  0.5109480000000 1.0
C      1  0.5180910000000  0.4622790000000  0.4374490000000 1.0
C      1  0.4813740000000  0.5140280000000  0.4254340000000 1.0
C      1  0.4250660000000  0.5103980000000  0.5146080000000 1.0
C      1  0.5161940000000  0.5351200000000  0.5693460000000 1.0
C      1  0.5692740000000  0.5159120000000  0.4809850000000 1.0
C      1  0.4728400000000  0.4847000000000  0.4311380000000 1.0
C      1  0.4286310000000  0.4806800000000  0.5095870000000 1.0
C      1  0.5170570000000  0.4637320000000  0.5621670000000 1.0
C      1  0.5760430000000  0.4844900000000  0.4835540000000 1.0
C      1  0.5094350000000  0.4430230000000  0.4855780000000 1.0
C      1  0.4792020000000  0.4347090000000  0.4886140000000 1.0
C      1  0.4910370000000  0.4328190000000  0.5192160000000 1.0
C      1  0.5228830000000  0.4383070000000  0.5122120000000 1.0
C      1  0.5203640000000  0.5543660000000  0.4842780000000 1.0
C      1  0.4889820000000  0.5472020000000  0.4905340000000 1.0
C      1  0.4894390000000  0.5578530000000  0.5212320000000 1.0
C      1  0.5195410000000  0.5540700000000  0.5148250000000 1.0
C      1  0.4752070000000  0.4649870000000  0.5018220000000 1.0
C      1  0.5002210000000  0.4896210000000  0.5485880000000 1.0
C      1  0.5380650000000  0.4828530000000  0.4957750000000 1.0
C      1  0.4925760000000  0.4783720000000  0.4533830000000 1.0
C      1  0.4463000000000  0.5364560000000  0.5147440000000 1.0
C      1  0.5007340000000  0.5184610000000  0.5440480000000 1.0
C      1  0.5388040000000  0.5143450000000  0.4960060000000 1.0
C      1  0.4959510000000  0.5334850000000  0.4492030000000 1.0
C      1  0.4483380000000  0.4723760000000  0.4339210000000 1.0
C      1  0.4518440000000  0.4697180000000  0.5210660000000 1.0
C      1  0.5449610000000  0.4603750000000  0.5610240000000 1.0
C      1  0.5700810000000  0.4688640000000  0.4603590000000 1.0
C      1  0.4626200000000  0.5341170000000  0.4457550000000 1.0
C      1  0.4298310000000  0.5294420000000  0.5428880000000 1.0
C      1  0.5441710000000  0.5383400000000  0.5651860000000 1.0
C      1  0.5617690000000  0.5281850000000  0.4516320000000 1.0
C      1  0.4527370000000  0.4944050000000  0.4669230000000 1.0
C      1  0.5282200000000  0.4957840000000  0.4565720000000 1.0
C      1  0.4624980000000  0.5071500000000  0.5465950000000 1.0
C      1  0.5439460000000  0.4981230000000  0.5321440000000 1.0
END
