TITL C-1154827-9204-354 0.00175605521636489 125000 -341.138457045334 0 0 60 (C1) n - 1
REM
REM in /home/nfs/bkarasulu/CARBON/AIRSS/Generating-Clusters/AIREBO/Higher-Symm/Only-C60
REM
REM
REM
REM
REM
REM ./C.cell (28575a23ae977d3b5fae324c64b13b57)
REM
REM compiler GCC version 9.2.1 20190827 (Red Hat 9.2.1-1)
REM options -cpp -mtune=generic -march=x86-64 -g -O0 -fpre-include=/usr/include/finclude/math-vector-fortran.h
REM seed 685030408 -100501442 -2054574697 -1578677479 1928793055 -1396578949 2119349941 -489615304 1876946677 231628080 -1109441629 -1828882103 1473198076 321093463 -1419732726 -588700101 792005349 -1098950316 -962628082 -1959154593 517616739 -1907122572 -64638853 -794414787 -724253897 292452582 -1082570040 2131861206 -379919318 559708216 -1701263352 820787831 1857885918
REM
CELL 1.54180   50.00000   50.00000   50.00000   90.00000   90.00000   90.00000
LATT -1
SFAC C  
C      1  0.4601650000000  0.5712230000000  0.5174120000000 1.0
C      1  0.4324350000000  0.4978960000000  0.5130940000000 1.0
C      1  0.4693870000000  0.4330770000000  0.5164300000000 1.0
C      1  0.5365460000000  0.4332710000000  0.5174360000000 1.0
C      1  0.5685940000000  0.5051090000000  0.5133950000000 1.0
C      1  0.5269620000000  0.5638020000000  0.5132350000000 1.0
C      1  0.5366400000000  0.5594580000000  0.4867960000000 1.0
C      1  0.5698280000000  0.4953520000000  0.4865290000000 1.0
C      1  0.5378970000000  0.4363160000000  0.4835920000000 1.0
C      1  0.4622870000000  0.4350060000000  0.4880200000000 1.0
C      1  0.4331420000000  0.5083650000000  0.4864850000000 1.0
C      1  0.4583930000000  0.5708320000000  0.4834480000000 1.0
C      1  0.4792430000000  0.5218870000000  0.4413020000000 1.0
C      1  0.4727860000000  0.4940450000000  0.4461960000000 1.0
C      1  0.4922830000000  0.4734610000000  0.4467940000000 1.0
C      1  0.5199920000000  0.4812380000000  0.4433870000000 1.0
C      1  0.5275400000000  0.5089420000000  0.4440990000000 1.0
C      1  0.5072340000000  0.5283070000000  0.4446660000000 1.0
C      1  0.5192790000000  0.5209820000000  0.5546250000000 1.0
C      1  0.5254480000000  0.4933720000000  0.5528370000000 1.0
C      1  0.5061890000000  0.4723830000000  0.5571150000000 1.0
C      1  0.4789170000000  0.4796500000000  0.5546230000000 1.0
C      1  0.4729800000000  0.5071330000000  0.5543680000000 1.0
C      1  0.4918470000000  0.5286510000000  0.5588460000000 1.0
C      1  0.5563370000000  0.5402190000000  0.4867800000000 1.0
C      1  0.4880700000000  0.5602670000000  0.4869240000000 1.0
C      1  0.4446570000000  0.5337200000000  0.4857240000000 1.0
C      1  0.4467490000000  0.4621600000000  0.4852870000000 1.0
C      1  0.5060060000000  0.4358900000000  0.4889510000000 1.0
C      1  0.5609810000000  0.4688520000000  0.4849870000000 1.0
C      1  0.4562140000000  0.5400870000000  0.5121920000000 1.0
C      1  0.4993360000000  0.5661410000000  0.5138470000000 1.0
C      1  0.5613220000000  0.5316150000000  0.5133730000000 1.0
C      1  0.5510120000000  0.4613930000000  0.5117730000000 1.0
C      1  0.4971760000000  0.4294630000000  0.5168910000000 1.0
C      1  0.4378670000000  0.4703630000000  0.5139400000000 1.0
C      1  0.4796760000000  0.4708310000000  0.4851580000000 1.0
C      1  0.5134930000000  0.4676300000000  0.4800930000000 1.0
C      1  0.5303400000000  0.4942320000000  0.4809400000000 1.0
C      1  0.5177180000000  0.5244930000000  0.4830570000000 1.0
C      1  0.4856390000000  0.5283360000000  0.4798720000000 1.0
C      1  0.4727140000000  0.5033130000000  0.4850620000000 1.0
C      1  0.5187900000000  0.4688420000000  0.5196630000000 1.0
C      1  0.4880470000000  0.4683620000000  0.5174720000000 1.0
C      1  0.4723020000000  0.4964240000000  0.5158570000000 1.0
C      1  0.4858920000000  0.5265400000000  0.5197290000000 1.0
C      1  0.5156000000000  0.5255640000000  0.5151610000000 1.0
C      1  0.5293040000000  0.4979750000000  0.5117040000000 1.0
C      1  0.4601370000000  0.4596140000000  0.5345610000000 1.0
C      1  0.5144180000000  0.4432420000000  0.5416110000000 1.0
C      1  0.5515260000000  0.4862640000000  0.5346410000000 1.0
C      1  0.5378290000000  0.5413830000000  0.5347250000000 1.0
C      1  0.4820330000000  0.5543910000000  0.5388560000000 1.0
C      1  0.4502010000000  0.5151450000000  0.5336960000000 1.0
C      1  0.5407220000000  0.4614140000000  0.4606930000000 1.0
C      1  0.4849350000000  0.4448820000000  0.4638170000000 1.0
C      1  0.4485040000000  0.4886050000000  0.4662570000000 1.0
C      1  0.4625840000000  0.5443760000000  0.4607020000000 1.0
C      1  0.5131640000000  0.5530690000000  0.4651400000000 1.0
C      1  0.5526920000000  0.5151440000000  0.4661330000000 1.0
END
