TITL C-1154823-9327-433 -0.000897353923777962 125000 -297.491919819944 0 0 60 (C2) n - 1
REM
REM in /home/nfs/bkarasulu/CARBON/AIRSS/Generating-Clusters/AIREBO/Higher-Symm/Only-C60
REM
REM
REM
REM
REM
REM ./C.cell (28575a23ae977d3b5fae324c64b13b57)
REM
REM compiler GCC version 9.2.1 20190827 (Red Hat 9.2.1-1)
REM options -cpp -mtune=generic -march=x86-64 -g -O0 -fpre-include=/usr/include/finclude/math-vector-fortran.h
REM seed -1716275325 -858682128 -241864492 418074752 -1910376289 -236892715 1411377718 939045889 -1178539025 1103151798 -1148995740 -2056891782 2067242517 -1006504499 2087621067 1132603607 -1628544880 -1347013045 -256964351 1810249599 1114136795 -1433473702 -1387286639 -259624957 270778704 424295440 -371225574 -1884699985 -27784873 36874393 -710941469 1791040095 18829633
REM
CELL 1.54180   50.00000   50.00000   50.00000   90.00000   90.00000   90.00000
LATT -1
SFAC C  
C      1  0.5023600000000  0.5685720000000  0.5504200000000 1.0
C      1  0.5036590000000  0.5792780000000  0.4658170000000 1.0
C      1  0.5039220000000  0.5110330000000  0.4159370000000 1.0
C      1  0.5024680000000  0.4315220000000  0.4495900000000 1.0
C      1  0.5030430000000  0.4210460000000  0.5341510000000 1.0
C      1  0.5039560000000  0.4892160000000  0.5840440000000 1.0
C      1  0.4618110000000  0.4986340000000  0.5329650000000 1.0
C      1  0.4610290000000  0.5310290000000  0.5156910000000 1.0
C      1  0.4630950000000  0.5309620000000  0.4836050000000 1.0
C      1  0.4618490000000  0.5012680000000  0.4670580000000 1.0
C      1  0.4612210000000  0.4689080000000  0.4844020000000 1.0
C      1  0.4631840000000  0.4689120000000  0.5164760000000 1.0
C      1  0.5060580000000  0.4926160000000  0.5303780000000 1.0
C      1  0.5040310000000  0.5225190000000  0.5217470000000 1.0
C      1  0.5090970000000  0.5293860000000  0.4909390000000 1.0
C      1  0.5060460000000  0.5075020000000  0.4695130000000 1.0
C      1  0.5039960000000  0.4777460000000  0.4781410000000 1.0
C      1  0.5089360000000  0.4704630000000  0.5089140000000 1.0
C      1  0.4877510000000  0.5432730000000  0.5627660000000 1.0
C      1  0.4917970000000  0.5783100000000  0.4955550000000 1.0
C      1  0.4888450000000  0.5319930000000  0.4328280000000 1.0
C      1  0.4877250000000  0.4567780000000  0.4373660000000 1.0
C      1  0.4915320000000  0.4214770000000  0.5042510000000 1.0
C      1  0.4888860000000  0.4681650000000  0.5672460000000 1.0
C      1  0.4301000000000  0.5347140000000  0.5244520000000 1.0
C      1  0.4348680000000  0.5307140000000  0.4685310000000 1.0
C      1  0.4336010000000  0.4899390000000  0.4646140000000 1.0
C      1  0.4303140000000  0.4650490000000  0.4756040000000 1.0
C      1  0.4349190000000  0.4691080000000  0.5314870000000 1.0
C      1  0.4335030000000  0.5098260000000  0.5354240000000 1.0
C      1  0.4786410000000  0.4980910000000  0.5586260000000 1.0
C      1  0.4795240000000  0.5524460000000  0.5310630000000 1.0
C      1  0.4819090000000  0.5534220000000  0.4746070000000 1.0
C      1  0.4786040000000  0.5020100000000  0.4413000000000 1.0
C      1  0.4797540000000  0.4474920000000  0.4692170000000 1.0
C      1  0.4819960000000  0.4463220000000  0.5255240000000 1.0
C      1  0.5296420000000  0.4401510000000  0.4594000000000 1.0
C      1  0.5306920000000  0.4347840000000  0.5312940000000 1.0
C      1  0.5295490000000  0.4957880000000  0.5697240000000 1.0
C      1  0.5294670000000  0.5599380000000  0.5402570000000 1.0
C      1  0.5308050000000  0.5646750000000  0.4687670000000 1.0
C      1  0.5295420000000  0.5044150000000  0.4302260000000 1.0
C      1  0.5513410000000  0.5296440000000  0.4979460000000 1.0
C      1  0.5508730000000  0.5127280000000  0.4739090000000 1.0
C      1  0.5502080000000  0.4833870000000  0.4758660000000 1.0
C      1  0.5511230000000  0.4703400000000  0.5021190000000 1.0
C      1  0.5507820000000  0.4873180000000  0.5261020000000 1.0
C      1  0.5502940000000  0.5166480000000  0.5241740000000 1.0
C      1  0.5090270000000  0.5551370000000  0.5135090000000 1.0
C      1  0.5091040000000  0.5404680000000  0.4587860000000 1.0
C      1  0.5069670000000  0.4835390000000  0.4447580000000 1.0
C      1  0.5088690000000  0.4448010000000  0.4865990000000 1.0
C      1  0.5090410000000  0.4597420000000  0.5411900000000 1.0
C      1  0.5069700000000  0.5166030000000  0.5551120000000 1.0
C      1  0.5356080000000  0.5315640000000  0.5444680000000 1.0
C      1  0.5380460000000  0.5562630000000  0.4957850000000 1.0
C      1  0.5372840000000  0.5233360000000  0.4504430000000 1.0
C      1  0.5355780000000  0.4685860000000  0.4554750000000 1.0
C      1  0.5379090000000  0.4435930000000  0.5042790000000 1.0
C      1  0.5372480000000  0.4768120000000  0.5495640000000 1.0
END
