TITL C-1154826-9507-165 -0.000352150303072487 125000 -322.434510300309 0 0 60 (C1) n - 1
REM
REM in /home/nfs/bkarasulu/CARBON/AIRSS/Generating-Clusters/AIREBO/Higher-Symm/Only-C60
REM
REM
REM
REM
REM
REM ./C.cell (28575a23ae977d3b5fae324c64b13b57)
REM
REM compiler GCC version 9.2.1 20190827 (Red Hat 9.2.1-1)
REM options -cpp -mtune=generic -march=x86-64 -g -O0 -fpre-include=/usr/include/finclude/math-vector-fortran.h
REM seed -1281029396 1676687358 233451490 1650555609 1933328476 -263381650 -701194774 -36596712 -533648330 119563166 -1713901012 -1643156668 -848156719 301036990 -1785146242 899217658 -245997537 -1668982287 -169738186 -1352790032 851926179 -1777946371 247878004 1832513449 -518057424 810582329 -444458095 290977731 2140779836 -1767408058 1851387642 1838026698 293355470
REM
CELL 1.54180   50.00000   50.00000   50.00000   90.00000   90.00000   90.00000
LATT -1
SFAC C  
C      1  0.5345090000000  0.5501390000000  0.5724560000000 1.0
C      1  0.4526210000000  0.5089450000000  0.5713000000000 1.0
C      1  0.5182010000000  0.4515220000000  0.5710450000000 1.0
C      1  0.5265340000000  0.5417840000000  0.4247350000000 1.0
C      1  0.4512040000000  0.4981610000000  0.4205170000000 1.0
C      1  0.5202410000000  0.4624870000000  0.4212730000000 1.0
C      1  0.4701990000000  0.4806610000000  0.4658770000000 1.0
C      1  0.5260080000000  0.4857290000000  0.4678400000000 1.0
C      1  0.4987530000000  0.5307640000000  0.4686030000000 1.0
C      1  0.4748190000000  0.4835970000000  0.5416210000000 1.0
C      1  0.5246090000000  0.4866030000000  0.5437540000000 1.0
C      1  0.5042540000000  0.5313100000000  0.5363950000000 1.0
C      1  0.5007360000000  0.4284540000000  0.5212000000000 1.0
C      1  0.5567200000000  0.5372240000000  0.5319670000000 1.0
C      1  0.4396490000000  0.5349570000000  0.5213920000000 1.0
C      1  0.5100960000000  0.4405280000000  0.4618210000000 1.0
C      1  0.5482350000000  0.5397770000000  0.4666290000000 1.0
C      1  0.4415800000000  0.5181750000000  0.4620090000000 1.0
C      1  0.5518240000000  0.5553090000000  0.5110110000000 1.0
C      1  0.4227650000000  0.5208430000000  0.5042090000000 1.0
C      1  0.5206820000000  0.4218090000000  0.5029610000000 1.0
C      1  0.5371610000000  0.5565190000000  0.4866940000000 1.0
C      1  0.4307580000000  0.5032260000000  0.4834760000000 1.0
C      1  0.5293520000000  0.4393930000000  0.4825480000000 1.0
C      1  0.5488380000000  0.5041880000000  0.5301150000000 1.0
C      1  0.4740920000000  0.5427030000000  0.5274010000000 1.0
C      1  0.4762050000000  0.4528490000000  0.5284760000000 1.0
C      1  0.5483070000000  0.5092970000000  0.4747310000000 1.0
C      1  0.4673730000000  0.5317360000000  0.4719210000000 1.0
C      1  0.4841000000000  0.4528270000000  0.4729940000000 1.0
C      1  0.5495230000000  0.5458000000000  0.4393500000000 1.0
C      1  0.4366560000000  0.5167850000000  0.4346230000000 1.0
C      1  0.5134800000000  0.4391350000000  0.4341910000000 1.0
C      1  0.5580960000000  0.5471570000000  0.5583900000000 1.0
C      1  0.4479610000000  0.5189530000000  0.5457930000000 1.0
C      1  0.5109930000000  0.4434830000000  0.5454940000000 1.0
C      1  0.4701380000000  0.5093810000000  0.5218450000000 1.0
C      1  0.5060640000000  0.4679620000000  0.5223980000000 1.0
C      1  0.5208980000000  0.5193290000000  0.5180190000000 1.0
C      1  0.4772770000000  0.5042360000000  0.4893820000000 1.0
C      1  0.5016480000000  0.4766890000000  0.4898040000000 1.0
C      1  0.5195010000000  0.5175150000000  0.4900200000000 1.0
C      1  0.5738640000000  0.4968370000000  0.5464840000000 1.0
C      1  0.4688280000000  0.5609920000000  0.5509660000000 1.0
C      1  0.4615630000000  0.4370860000000  0.5495140000000 1.0
C      1  0.5739260000000  0.4987180000000  0.4770910000000 1.0
C      1  0.4620900000000  0.5598130000000  0.4733360000000 1.0
C      1  0.4641810000000  0.4332160000000  0.4759040000000 1.0
C      1  0.4521700000000  0.4608300000000  0.5060730000000 1.0
C      1  0.5531070000000  0.4795760000000  0.5070250000000 1.0
C      1  0.4883890000000  0.5620300000000  0.5041590000000 1.0
C      1  0.4461460000000  0.4793990000000  0.4871710000000 1.0
C      1  0.5399290000000  0.4653580000000  0.4880620000000 1.0
C      1  0.5084550000000  0.5556090000000  0.4868120000000 1.0
C      1  0.4682050000000  0.4827560000000  0.4352470000000 1.0
C      1  0.5238470000000  0.4844510000000  0.4370230000000 1.0
C      1  0.5049740000000  0.5320760000000  0.4382420000000 1.0
C      1  0.4698640000000  0.4875030000000  0.5683290000000 1.0
C      1  0.5256750000000  0.4780900000000  0.5697500000000 1.0
C      1  0.5121310000000  0.5377180000000  0.5625300000000 1.0
END
