TITL C-1154824-75-201 0.0026305621882577 125000 -336.583274776823 0 0 60 (C1) n - 1
REM
REM in /home/nfs/bkarasulu/CARBON/AIRSS/Generating-Clusters/AIREBO/Higher-Symm/Only-C60
REM
REM
REM
REM
REM
REM ./C.cell (28575a23ae977d3b5fae324c64b13b57)
REM
REM compiler GCC version 9.2.1 20190827 (Red Hat 9.2.1-1)
REM options -cpp -mtune=generic -march=x86-64 -g -O0 -fpre-include=/usr/include/finclude/math-vector-fortran.h
REM seed 1337612183 -1935406852 -101549326 1164337298 1601362558 -1225453652 1192853961 -937715994 925080703 -341060394 1001579567 1195028287 -1319529454 2024275660 1192226611 928352592 -513007975 -413427202 1716087137 1607870004 1387248545 1969673222 -665561958 -1824464401 1388452464 895129197 -1398937247 819069145 1793163917 -18444958 783695466 -60778058 -1352372307
REM
CELL 1.54180   50.00000   50.00000   50.00000   90.00000   90.00000   90.00000
LATT -1
SFAC C  
C      1  0.5122640000000  0.5575350000000  0.5576530000000 1.0
C      1  0.5445080000000  0.5585230000000  0.4614600000000 1.0
C      1  0.4506440000000  0.5642130000000  0.4799380000000 1.0
C      1  0.5028380000000  0.5327210000000  0.5685970000000 1.0
C      1  0.5599890000000  0.5348790000000  0.4614170000000 1.0
C      1  0.4423310000000  0.5410600000000  0.4662370000000 1.0
C      1  0.4959700000000  0.4806180000000  0.4825430000000 1.0
C      1  0.4865550000000  0.4772750000000  0.5129030000000 1.0
C      1  0.5181020000000  0.4817780000000  0.5158050000000 1.0
C      1  0.5066640000000  0.5632190000000  0.5309100000000 1.0
C      1  0.5241190000000  0.5596130000000  0.4793580000000 1.0
C      1  0.4756790000000  0.5616470000000  0.4903170000000 1.0
C      1  0.4865110000000  0.4828940000000  0.5645460000000 1.0
C      1  0.5525250000000  0.4879450000000  0.4811590000000 1.0
C      1  0.4285620000000  0.4928900000000  0.4661500000000 1.0
C      1  0.5196540000000  0.4549130000000  0.5492600000000 1.0
C      1  0.5322530000000  0.4489960000000  0.4599670000000 1.0
C      1  0.4520640000000  0.4576180000000  0.4847670000000 1.0
C      1  0.4497810000000  0.5405920000000  0.5121990000000 1.0
C      1  0.5330980000000  0.5335560000000  0.5334280000000 1.0
C      1  0.5064370000000  0.5368850000000  0.4411470000000 1.0
C      1  0.4757350000000  0.5283970000000  0.5596880000000 1.0
C      1  0.5736470000000  0.5310430000000  0.4872950000000 1.0
C      1  0.4626030000000  0.5309210000000  0.4497440000000 1.0
C      1  0.4935380000000  0.4562520000000  0.5554080000000 1.0
C      1  0.5475690000000  0.4601970000000  0.4811050000000 1.0
C      1  0.4496370000000  0.4756290000000  0.4646400000000 1.0
C      1  0.4377210000000  0.4639600000000  0.5124280000000 1.0
C      1  0.5400590000000  0.4811510000000  0.5580720000000 1.0
C      1  0.5200000000000  0.4624640000000  0.4371740000000 1.0
C      1  0.5500480000000  0.4535650000000  0.5408790000000 1.0
C      1  0.4895410000000  0.4520490000000  0.4335610000000 1.0
C      1  0.4562430000000  0.4354430000000  0.5100930000000 1.0
C      1  0.4796330000000  0.5188490000000  0.5272870000000 1.0
C      1  0.5410260000000  0.5256080000000  0.4952690000000 1.0
C      1  0.4865720000000  0.5172500000000  0.4696200000000 1.0
C      1  0.5440480000000  0.5093960000000  0.4584980000000 1.0
C      1  0.4333340000000  0.5177010000000  0.4838310000000 1.0
C      1  0.5127450000000  0.5006860000000  0.5639890000000 1.0
C      1  0.4669350000000  0.5162430000000  0.4957940000000 1.0
C      1  0.5122000000000  0.5106870000000  0.5327490000000 1.0
C      1  0.5173580000000  0.5066140000000  0.4793860000000 1.0
C      1  0.4806080000000  0.5521050000000  0.5207780000000 1.0
C      1  0.5288680000000  0.5540160000000  0.5094880000000 1.0
C      1  0.4965060000000  0.5497500000000  0.4710120000000 1.0
C      1  0.4926400000000  0.4521100000000  0.4643070000000 1.0
C      1  0.4776150000000  0.4507990000000  0.5306700000000 1.0
C      1  0.5344550000000  0.4523960000000  0.5107070000000 1.0
C      1  0.5118110000000  0.4310030000000  0.4733800000000 1.0
C      1  0.4887170000000  0.4255020000000  0.5138070000000 1.0
C      1  0.5136200000000  0.4296840000000  0.5014890000000 1.0
C      1  0.4689460000000  0.4893370000000  0.5386910000000 1.0
C      1  0.5461130000000  0.4969460000000  0.5107630000000 1.0
C      1  0.4765990000000  0.4875840000000  0.4558460000000 1.0
C      1  0.4414020000000  0.4878210000000  0.5256740000000 1.0
C      1  0.5587310000000  0.4983410000000  0.5388420000000 1.0
C      1  0.5043900000000  0.4887680000000  0.4381270000000 1.0
C      1  0.4326860000000  0.5124370000000  0.5159430000000 1.0
C      1  0.5568550000000  0.5255270000000  0.5442770000000 1.0
C      1  0.5186980000000  0.5123970000000  0.4399290000000 1.0
END
