TITL C-1154810-7815-150 -0.00569506625581925 125000 -347.668855526624 0 0 60 (C1) n - 1
REM
REM in /home/nfs/bkarasulu/CARBON/AIRSS/Generating-Clusters/AIREBO/Higher-Symm/Only-C60
REM
REM
REM
REM
REM
REM ./C.cell (28575a23ae977d3b5fae324c64b13b57)
REM
REM compiler GCC version 9.2.1 20190827 (Red Hat 9.2.1-1)
REM options -cpp -mtune=generic -march=x86-64 -g -O0 -fpre-include=/usr/include/finclude/math-vector-fortran.h
REM seed 2096028749 -1749891256 2013275163 1885753043 -1590651474 1185587422 1357576040 -528648164 1493451511 1766676718 -956145611 1223495315 -715718237 -2063572937 -1912495065 748603017 2143706735 -695967077 554002598 -140031231 2122882529 -1672926538 720987335 470660313 -784044227 -406743364 1814690559 1012038974 239422628 980925381 1317993323 1619759764 -1698795168
REM
CELL 1.54180   50.00000   50.00000   50.00000   90.00000   90.00000   90.00000
LATT -1
SFAC C  
C      1  0.5713030000000  0.4599810000000  0.5205690000000 1.0
C      1  0.4214650000000  0.4849330000000  0.5461550000000 1.0
C      1  0.5650220000000  0.5028620000000  0.5439730000000 1.0
C      1  0.4253630000000  0.5311020000000  0.5378000000000 1.0
C      1  0.5743930000000  0.5462170000000  0.5200230000000 1.0
C      1  0.4432300000000  0.5411050000000  0.4943300000000 1.0
C      1  0.5569880000000  0.5353430000000  0.4752940000000 1.0
C      1  0.4394610000000  0.5190410000000  0.4522230000000 1.0
C      1  0.5714410000000  0.4974000000000  0.4454870000000 1.0
C      1  0.4296160000000  0.4627000000000  0.4585510000000 1.0
C      1  0.5697030000000  0.4592440000000  0.4734700000000 1.0
C      1  0.4364680000000  0.4578210000000  0.5051610000000 1.0
C      1  0.4448530000000  0.5472200000000  0.5243070000000 1.0
C      1  0.5554780000000  0.5545230000000  0.5003280000000 1.0
C      1  0.4493370000000  0.5439030000000  0.4629670000000 1.0
C      1  0.5567780000000  0.5218880000000  0.4440580000000 1.0
C      1  0.4475690000000  0.4744950000000  0.4398510000000 1.0
C      1  0.5557850000000  0.4737860000000  0.4524730000000 1.0
C      1  0.4429530000000  0.4461140000000  0.4779920000000 1.0
C      1  0.5570500000000  0.4497780000000  0.4976470000000 1.0
C      1  0.4402070000000  0.4625670000000  0.5403070000000 1.0
C      1  0.5566630000000  0.4727790000000  0.5410210000000 1.0
C      1  0.4350330000000  0.5089860000000  0.5541610000000 1.0
C      1  0.5634850000000  0.5357380000000  0.5435160000000 1.0
C      1  0.5120150000000  0.4927220000000  0.4757830000000 1.0
C      1  0.4819620000000  0.4710410000000  0.4904040000000 1.0
C      1  0.5115170000000  0.4733670000000  0.5020310000000 1.0
C      1  0.4647060000000  0.4713770000000  0.5184220000000 1.0
C      1  0.5104720000000  0.4870470000000  0.5298980000000 1.0
C      1  0.4802820000000  0.4970990000000  0.5326950000000 1.0
C      1  0.5322920000000  0.5117580000000  0.5365690000000 1.0
C      1  0.4872940000000  0.5241270000000  0.5161930000000 1.0
C      1  0.5170970000000  0.5274330000000  0.5134040000000 1.0
C      1  0.4739130000000  0.5249100000000  0.4879960000000 1.0
C      1  0.5267000000000  0.5201230000000  0.4838640000000 1.0
C      1  0.4792440000000  0.4984470000000  0.4720220000000 1.0
C      1  0.5292280000000  0.4484800000000  0.4996170000000 1.0
C      1  0.4702850000000  0.4458740000000  0.5402170000000 1.0
C      1  0.5304940000000  0.4691980000000  0.5475530000000 1.0
C      1  0.4631410000000  0.5058770000000  0.5575730000000 1.0
C      1  0.5395950000000  0.5329370000000  0.5621510000000 1.0
C      1  0.4713140000000  0.5466980000000  0.5319210000000 1.0
C      1  0.5295680000000  0.5563970000000  0.5091080000000 1.0
C      1  0.4783960000000  0.5505860000000  0.4661510000000 1.0
C      1  0.5279900000000  0.5242450000000  0.4506060000000 1.0
C      1  0.4590110000000  0.4986420000000  0.4489210000000 1.0
C      1  0.5277310000000  0.4772960000000  0.4535010000000 1.0
C      1  0.4706820000000  0.4457240000000  0.4758270000000 1.0
C      1  0.4165740000000  0.5101300000000  0.4681930000000 1.0
C      1  0.5920400000000  0.5002440000000  0.4663210000000 1.0
C      1  0.4121800000000  0.4819940000000  0.4725120000000 1.0
C      1  0.5929680000000  0.4757360000000  0.4817860000000 1.0
C      1  0.4115740000000  0.4749450000000  0.5003920000000 1.0
C      1  0.5927640000000  0.4772520000000  0.5108920000000 1.0
C      1  0.4050930000000  0.4908860000000  0.5227830000000 1.0
C      1  0.5905150000000  0.5024510000000  0.5236430000000 1.0
C      1  0.4068920000000  0.5193400000000  0.5177710000000 1.0
C      1  0.5922380000000  0.5264710000000  0.5086290000000 1.0
C      1  0.4160720000000  0.5259690000000  0.4918330000000 1.0
C      1  0.5865160000000  0.5236530000000  0.4811540000000 1.0
END
