TITL C-1154826-9507-94 -0.000532273708603712 125000 -360.146789694834 0 0 60 (C1) n - 1
REM
REM in /home/nfs/bkarasulu/CARBON/AIRSS/Generating-Clusters/AIREBO/Higher-Symm/Only-C60
REM
REM
REM
REM
REM
REM ./C.cell (28575a23ae977d3b5fae324c64b13b57)
REM
REM compiler GCC version 9.2.1 20190827 (Red Hat 9.2.1-1)
REM options -cpp -mtune=generic -march=x86-64 -g -O0 -fpre-include=/usr/include/finclude/math-vector-fortran.h
REM seed 3919669 -1555436045 1029458485 1087110446 -714345799 -1757020747 1766978545 762062801 1525592093 -824839755 2010532451 187594440 -240219439 -1761303163 1577846006 1462087425 1672548687 -512584131 927503066 -747789260 273032688 -1072682131 -1999179905 1723434080 1792094590 1556016610 740305577 951781727 -281266189 -1299095064 1003759856 -1343973059 -1158638511
REM
CELL 1.54180   50.00000   50.00000   50.00000   90.00000   90.00000   90.00000
LATT -1
SFAC C  
C      1  0.4825330000000  0.4428480000000  0.5319970000000 1.0
C      1  0.4410710000000  0.5210060000000  0.5299310000000 1.0
C      1  0.5229510000000  0.5513210000000  0.5324850000000 1.0
C      1  0.5387270000000  0.4786790000000  0.5504330000000 1.0
C      1  0.4864540000000  0.4422550000000  0.4692470000000 1.0
C      1  0.4427600000000  0.5184050000000  0.4681430000000 1.0
C      1  0.5173200000000  0.5546890000000  0.4692380000000 1.0
C      1  0.5563030000000  0.4814450000000  0.4603930000000 1.0
C      1  0.5111970000000  0.5724090000000  0.5172030000000 1.0
C      1  0.5946540000000  0.4950810000000  0.4913820000000 1.0
C      1  0.4976690000000  0.4245760000000  0.5167090000000 1.0
C      1  0.4243180000000  0.5054840000000  0.5136510000000 1.0
C      1  0.5161860000000  0.5749620000000  0.4891170000000 1.0
C      1  0.5827460000000  0.4868320000000  0.4681740000000 1.0
C      1  0.4915010000000  0.4220340000000  0.4885930000000 1.0
C      1  0.4250310000000  0.5040110000000  0.4840980000000 1.0
C      1  0.4221700000000  0.4770970000000  0.4748580000000 1.0
C      1  0.4473190000000  0.5841200000000  0.4709660000000 1.0
C      1  0.5770820000000  0.5508680000000  0.4687300000000 1.0
C      1  0.5635100000000  0.4242750000000  0.4758150000000 1.0
C      1  0.4188050000000  0.4798000000000  0.5253430000000 1.0
C      1  0.4862300000000  0.5820170000000  0.5263050000000 1.0
C      1  0.5879670000000  0.5117220000000  0.5122270000000 1.0
C      1  0.5246960000000  0.4211130000000  0.5242820000000 1.0
C      1  0.4553290000000  0.5654020000000  0.4889830000000 1.0
C      1  0.5593800000000  0.5385540000000  0.4846770000000 1.0
C      1  0.5505620000000  0.4431670000000  0.4896850000000 1.0
C      1  0.4403130000000  0.4596350000000  0.4874310000000 1.0
C      1  0.4635070000000  0.5691970000000  0.5171460000000 1.0
C      1  0.5656760000000  0.5285810000000  0.5114740000000 1.0
C      1  0.5426520000000  0.4415940000000  0.5170720000000 1.0
C      1  0.4361740000000  0.4595280000000  0.5167000000000 1.0
C      1  0.5422530000000  0.4895840000000  0.4376290000000 1.0
C      1  0.4918650000000  0.4498170000000  0.4427270000000 1.0
C      1  0.4517880000000  0.5106980000000  0.4427630000000 1.0
C      1  0.5065970000000  0.5485710000000  0.4438790000000 1.0
C      1  0.5311900000000  0.4841340000000  0.5758200000000 1.0
C      1  0.4804660000000  0.4497530000000  0.5590440000000 1.0
C      1  0.4467010000000  0.5150350000000  0.5558340000000 1.0
C      1  0.5118060000000  0.5437780000000  0.5571940000000 1.0
C      1  0.4936130000000  0.4756600000000  0.4321650000000 1.0
C      1  0.4769400000000  0.5026570000000  0.4334860000000 1.0
C      1  0.5003140000000  0.5238120000000  0.4326770000000 1.0
C      1  0.5162590000000  0.4970320000000  0.4310730000000 1.0
C      1  0.4810250000000  0.4731130000000  0.5714930000000 1.0
C      1  0.4725540000000  0.5048260000000  0.5662570000000 1.0
C      1  0.4985380000000  0.5246510000000  0.5691750000000 1.0
C      1  0.5036410000000  0.4945330000000  0.5816780000000 1.0
C      1  0.5412280000000  0.4679690000000  0.4798590000000 1.0
C      1  0.4711820000000  0.4634510000000  0.4823120000000 1.0
C      1  0.4612140000000  0.5351920000000  0.4826460000000 1.0
C      1  0.5326800000000  0.5333730000000  0.4791860000000 1.0
C      1  0.5356280000000  0.4680960000000  0.5254090000000 1.0
C      1  0.4685460000000  0.4628250000000  0.5154620000000 1.0
C      1  0.4614500000000  0.5368010000000  0.5161370000000 1.0
C      1  0.5368510000000  0.5307310000000  0.5188280000000 1.0
C      1  0.5217650000000  0.4820450000000  0.5006550000000 1.0
C      1  0.4881920000000  0.4864630000000  0.5003810000000 1.0
C      1  0.4854770000000  0.5191180000000  0.4997630000000 1.0
C      1  0.5174440000000  0.5135710000000  0.4992500000000 1.0
END
