TITL C-1154829-9094-441 0.00128907860140538 125000 -352.455563032568 0 0 60 (C1) n - 1
REM
REM in /home/nfs/bkarasulu/CARBON/AIRSS/Generating-Clusters/AIREBO/Higher-Symm/Only-C60
REM
REM
REM
REM
REM
REM ./C.cell (28575a23ae977d3b5fae324c64b13b57)
REM
REM compiler GCC version 9.2.1 20190827 (Red Hat 9.2.1-1)
REM options -cpp -mtune=generic -march=x86-64 -g -O0 -fpre-include=/usr/include/finclude/math-vector-fortran.h
REM seed 1432738138 908367419 -622887486 653879106 784164679 2005103397 -885871632 -2002930536 -1061323054 896124866 -67980838 1023335080 2115388017 2006758121 1323390759 235255030 220363314 -1978723123 556925139 -1845776689 -1228709790 113377991 955002501 -411235743 -815193548 1623397098 1450236499 -412643703 631113859 1608988963 128515544 -1268905763 -2084569991
REM
CELL 1.54180   50.00000   50.00000   50.00000   90.00000   90.00000   90.00000
LATT -1
SFAC C  
C      1  0.4856730000000  0.5381140000000  0.5573020000000 1.0
C      1  0.5456120000000  0.5631530000000  0.4792030000000 1.0
C      1  0.5560680000000  0.4830690000000  0.5415810000000 1.0
C      1  0.5220040000000  0.4563490000000  0.5685460000000 1.0
C      1  0.4721130000000  0.4510950000000  0.4293540000000 1.0
C      1  0.5220900000000  0.5486920000000  0.4383180000000 1.0
C      1  0.4589620000000  0.4362380000000  0.4740440000000 1.0
C      1  0.5385340000000  0.4405750000000  0.5251030000000 1.0
C      1  0.4634720000000  0.5623920000000  0.5214090000000 1.0
C      1  0.4445130000000  0.5224970000000  0.5377980000000 1.0
C      1  0.5599540000000  0.5214870000000  0.4563170000000 1.0
C      1  0.4396290000000  0.4781450000000  0.4577050000000 1.0
C      1  0.5365630000000  0.4818870000000  0.5622090000000 1.0
C      1  0.5611940000000  0.5402810000000  0.4794930000000 1.0
C      1  0.4853850000000  0.5606980000000  0.5393140000000 1.0
C      1  0.4649630000000  0.5189590000000  0.5570940000000 1.0
C      1  0.4568200000000  0.4759110000000  0.4354710000000 1.0
C      1  0.5386610000000  0.5229920000000  0.4388300000000 1.0
C      1  0.4430320000000  0.4593480000000  0.4783130000000 1.0
C      1  0.4400830000000  0.5493690000000  0.5310720000000 1.0
C      1  0.5547450000000  0.4633250000000  0.5214960000000 1.0
C      1  0.5225060000000  0.4360800000000  0.5497460000000 1.0
C      1  0.5214920000000  0.5647690000000  0.4610690000000 1.0
C      1  0.4746850000000  0.4320500000000  0.4491890000000 1.0
C      1  0.4676500000000  0.4919330000000  0.5640830000000 1.0
C      1  0.4948630000000  0.5592790000000  0.4803390000000 1.0
C      1  0.5562110000000  0.4708620000000  0.4945540000000 1.0
C      1  0.5175470000000  0.5041220000000  0.5653350000000 1.0
C      1  0.4769150000000  0.5011310000000  0.4337680000000 1.0
C      1  0.5175380000000  0.4971300000000  0.4391160000000 1.0
C      1  0.4985830000000  0.4384830000000  0.4725050000000 1.0
C      1  0.4989640000000  0.4382080000000  0.5263220000000 1.0
C      1  0.5119440000000  0.5675180000000  0.5315620000000 1.0
C      1  0.4333070000000  0.5141130000000  0.4950280000000 1.0
C      1  0.5602010000000  0.5224580000000  0.5068540000000 1.0
C      1  0.4458020000000  0.4680800000000  0.5046360000000 1.0
C      1  0.4967940000000  0.4786800000000  0.5639120000000 1.0
C      1  0.5558340000000  0.5009400000000  0.4823960000000 1.0
C      1  0.4688580000000  0.5555900000000  0.4951670000000 1.0
C      1  0.5119910000000  0.5299310000000  0.5627110000000 1.0
C      1  0.4961380000000  0.4727490000000  0.4303560000000 1.0
C      1  0.4990520000000  0.5248330000000  0.4376320000000 1.0
C      1  0.4371880000000  0.5048120000000  0.4659910000000 1.0
C      1  0.4402220000000  0.4954880000000  0.5198790000000 1.0
C      1  0.5673690000000  0.5073370000000  0.5346280000000 1.0
C      1  0.5194040000000  0.4348750000000  0.4988650000000 1.0
C      1  0.5202410000000  0.5626520000000  0.5006920000000 1.0
C      1  0.4793990000000  0.4306850000000  0.4995420000000 1.0
C      1  0.5389720000000  0.4821990000000  0.4606400000000 1.0
C      1  0.4790340000000  0.4598070000000  0.5436160000000 1.0
C      1  0.4487460000000  0.4758650000000  0.5457680000000 1.0
C      1  0.5318430000000  0.5484610000000  0.5497200000000 1.0
C      1  0.4825290000000  0.5489340000000  0.4529140000000 1.0
C      1  0.5157220000000  0.4592220000000  0.4513220000000 1.0
C      1  0.5618180000000  0.5353030000000  0.5444540000000 1.0
C      1  0.4633770000000  0.5219570000000  0.4553650000000 1.0
C      1  0.4543640000000  0.5347230000000  0.4853430000000 1.0
C      1  0.5351990000000  0.4530100000000  0.4782430000000 1.0
C      1  0.4621470000000  0.4503510000000  0.5182470000000 1.0
C      1  0.5454870000000  0.5508050000000  0.5185210000000 1.0
END
