TITL C-1154803-8277-425 -0.00147552234967101 125000 -340.937349418017 0 0 60 (C1) n - 1
REM
REM in /home/nfs/bkarasulu/CARBON/AIRSS/Generating-Clusters/AIREBO/Higher-Symm/Only-C60
REM
REM
REM
REM
REM
REM ./C.cell (28575a23ae977d3b5fae324c64b13b57)
REM
REM compiler GCC version 9.2.1 20190827 (Red Hat 9.2.1-1)
REM options -cpp -mtune=generic -march=x86-64 -g -O0 -fpre-include=/usr/include/finclude/math-vector-fortran.h
REM seed 1247443856 -1586129584 769989790 305492461 -222574850 -1977801287 -908716501 -1402168358 -1810776422 39701112 -363265235 -354995572 641885050 347388313 1771741162 -2104145915 1472290660 1891282991 749763806 -507566593 -1301551191 1682225268 -856632807 1336384379 -1172486974 -1799370940 -1006816507 -1551768740 -914629140 77685566 1053812241 1334396349 1876260803
REM
CELL 1.54180   50.00000   50.00000   50.00000   90.00000   90.00000   90.00000
LATT -1
SFAC C  
C      1  0.5304790000000  0.4578860000000  0.5265030000000 1.0
C      1  0.4686820000000  0.4569390000000  0.4711450000000 1.0
C      1  0.5333160000000  0.5397010000000  0.5224900000000 1.0
C      1  0.4676400000000  0.5460350000000  0.4736800000000 1.0
C      1  0.4710320000000  0.4530440000000  0.5198660000000 1.0
C      1  0.5323550000000  0.4580420000000  0.4778380000000 1.0
C      1  0.4682920000000  0.5410180000000  0.5224540000000 1.0
C      1  0.5327140000000  0.5424770000000  0.4740390000000 1.0
C      1  0.4888940000000  0.4317750000000  0.5244240000000 1.0
C      1  0.5153710000000  0.4359360000000  0.4728640000000 1.0
C      1  0.4875820000000  0.5610590000000  0.5259450000000 1.0
C      1  0.5140130000000  0.5618400000000  0.4661950000000 1.0
C      1  0.5159740000000  0.4339660000000  0.5299380000000 1.0
C      1  0.4890090000000  0.4385110000000  0.4645260000000 1.0
C      1  0.5148790000000  0.5602000000000  0.5281840000000 1.0
C      1  0.4871500000000  0.5659140000000  0.4699300000000 1.0
C      1  0.5701400000000  0.4831590000000  0.4726470000000 1.0
C      1  0.4279140000000  0.4781080000000  0.5238250000000 1.0
C      1  0.5733610000000  0.5138360000000  0.4849660000000 1.0
C      1  0.4279240000000  0.5112480000000  0.5190830000000 1.0
C      1  0.4279470000000  0.4835830000000  0.4902800000000 1.0
C      1  0.5688350000000  0.4840830000000  0.5325350000000 1.0
C      1  0.4272180000000  0.5162650000000  0.4836390000000 1.0
C      1  0.5759260000000  0.5122820000000  0.5188480000000 1.0
C      1  0.4808430000000  0.4856830000000  0.4809370000000 1.0
C      1  0.5121350000000  0.4821780000000  0.5294100000000 1.0
C      1  0.4801230000000  0.5182300000000  0.4816340000000 1.0
C      1  0.5200140000000  0.5117460000000  0.5143130000000 1.0
C      1  0.5194350000000  0.4822050000000  0.4734980000000 1.0
C      1  0.4850820000000  0.4788700000000  0.5127080000000 1.0
C      1  0.5195070000000  0.5123900000000  0.4828000000000 1.0
C      1  0.4802980000000  0.5120560000000  0.5133210000000 1.0
C      1  0.4728160000000  0.4872610000000  0.5625360000000 1.0
C      1  0.5244070000000  0.4853380000000  0.4343490000000 1.0
C      1  0.4715840000000  0.5155970000000  0.5530160000000 1.0
C      1  0.5291840000000  0.5137230000000  0.4441210000000 1.0
C      1  0.5257020000000  0.4881730000000  0.5665090000000 1.0
C      1  0.4665350000000  0.4896770000000  0.4439950000000 1.0
C      1  0.5286250000000  0.5146210000000  0.5531860000000 1.0
C      1  0.4723060000000  0.5195500000000  0.4425860000000 1.0
C      1  0.4415450000000  0.5462560000000  0.4836460000000 1.0
C      1  0.5595040000000  0.5395740000000  0.5122250000000 1.0
C      1  0.4429900000000  0.4543890000000  0.4817680000000 1.0
C      1  0.5562710000000  0.4645860000000  0.5171450000000 1.0
C      1  0.5588520000000  0.5441100000000  0.4832040000000 1.0
C      1  0.4417690000000  0.5399370000000  0.5123730000000 1.0
C      1  0.5580230000000  0.4633970000000  0.4889740000000 1.0
C      1  0.4443020000000  0.4540670000000  0.5115590000000 1.0
C      1  0.4420860000000  0.4890990000000  0.5502990000000 1.0
C      1  0.5560850000000  0.4844690000000  0.4441330000000 1.0
C      1  0.4425120000000  0.5218650000000  0.5479100000000 1.0
C      1  0.5579090000000  0.5162890000000  0.4547420000000 1.0
C      1  0.5570410000000  0.4877090000000  0.5608020000000 1.0
C      1  0.4394200000000  0.4871420000000  0.4591230000000 1.0
C      1  0.5578270000000  0.5195170000000  0.5467140000000 1.0
C      1  0.4428660000000  0.5199450000000  0.4536690000000 1.0
C      1  0.5017250000000  0.5247660000000  0.4565800000000 1.0
C      1  0.4987370000000  0.4775300000000  0.5599720000000 1.0
C      1  0.4996090000000  0.5227380000000  0.5391960000000 1.0
C      1  0.4956830000000  0.4784100000000  0.4512050000000 1.0
END
