TITL C-1154802-8274-130 0.00128833746017781 125000 -343.980529511649 0 0 60 (C1) n - 1
REM
REM in /home/nfs/bkarasulu/CARBON/AIRSS/Generating-Clusters/AIREBO/Higher-Symm/Only-C60
REM
REM
REM
REM
REM
REM ./C.cell (28575a23ae977d3b5fae324c64b13b57)
REM
REM compiler GCC version 9.2.1 20190827 (Red Hat 9.2.1-1)
REM options -cpp -mtune=generic -march=x86-64 -g -O0 -fpre-include=/usr/include/finclude/math-vector-fortran.h
REM seed 633842812 -944755383 -1774013178 -269942520 533694234 -377732326 -1176946982 1199068886 1507023935 -543255289 694285665 1543057704 1614395283 364313036 -1893534992 -1923253444 -1488474939 2018173688 1540849170 267351421 633358769 987322440 -1025457253 29623506 -1327463978 1739469614 -139711113 913546740 1936271413 1358404162 16053432 194798359 1204781011
REM
CELL 1.54180   50.00000   50.00000   50.00000   90.00000   90.00000   90.00000
LATT -1
SFAC C  
C      1  0.4399530000000  0.4799590000000  0.4612110000000 1.0
C      1  0.5144710000000  0.4850110000000  0.4372790000000 1.0
C      1  0.5690830000000  0.4886750000000  0.4929580000000 1.0
C      1  0.5263860000000  0.4818560000000  0.5642470000000 1.0
C      1  0.4528600000000  0.4870740000000  0.5386140000000 1.0
C      1  0.4396320000000  0.5113560000000  0.4620410000000 1.0
C      1  0.5172430000000  0.5162060000000  0.4363240000000 1.0
C      1  0.5702490000000  0.5200460000000  0.4954110000000 1.0
C      1  0.5268500000000  0.5135990000000  0.5619610000000 1.0
C      1  0.4499080000000  0.5178970000000  0.5389350000000 1.0
C      1  0.5251310000000  0.5747900000000  0.5384430000000 1.0
C      1  0.4725360000000  0.5678550000000  0.5384900000000 1.0
C      1  0.4584160000000  0.5785710000000  0.4878600000000 1.0
C      1  0.5005130000000  0.5719200000000  0.4575420000000 1.0
C      1  0.5408100000000  0.5720990000000  0.4884100000000 1.0
C      1  0.5233400000000  0.4215110000000  0.5362670000000 1.0
C      1  0.4709100000000  0.4321700000000  0.5376230000000 1.0
C      1  0.4559100000000  0.4254400000000  0.4873990000000 1.0
C      1  0.4990920000000  0.4291810000000  0.4582970000000 1.0
C      1  0.5406460000000  0.4279370000000  0.4872400000000 1.0
C      1  0.5012940000000  0.4417630000000  0.5437430000000 1.0
C      1  0.4573750000000  0.4449700000000  0.5112520000000 1.0
C      1  0.4736460000000  0.4261140000000  0.4668020000000 1.0
C      1  0.5232710000000  0.4457760000000  0.4685630000000 1.0
C      1  0.5386350000000  0.4231590000000  0.5138300000000 1.0
C      1  0.5018770000000  0.5553700000000  0.5445800000000 1.0
C      1  0.4581410000000  0.5581800000000  0.5109910000000 1.0
C      1  0.4755680000000  0.5768100000000  0.4667980000000 1.0
C      1  0.5240400000000  0.5548770000000  0.4686180000000 1.0
C      1  0.5394800000000  0.5743180000000  0.5153530000000 1.0
C      1  0.5552380000000  0.5182950000000  0.5456650000000 1.0
C      1  0.4771450000000  0.5130420000000  0.5565240000000 1.0
C      1  0.4320850000000  0.5176220000000  0.4931840000000 1.0
C      1  0.4848270000000  0.5111440000000  0.4323340000000 1.0
C      1  0.5555070000000  0.5154570000000  0.4668290000000 1.0
C      1  0.5494290000000  0.4875880000000  0.5419000000000 1.0
C      1  0.4773000000000  0.4822290000000  0.5597780000000 1.0
C      1  0.4341040000000  0.4862720000000  0.4924920000000 1.0
C      1  0.4833190000000  0.4797010000000  0.4319610000000 1.0
C      1  0.5554790000000  0.4843260000000  0.4637720000000 1.0
C      1  0.5137910000000  0.4707170000000  0.4846690000000 1.0
C      1  0.5211920000000  0.4847040000000  0.5122620000000 1.0
C      1  0.5015170000000  0.4644560000000  0.5220270000000 1.0
C      1  0.4798610000000  0.4659780000000  0.5052040000000 1.0
C      1  0.4874790000000  0.4878000000000  0.4867400000000 1.0
C      1  0.5130020000000  0.5300310000000  0.4837340000000 1.0
C      1  0.5162860000000  0.5122640000000  0.5093520000000 1.0
C      1  0.5007870000000  0.5342540000000  0.5215130000000 1.0
C      1  0.4792350000000  0.5360760000000  0.5041690000000 1.0
C      1  0.4856530000000  0.5153440000000  0.4838700000000 1.0
C      1  0.5641450000000  0.4770560000000  0.5193130000000 1.0
C      1  0.5016210000000  0.4681430000000  0.5616900000000 1.0
C      1  0.4422220000000  0.4727230000000  0.5162940000000 1.0
C      1  0.4583490000000  0.4696130000000  0.4417830000000 1.0
C      1  0.5346410000000  0.4702650000000  0.4508430000000 1.0
C      1  0.5686690000000  0.5292540000000  0.5226250000000 1.0
C      1  0.5016150000000  0.5273550000000  0.5606890000000 1.0
C      1  0.4414000000000  0.5315560000000  0.5158010000000 1.0
C      1  0.4603290000000  0.5219780000000  0.4441780000000 1.0
C      1  0.5365060000000  0.5302670000000  0.4517220000000 1.0
END
