TITL C-1154803-8277-256 0.000962864224034371 125000 -339.579382841919 0 0 60 (C1) n - 1
REM
REM in /home/nfs/bkarasulu/CARBON/AIRSS/Generating-Clusters/AIREBO/Higher-Symm/Only-C60
REM
REM
REM
REM
REM
REM ./C.cell (28575a23ae977d3b5fae324c64b13b57)
REM
REM compiler GCC version 9.2.1 20190827 (Red Hat 9.2.1-1)
REM options -cpp -mtune=generic -march=x86-64 -g -O0 -fpre-include=/usr/include/finclude/math-vector-fortran.h
REM seed -148191924 380168264 1909808030 1172379205 116042529 152777089 -1040847605 1390625004 -137671664 -1708459481 -756699688 1923100469 -1059441732 1272221713 -978848640 1543287431 1300924152 1603722602 -401532360 1394807880 725821204 -800307773 -1345715145 -274602387 -2093618204 -952073845 1177571757 -1662330818 302199651 -818956309 1949148940 382002605 479339781
REM
CELL 1.54180   50.00000   50.00000   50.00000   90.00000   90.00000   90.00000
LATT -1
SFAC C  
C      1  0.4565850000000  0.4688440000000  0.4814340000000 1.0
C      1  0.4610510000000  0.4708600000000  0.5114170000000 1.0
C      1  0.4729070000000  0.4572360000000  0.5392160000000 1.0
C      1  0.4617870000000  0.4582600000000  0.4505950000000 1.0
C      1  0.5330750000000  0.5500530000000  0.5603040000000 1.0
C      1  0.5139910000000  0.5562410000000  0.4366990000000 1.0
C      1  0.5244210000000  0.5222510000000  0.5190940000000 1.0
C      1  0.5250040000000  0.5216840000000  0.4861020000000 1.0
C      1  0.5093490000000  0.4796500000000  0.4164690000000 1.0
C      1  0.4999710000000  0.4759150000000  0.5773790000000 1.0
C      1  0.5331060000000  0.5715950000000  0.5138080000000 1.0
C      1  0.5316100000000  0.5709060000000  0.4885700000000 1.0
C      1  0.4573240000000  0.5164920000000  0.5357580000000 1.0
C      1  0.4563480000000  0.5176260000000  0.4720000000000 1.0
C      1  0.5309490000000  0.5375380000000  0.4368620000000 1.0
C      1  0.5321450000000  0.5280880000000  0.5726980000000 1.0
C      1  0.4843610000000  0.5568570000000  0.4861250000000 1.0
C      1  0.4788970000000  0.5631220000000  0.5111600000000 1.0
C      1  0.4853050000000  0.4687110000000  0.4378790000000 1.0
C      1  0.4720130000000  0.4773360000000  0.5644050000000 1.0
C      1  0.5388380000000  0.4820130000000  0.5487340000000 1.0
C      1  0.5475300000000  0.4912180000000  0.4439950000000 1.0
C      1  0.5349140000000  0.4692160000000  0.4307230000000 1.0
C      1  0.5185970000000  0.4635580000000  0.5592090000000 1.0
C      1  0.5577460000000  0.5127700000000  0.4839560000000 1.0
C      1  0.5522470000000  0.5099380000000  0.5129020000000 1.0
C      1  0.5053700000000  0.4131450000000  0.5021860000000 1.0
C      1  0.5046400000000  0.4176120000000  0.5291560000000 1.0
C      1  0.4865450000000  0.5059610000000  0.5609390000000 1.0
C      1  0.4925590000000  0.5018950000000  0.4363510000000 1.0
C      1  0.4898790000000  0.5528160000000  0.5337760000000 1.0
C      1  0.4883120000000  0.5501080000000  0.4538950000000 1.0
C      1  0.4445170000000  0.5224530000000  0.4258680000000 1.0
C      1  0.4631510000000  0.5489140000000  0.5755380000000 1.0
C      1  0.4749520000000  0.5351090000000  0.5543660000000 1.0
C      1  0.4735590000000  0.5249210000000  0.4437900000000 1.0
C      1  0.5144240000000  0.5483500000000  0.4758720000000 1.0
C      1  0.5201930000000  0.5498650000000  0.5323310000000 1.0
C      1  0.4763070000000  0.4968200000000  0.4853870000000 1.0
C      1  0.4774560000000  0.4994360000000  0.5184850000000 1.0
C      1  0.5606660000000  0.4890210000000  0.4687040000000 1.0
C      1  0.5559820000000  0.4859190000000  0.5271520000000 1.0
C      1  0.4371380000000  0.4773190000000  0.4547930000000 1.0
C      1  0.4418210000000  0.4696660000000  0.5394880000000 1.0
C      1  0.5575550000000  0.4625470000000  0.5109280000000 1.0
C      1  0.5511440000000  0.4671410000000  0.4836670000000 1.0
C      1  0.4387850000000  0.4953340000000  0.5500330000000 1.0
C      1  0.4399810000000  0.5040720000000  0.4485900000000 1.0
C      1  0.5160350000000  0.4676840000000  0.5162780000000 1.0
C      1  0.5183420000000  0.4651190000000  0.4824080000000 1.0
C      1  0.5013100000000  0.4465830000000  0.5380300000000 1.0
C      1  0.5134860000000  0.4580780000000  0.4494980000000 1.0
C      1  0.5068220000000  0.4964230000000  0.4750930000000 1.0
C      1  0.5066080000000  0.4966320000000  0.5273860000000 1.0
C      1  0.5382210000000  0.4428770000000  0.5232870000000 1.0
C      1  0.5144950000000  0.4313910000000  0.4843720000000 1.0
C      1  0.5228510000000  0.5095400000000  0.4480700000000 1.0
C      1  0.5187500000000  0.5051670000000  0.5579930000000 1.0
C      1  0.4374390000000  0.5301890000000  0.4922210000000 1.0
C      1  0.4406350000000  0.5339130000000  0.5165710000000 1.0
END
