TITL C-1154823-9327-10 0.00155348635747529 125000 -307.918644529884 0 0 60 (C1) n - 1
REM
REM in /home/nfs/bkarasulu/CARBON/AIRSS/Generating-Clusters/AIREBO/Higher-Symm/Only-C60
REM
REM
REM
REM
REM
REM ./C.cell (28575a23ae977d3b5fae324c64b13b57)
REM
REM compiler GCC version 9.2.1 20190827 (Red Hat 9.2.1-1)
REM options -cpp -mtune=generic -march=x86-64 -g -O0 -fpre-include=/usr/include/finclude/math-vector-fortran.h
REM seed -15176889 -477177634 1516822176 434314313 1797474288 1246071121 1319298094 429130483 -1493217943 1222120342 983335785 431496750 -439371212 1094016312 860290375 -1129922853 1057100746 1756926429 -253957972 -159967545 1111238124 262493934 -1729729349 -340127263 -409029223 584859914 472045483 165735780 1330105081 593242459 -1982029488 -93398136 -485668734
REM
CELL 1.54180   50.00000   50.00000   50.00000   90.00000   90.00000   90.00000
LATT -1
SFAC C  
C      1  0.5182080000000  0.5637170000000  0.4681990000000 1.0
C      1  0.4838470000000  0.4368480000000  0.4668530000000 1.0
C      1  0.5153620000000  0.4398170000000  0.5352820000000 1.0
C      1  0.4820600000000  0.5610260000000  0.5339510000000 1.0
C      1  0.4601400000000  0.4788690000000  0.4622680000000 1.0
C      1  0.5425690000000  0.5200740000000  0.4654430000000 1.0
C      1  0.4583960000000  0.5168720000000  0.5331630000000 1.0
C      1  0.5457560000000  0.4785640000000  0.5332290000000 1.0
C      1  0.5092360000000  0.5224790000000  0.4655640000000 1.0
C      1  0.4921470000000  0.4845710000000  0.4722350000000 1.0
C      1  0.5119640000000  0.4807640000000  0.5312030000000 1.0
C      1  0.4910140000000  0.5189300000000  0.5330070000000 1.0
C      1  0.5358510000000  0.5493040000000  0.4528910000000 1.0
C      1  0.4662770000000  0.4505200000000  0.4505880000000 1.0
C      1  0.5339990000000  0.4535310000000  0.5502260000000 1.0
C      1  0.4649460000000  0.5450000000000  0.5481610000000 1.0
C      1  0.4287610000000  0.5124960000000  0.4783830000000 1.0
C      1  0.5706290000000  0.4855940000000  0.4893550000000 1.0
C      1  0.4259270000000  0.4810330000000  0.5144260000000 1.0
C      1  0.5744270000000  0.5121980000000  0.5196320000000 1.0
C      1  0.4833470000000  0.4445160000000  0.5423810000000 1.0
C      1  0.5128870000000  0.5585070000000  0.5414450000000 1.0
C      1  0.4878270000000  0.5609080000000  0.4604060000000 1.0
C      1  0.5155590000000  0.4419900000000  0.4586030000000 1.0
C      1  0.5242690000000  0.5641070000000  0.4952200000000 1.0
C      1  0.4774480000000  0.4371140000000  0.4943410000000 1.0
C      1  0.5231080000000  0.4369700000000  0.5087600000000 1.0
C      1  0.4754070000000  0.5636610000000  0.5070050000000 1.0
C      1  0.4482590000000  0.4871960000000  0.5385000000000 1.0
C      1  0.5430240000000  0.5124570000000  0.5333210000000 1.0
C      1  0.4588710000000  0.5128450000000  0.4625820000000 1.0
C      1  0.5494780000000  0.4874040000000  0.4629370000000 1.0
C      1  0.4545770000000  0.4546700000000  0.5326470000000 1.0
C      1  0.5431500000000  0.5464120000000  0.5351220000000 1.0
C      1  0.4579270000000  0.5468040000000  0.4640950000000 1.0
C      1  0.5441820000000  0.4541000000000  0.4678880000000 1.0
C      1  0.4696870000000  0.5136050000000  0.4949720000000 1.0
C      1  0.5237980000000  0.4903450000000  0.4842470000000 1.0
C      1  0.4653100000000  0.4849590000000  0.5088690000000 1.0
C      1  0.5289950000000  0.5130570000000  0.5023530000000 1.0
C      1  0.4520430000000  0.5527660000000  0.4922340000000 1.0
C      1  0.5478600000000  0.4473410000000  0.4955720000000 1.0
C      1  0.4519910000000  0.4474730000000  0.5052960000000 1.0
C      1  0.5489220000000  0.5542290000000  0.5077130000000 1.0
C      1  0.5097010000000  0.4595350000000  0.4871430000000 1.0
C      1  0.4897200000000  0.5400150000000  0.4871920000000 1.0
C      1  0.5102950000000  0.5391310000000  0.5136020000000 1.0
C      1  0.4890180000000  0.4623770000000  0.5139880000000 1.0
C      1  0.5175560000000  0.5414820000000  0.5697140000000 1.0
C      1  0.4908540000000  0.4618200000000  0.5682280000000 1.0
C      1  0.5038790000000  0.4571610000000  0.4325390000000 1.0
C      1  0.4853640000000  0.5429350000000  0.4333400000000 1.0
C      1  0.5584900000000  0.5277460000000  0.4939700000000 1.0
C      1  0.4422970000000  0.4722620000000  0.4872970000000 1.0
C      1  0.5606520000000  0.4687710000000  0.5087650000000 1.0
C      1  0.4406920000000  0.5268500000000  0.5068030000000 1.0
C      1  0.4871840000000  0.5124190000000  0.4440090000000 1.0
C      1  0.4969800000000  0.4829820000000  0.4389780000000 1.0
C      1  0.5016490000000  0.4854820000000  0.5601750000000 1.0
C      1  0.5162280000000  0.5133850000000  0.5536910000000 1.0
END
