TITL C-1154802-8274-605 -0.000378051295188488 125000 -310.288180385486 0 0 60 (C1) n - 1
REM
REM in /home/nfs/bkarasulu/CARBON/AIRSS/Generating-Clusters/AIREBO/Higher-Symm/Only-C60
REM
REM
REM
REM
REM
REM ./C.cell (28575a23ae977d3b5fae324c64b13b57)
REM
REM compiler GCC version 9.2.1 20190827 (Red Hat 9.2.1-1)
REM options -cpp -mtune=generic -march=x86-64 -g -O0 -fpre-include=/usr/include/finclude/math-vector-fortran.h
REM seed -289969501 -602899920 -206934209 -429895272 629856287 -1213333142 2118177337 989824702 -2050770742 2084495166 1684889989 685171377 -1985094219 723732230 682700022 -488736222 908439224 277197796 1302407280 1431813791 -1483190208 -1597631082 693593974 -2042890031 770534054 426602228 -1765908271 1023399092 425571215 -317082991 1071008482 -673236903 1206380870
REM
CELL 1.54180   50.00000   50.00000   50.00000   90.00000   90.00000   90.00000
LATT -1
SFAC C  
C      1  0.4653780000000  0.5131610000000  0.4821580000000 1.0
C      1  0.4688940000000  0.5171930000000  0.5133120000000 1.0
C      1  0.4876510000000  0.4856500000000  0.5282910000000 1.0
C      1  0.4797800000000  0.4765760000000  0.4749610000000 1.0
C      1  0.4524520000000  0.5533010000000  0.5126760000000 1.0
C      1  0.4571310000000  0.5450610000000  0.4806960000000 1.0
C      1  0.5122460000000  0.5030180000000  0.4804190000000 1.0
C      1  0.5142700000000  0.4932780000000  0.5095630000000 1.0
C      1  0.5664630000000  0.4927380000000  0.5635100000000 1.0
C      1  0.5563340000000  0.5048920000000  0.4348880000000 1.0
C      1  0.4626330000000  0.4288700000000  0.4912630000000 1.0
C      1  0.4635650000000  0.4412350000000  0.5170500000000 1.0
C      1  0.4441820000000  0.4931730000000  0.5385280000000 1.0
C      1  0.4398790000000  0.4999980000000  0.4472760000000 1.0
C      1  0.4250630000000  0.5012920000000  0.5112400000000 1.0
C      1  0.4282160000000  0.4987420000000  0.4794190000000 1.0
C      1  0.5344930000000  0.5242650000000  0.5739140000000 1.0
C      1  0.5321560000000  0.5482120000000  0.4138870000000 1.0
C      1  0.5415460000000  0.5031080000000  0.5482440000000 1.0
C      1  0.5361720000000  0.5055230000000  0.4563900000000 1.0
C      1  0.4863410000000  0.4345840000000  0.5349750000000 1.0
C      1  0.4815640000000  0.4368910000000  0.4715900000000 1.0
C      1  0.4827310000000  0.5655930000000  0.4898900000000 1.0
C      1  0.4797740000000  0.5656250000000  0.5225160000000 1.0
C      1  0.5002220000000  0.5322740000000  0.4830170000000 1.0
C      1  0.5002900000000  0.5209550000000  0.5140230000000 1.0
C      1  0.5470210000000  0.4438730000000  0.5161700000000 1.0
C      1  0.5471110000000  0.4400760000000  0.4910260000000 1.0
C      1  0.5492230000000  0.4870860000000  0.4818090000000 1.0
C      1  0.5529240000000  0.4925410000000  0.5179810000000 1.0
C      1  0.4871900000000  0.5046880000000  0.4574910000000 1.0
C      1  0.4777930000000  0.5130730000000  0.5458700000000 1.0
C      1  0.5300290000000  0.4695110000000  0.5280790000000 1.0
C      1  0.5305150000000  0.4602010000000  0.4727680000000 1.0
C      1  0.5164310000000  0.4813550000000  0.5566350000000 1.0
C      1  0.5162750000000  0.4789580000000  0.4482410000000 1.0
C      1  0.4831100000000  0.4432070000000  0.4437480000000 1.0
C      1  0.4879940000000  0.4426070000000  0.5621010000000 1.0
C      1  0.5839770000000  0.4976260000000  0.5137100000000 1.0
C      1  0.5786310000000  0.4916170000000  0.4874030000000 1.0
C      1  0.5014660000000  0.4565940000000  0.4859440000000 1.0
C      1  0.5005210000000  0.4564970000000  0.5164290000000 1.0
C      1  0.5312170000000  0.5343090000000  0.5354530000000 1.0
C      1  0.5342280000000  0.5387470000000  0.4635030000000 1.0
C      1  0.4677440000000  0.4872060000000  0.5625630000000 1.0
C      1  0.4644740000000  0.4903030000000  0.4379980000000 1.0
C      1  0.5190980000000  0.5399700000000  0.4364100000000 1.0
C      1  0.5137300000000  0.5414390000000  0.5627180000000 1.0
C      1  0.5499050000000  0.5470530000000  0.5131070000000 1.0
C      1  0.5526110000000  0.5468890000000  0.4885640000000 1.0
C      1  0.4906050000000  0.4705700000000  0.4370380000000 1.0
C      1  0.4915210000000  0.4708300000000  0.5659040000000 1.0
C      1  0.4943870000000  0.5293950000000  0.4384970000000 1.0
C      1  0.4873880000000  0.5385180000000  0.5593290000000 1.0
C      1  0.4338470000000  0.5284100000000  0.4637930000000 1.0
C      1  0.4408470000000  0.5255000000000  0.5285030000000 1.0
C      1  0.4588590000000  0.4711300000000  0.5183730000000 1.0
C      1  0.4540490000000  0.4823800000000  0.4912660000000 1.0
C      1  0.5103630000000  0.5524470000000  0.5155780000000 1.0
C      1  0.5154900000000  0.5601840000000  0.4823040000000 1.0
END
