TITL C-1154823-9327-683 0.000633464526585516 125000 -279.568120456891 0 0 60 (C1) n - 1
REM
REM in /home/nfs/bkarasulu/CARBON/AIRSS/Generating-Clusters/AIREBO/Higher-Symm/Only-C60
REM
REM
REM
REM
REM
REM ./C.cell (28575a23ae977d3b5fae324c64b13b57)
REM
REM compiler GCC version 9.2.1 20190827 (Red Hat 9.2.1-1)
REM options -cpp -mtune=generic -march=x86-64 -g -O0 -fpre-include=/usr/include/finclude/math-vector-fortran.h
REM seed 992808031 1035490204 799557414 72716725 -770791988 -1360053599 -277196637 1802216796 1536434834 -236582641 -632236437 1051871664 -240950867 1923058161 -659258074 -1027841664 -1957117328 2622746 1717006057 -83609253 957499180 -408853294 -1091534961 -1064203875 -922701138 -805462505 923372372 985064285 1690100340 1714699867 1884227104 -679874901 110164694
REM
CELL 1.54180   50.00000   50.00000   50.00000   90.00000   90.00000   90.00000
LATT -1
SFAC C  
C      1  0.5101380000000  0.5243800000000  0.5279500000000 1.0
C      1  0.4799010000000  0.5169110000000  0.5283270000000 1.0
C      1  0.4775130000000  0.4858910000000  0.5284270000000 1.0
C      1  0.5064180000000  0.4740780000000  0.5281950000000 1.0
C      1  0.5267670000000  0.4979500000000  0.5274550000000 1.0
C      1  0.4899950000000  0.5244560000000  0.4711730000000 1.0
C      1  0.5207930000000  0.5170450000000  0.4709010000000 1.0
C      1  0.5202060000000  0.4853170000000  0.4750790000000 1.0
C      1  0.4927090000000  0.4740980000000  0.4723890000000 1.0
C      1  0.4731410000000  0.4979330000000  0.4715070000000 1.0
C      1  0.4325800000000  0.4587580000000  0.5188640000000 1.0
C      1  0.5182790000000  0.4227650000000  0.5187930000000 1.0
C      1  0.5788440000000  0.4939170000000  0.5183330000000 1.0
C      1  0.5301480000000  0.5728550000000  0.5187800000000 1.0
C      1  0.4402340000000  0.5512120000000  0.5189310000000 1.0
C      1  0.5673370000000  0.4582750000000  0.4810180000000 1.0
C      1  0.4815240000000  0.4227770000000  0.4812460000000 1.0
C      1  0.4211320000000  0.4936380000000  0.4811960000000 1.0
C      1  0.4696210000000  0.5726140000000  0.4807560000000 1.0
C      1  0.5596700000000  0.5521600000000  0.4810220000000 1.0
C      1  0.4834570000000  0.5398200000000  0.4415520000000 1.0
C      1  0.4565420000000  0.4965150000000  0.4418610000000 1.0
C      1  0.4904460000000  0.4588240000000  0.4420870000000 1.0
C      1  0.5358220000000  0.4808770000000  0.4472590000000 1.0
C      1  0.5335080000000  0.5286390000000  0.4415550000000 1.0
C      1  0.5169530000000  0.5398090000000  0.5574750000000 1.0
C      1  0.5430660000000  0.4961060000000  0.5572440000000 1.0
C      1  0.5096500000000  0.4579660000000  0.5579670000000 1.0
C      1  0.4630130000000  0.4775740000000  0.5580390000000 1.0
C      1  0.4673860000000  0.5280990000000  0.5579020000000 1.0
C      1  0.5426390000000  0.5256200000000  0.5514210000000 1.0
C      1  0.4886100000000  0.5482220000000  0.5516370000000 1.0
C      1  0.4504760000000  0.5039680000000  0.5519810000000 1.0
C      1  0.4806220000000  0.4540110000000  0.5522300000000 1.0
C      1  0.5375850000000  0.4672150000000  0.5521560000000 1.0
C      1  0.4575420000000  0.5260080000000  0.4478450000000 1.0
C      1  0.5117280000000  0.5483620000000  0.4477410000000 1.0
C      1  0.5508150000000  0.5048580000000  0.4474710000000 1.0
C      1  0.5197480000000  0.4558190000000  0.4481450000000 1.0
C      1  0.4620350000000  0.4676510000000  0.4477520000000 1.0
C      1  0.4836950000000  0.4500170000000  0.4946360000000 1.0
C      1  0.5423870000000  0.4687590000000  0.4948260000000 1.0
C      1  0.5419200000000  0.5306370000000  0.4938180000000 1.0
C      1  0.4839850000000  0.5490200000000  0.4939070000000 1.0
C      1  0.4479780000000  0.4998960000000  0.4942930000000 1.0
C      1  0.5158660000000  0.4504050000000  0.5056880000000 1.0
C      1  0.4581340000000  0.4695290000000  0.5057760000000 1.0
C      1  0.4582220000000  0.5302490000000  0.5057810000000 1.0
C      1  0.5159740000000  0.5492600000000  0.5055170000000 1.0
C      1  0.5518730000000  0.4999320000000  0.5046000000000 1.0
C      1  0.5535030000000  0.5307860000000  0.5257930000000 1.0
C      1  0.4865230000000  0.5600480000000  0.5259790000000 1.0
C      1  0.4385380000000  0.5059520000000  0.5263990000000 1.0
C      1  0.4747060000000  0.4432530000000  0.5267290000000 1.0
C      1  0.5459120000000  0.4578190000000  0.5268310000000 1.0
C      1  0.4470420000000  0.5311490000000  0.4736740000000 1.0
C      1  0.5132830000000  0.5602000000000  0.4734280000000 1.0
C      1  0.5631640000000  0.5075020000000  0.4734200000000 1.0
C      1  0.5246810000000  0.4434980000000  0.4735730000000 1.0
C      1  0.4540220000000  0.4590960000000  0.4736680000000 1.0
END
