TITL C-1154804-8633-22 -0.000167608765090703 125000 -321.714301958068 0 0 60 (C1) n - 1
REM
REM in /home/nfs/bkarasulu/CARBON/AIRSS/Generating-Clusters/AIREBO/Higher-Symm/Only-C60
REM
REM
REM
REM
REM
REM ./C.cell (28575a23ae977d3b5fae324c64b13b57)
REM
REM compiler GCC version 9.2.1 20190827 (Red Hat 9.2.1-1)
REM options -cpp -mtune=generic -march=x86-64 -g -O0 -fpre-include=/usr/include/finclude/math-vector-fortran.h
REM seed 471546455 -67421594 -657171566 -2073794215 -1263921585 -1206529725 1788890953 469736464 1733915998 1769538345 798516986 1711207127 1080783706 -632379582 496363721 -1865821807 -1532288512 -185104132 -783579578 1520005114 -680733001 252366507 655336580 -1920807580 -841271942 900171597 -1006537842 1700735231 1295362052 2061851349 -1259941927 316557520 2051344173
REM
CELL 1.54180   50.00000   50.00000   50.00000   90.00000   90.00000   90.00000
LATT -1
SFAC C  
C      1  0.5000720000000  0.5266620000000  0.5562660000000 1.0
C      1  0.4428320000000  0.5245960000000  0.4674040000000 1.0
C      1  0.5564280000000  0.5131390000000  0.4688130000000 1.0
C      1  0.4973350000000  0.4946770000000  0.5622850000000 1.0
C      1  0.4410170000000  0.4932530000000  0.4617960000000 1.0
C      1  0.5574590000000  0.4800730000000  0.4752710000000 1.0
C      1  0.4439720000000  0.5576290000000  0.5351500000000 1.0
C      1  0.4933820000000  0.5613070000000  0.4531970000000 1.0
C      1  0.5498950000000  0.5591230000000  0.5162010000000 1.0
C      1  0.4473490000000  0.4469430000000  0.5173700000000 1.0
C      1  0.4973100000000  0.4451620000000  0.4345290000000 1.0
C      1  0.5453340000000  0.4467640000000  0.5420190000000 1.0
C      1  0.5144000000000  0.5207080000000  0.4289270000000 1.0
C      1  0.5530620000000  0.5214280000000  0.5524740000000 1.0
C      1  0.4296700000000  0.5153320000000  0.5188280000000 1.0
C      1  0.5177170000000  0.4887060000000  0.4319470000000 1.0
C      1  0.5489160000000  0.4916970000000  0.5536540000000 1.0
C      1  0.4345320000000  0.4843690000000  0.5118660000000 1.0
C      1  0.5092250000000  0.4420530000000  0.4610210000000 1.0
C      1  0.5318890000000  0.4312820000000  0.5170130000000 1.0
C      1  0.4738640000000  0.4291330000000  0.5152500000000 1.0
C      1  0.5133990000000  0.5593980000000  0.4807680000000 1.0
C      1  0.5225520000000  0.5587830000000  0.5106340000000 1.0
C      1  0.4583890000000  0.5603790000000  0.5094900000000 1.0
C      1  0.5299320000000  0.5319160000000  0.4767290000000 1.0
C      1  0.5075070000000  0.5378770000000  0.5263430000000 1.0
C      1  0.4641070000000  0.5342450000000  0.4884380000000 1.0
C      1  0.5295580000000  0.4628880000000  0.4761110000000 1.0
C      1  0.5128360000000  0.4537070000000  0.5347670000000 1.0
C      1  0.4698640000000  0.4554840000000  0.4933640000000 1.0
C      1  0.4459560000000  0.5293090000000  0.5444150000000 1.0
C      1  0.4869110000000  0.5352990000000  0.4361520000000 1.0
C      1  0.5639200000000  0.5308560000000  0.5250860000000 1.0
C      1  0.4431020000000  0.4667900000000  0.5388600000000 1.0
C      1  0.4913390000000  0.4714510000000  0.4287370000000 1.0
C      1  0.5635710000000  0.4686860000000  0.5377030000000 1.0
C      1  0.4687470000000  0.4797150000000  0.5523910000000 1.0
C      1  0.4682420000000  0.4841710000000  0.4468770000000 1.0
C      1  0.5700160000000  0.4762710000000  0.5066470000000 1.0
C      1  0.4687600000000  0.5133460000000  0.5573900000000 1.0
C      1  0.4653380000000  0.5179420000000  0.4429170000000 1.0
C      1  0.5703950000000  0.5082690000000  0.5001810000000 1.0
C      1  0.5461170000000  0.5205930000000  0.4412370000000 1.0
C      1  0.5310460000000  0.5354540000000  0.5634070000000 1.0
C      1  0.4221900000000  0.5308940000000  0.4922760000000 1.0
C      1  0.5468980000000  0.4808050000000  0.4449780000000 1.0
C      1  0.5215880000000  0.4829840000000  0.5699620000000 1.0
C      1  0.4274900000000  0.4791610000000  0.4816270000000 1.0
C      1  0.4833950000000  0.4577970000000  0.5308570000000 1.0
C      1  0.4817600000000  0.4611260000000  0.4677190000000 1.0
C      1  0.5388540000000  0.4626850000000  0.5059980000000 1.0
C      1  0.4773510000000  0.5383120000000  0.5256020000000 1.0
C      1  0.4902830000000  0.5361660000000  0.4758780000000 1.0
C      1  0.5400750000000  0.5223740000000  0.5038210000000 1.0
C      1  0.4627940000000  0.5123480000000  0.5128460000000 1.0
C      1  0.5080540000000  0.5131610000000  0.4617580000000 1.0
C      1  0.5185690000000  0.5088220000000  0.5202030000000 1.0
C      1  0.4688340000000  0.4820350000000  0.5125420000000 1.0
C      1  0.5075960000000  0.4817510000000  0.4636560000000 1.0
C      1  0.5270040000000  0.4827120000000  0.5303500000000 1.0
END
