TITL C-1154802-8274-378 2856.17020554403 125000 -340.969274266891 0 0 60 (C1) n - 1
REM
REM in /home/nfs/bkarasulu/CARBON/AIRSS/Generating-Clusters/AIREBO/Higher-Symm/Only-C60
REM
REM
REM
REM
REM
REM ./C.cell (28575a23ae977d3b5fae324c64b13b57)
REM
REM compiler GCC version 9.2.1 20190827 (Red Hat 9.2.1-1)
REM options -cpp -mtune=generic -march=x86-64 -g -O0 -fpre-include=/usr/include/finclude/math-vector-fortran.h
REM seed 1198625951 -1102354567 -798830264 -1502943546 -1698796009 175873937 -488338294 -2129064915 -1562220573 217774956 -2007525751 663509024 1682290982 606419084 -882673650 1108749964 954673545 -1499947112 1103370000 468099967 -1262610459 1273012241 1867097027 1015481492 1922181778 -1714795441 1410582961 38758821 -2147304703 -655425767 1672507718 2005850129 -512267339
REM
CELL 1.54180   50.00000   50.00000   50.00000   90.00000   90.00000   90.00000
LATT -1
SFAC C  
C      1  0.5105320000000  0.5844130000000  0.5417750000000 1.0
C      1  0.4726960000000  0.4670130000000  0.4565150000000 1.0
C      1  0.4951170000000  0.5149120000000  0.5701220000000 1.0
C      1  0.5459040000000  0.5317280000000  0.4636820000000 1.0
C      1  0.5133230000000  0.4525930000000  0.5063420000000 1.0
C      1  0.4315030000000  0.5316260000000  0.4678190000000 1.0
C      1  0.4346130000000  0.4542950000000  0.5194940000000 1.0
C      1  0.4677340000000  0.5692680000000  0.5405220000000 1.0
C      1  0.4763340000000  0.5055650000000  0.4661210000000 1.0
C      1  0.5076520000000  0.5162000000000  0.5058310000000 1.0
C      1  0.4168610000000  0.5164130000000  0.5155680000000 1.0
C      1  0.5576970000000  0.4422080000000  0.4829390000000 1.0
C      1  0.4391860000000  0.4780120000000  0.5397340000000 1.0
C      1  0.4307260000000  0.5080470000000  0.5385890000000 1.0
C      1  0.4782010000000  0.5331080000000  0.5077650000000 1.0
C      1  0.4909630000000  0.4298410000000  0.5149480000000 1.0
C      1  0.5419620000000  0.4820170000000  0.5436110000000 1.0
C      1  0.5670060000000  0.4877720000000  0.4715440000000 1.0
C      1  0.5273900000000  0.5325680000000  0.5262110000000 1.0
C      1  0.5231040000000  0.5316440000000  0.4828730000000 1.0
C      1  0.4633790000000  0.5351770000000  0.4598320000000 1.0
C      1  0.4314760000000  0.5184610000000  0.4918480000000 1.0
C      1  0.4644740000000  0.5432160000000  0.5326850000000 1.0
C      1  0.4945410000000  0.4208600000000  0.4677430000000 1.0
C      1  0.4810030000000  0.4902920000000  0.4375430000000 1.0
C      1  0.4996760000000  0.4833750000000  0.5016210000000 1.0
C      1  0.5535120000000  0.5068410000000  0.4538290000000 1.0
C      1  0.5786170000000  0.5153360000000  0.5106530000000 1.0
C      1  0.5013760000000  0.6083280000000  0.5473500000000 1.0
C      1  0.4709760000000  0.4719070000000  0.4869530000000 1.0
C      1  0.5404050000000  0.4631610000000  0.4423330000000 1.0
C      1  0.5703210000000  0.4905540000000  0.5001930000000 1.0
C      1  0.5558050000000  0.4734370000000  0.5181400000000 1.0
C      1  0.4916250000000  0.4879120000000  0.5343410000000 1.0
C      1  0.4513940000000  0.4506130000000  0.5012640000000 1.0
C      1  0.5442460000000  0.4516760000000  0.5057900000000 1.0
C      1  0.5432800000000  0.5829840000000  0.4468110000000 1.0
C      1  0.5182260000000  0.4257990000000  0.4860340000000 1.0
C      1  0.4805420000000  0.4149980000000  0.4937820000000 1.0
C      1  0.5346310000000  0.4926970000000  0.4354180000000 1.0
C      1  0.4606180000000  0.5094250000000  0.4956670000000 1.0
C      1  0.5449600000000  0.5141410000000  0.5488350000000 1.0
C      1  0.5610810000000  0.4610970000000  0.4621690000000 1.0
C      1  0.5071620000000  0.4956530000000  0.4267680000000 1.0
C      1  0.4629720000000  0.4854290000000  0.5171080000000 1.0
C      1  0.5335590000000  0.5611410000000  0.4583510000000 1.0
C      1  0.4905480000000  0.4432210000000  0.4510400000000 1.0
C      1  0.5202950000000  0.4644760000000  0.5621570000000 1.0
C      1  0.4692340000000  0.5076690000000  0.5650430000000 1.0
C      1  0.5607420000000  0.5290000000000  0.5248020000000 1.0
C      1  0.4800830000000  0.5501880000000  0.4807340000000 1.0
C      1  0.5144420000000  0.5018480000000  0.5494470000000 1.0
C      1  0.5123190000000  0.4646740000000  0.4530660000000 1.0
C      1  0.5064010000000  0.5548130000000  0.4738480000000 1.0
C      1  0.4677540000000  0.4766970000000  0.5558040000000 1.0
C      1  0.4956440000000  0.4607150000000  0.5633350000000 1.0
C      1  0.5193280000000  0.5608680000000  0.5336840000000 1.0
C      1  0.4375320000000  0.5509260000000  0.4440070000000 1.0
C      1  0.4521380000000  0.5234450000000  0.5490110000000 1.0
C      1  0.5051800000000  0.4877070000000  0.4689570000000 1.0
END
