TITL C-1154830-9999-667 0.0039858378368409 125000 -343.698678108144 0 0 60 (S4) n - 1
REM
REM in /home/nfs/bkarasulu/CARBON/AIRSS/Generating-Clusters/AIREBO/Higher-Symm/Only-C60
REM
REM
REM
REM
REM
REM ./C.cell (28575a23ae977d3b5fae324c64b13b57)
REM
REM compiler GCC version 9.2.1 20190827 (Red Hat 9.2.1-1)
REM options -cpp -mtune=generic -march=x86-64 -g -O0 -fpre-include=/usr/include/finclude/math-vector-fortran.h
REM seed 1570887432 363900012 1211572643 681269679 -246545379 15231987 1380014283 -1669354711 -980603506 -1172573473 -159733129 -1032138792 -1828586142 -124188334 263873270 -471109910 -1612761780 -641719376 -38505480 1442115971 -792434465 1910266511 1454292244 87818781 421770915 -911101506 -220111189 2094808607 1426102967 -1014045820 328835251 1398609035 1265754100
REM
CELL 1.54180   50.00000   50.00000   50.00000   90.00000   90.00000   90.00000
LATT -1
SFAC C  
C      1  0.4328890000000  0.4489240000000  0.4662840000000 1.0
C      1  0.4607060000000  0.5256370000000  0.4480920000000 1.0
C      1  0.4900210000000  0.4690090000000  0.4334750000000 1.0
C      1  0.5337130000000  0.5510900000000  0.4328980000000 1.0
C      1  0.5519100000000  0.4743730000000  0.4607020000000 1.0
C      1  0.5665230000000  0.5309970000000  0.4900270000000 1.0
C      1  0.5671050000000  0.4489090000000  0.5337040000000 1.0
C      1  0.5392960000000  0.5256210000000  0.5519140000000 1.0
C      1  0.5099750000000  0.4689920000000  0.5665170000000 1.0
C      1  0.4662930000000  0.5510770000000  0.5671140000000 1.0
C      1  0.4480870000000  0.4743690000000  0.5392920000000 1.0
C      1  0.4334810000000  0.5310020000000  0.5099810000000 1.0
C      1  0.4969920000000  0.5049610000000  0.4492190000000 1.0
C      1  0.5253200000000  0.4946460000000  0.4545200000000 1.0
C      1  0.5452000000000  0.5123640000000  0.4710600000000 1.0
C      1  0.5507810000000  0.4950430000000  0.4969910000000 1.0
C      1  0.5454790000000  0.5053530000000  0.5253210000000 1.0
C      1  0.5289410000000  0.4876300000000  0.5451980000000 1.0
C      1  0.5030080000000  0.5049480000000  0.5507820000000 1.0
C      1  0.4746800000000  0.4946380000000  0.5454780000000 1.0
C      1  0.4548010000000  0.5123620000000  0.5289430000000 1.0
C      1  0.4492180000000  0.4950480000000  0.5030070000000 1.0
C      1  0.4545210000000  0.5053640000000  0.4746810000000 1.0
C      1  0.4710570000000  0.4876440000000  0.4547990000000 1.0
C      1  0.4912570000000  0.4486040000000  0.5261010000000 1.0
C      1  0.4793880000000  0.5538000000000  0.5181450000000 1.0
C      1  0.4735680000000  0.4497430000000  0.5053070000000 1.0
C      1  0.4738950000000  0.5513960000000  0.4912660000000 1.0
C      1  0.4818580000000  0.4462030000000  0.4793790000000 1.0
C      1  0.4946900000000  0.5502610000000  0.4735770000000 1.0
C      1  0.5087370000000  0.4486090000000  0.4738860000000 1.0
C      1  0.5206180000000  0.5538020000000  0.4818670000000 1.0
C      1  0.5264260000000  0.4497410000000  0.4946810000000 1.0
C      1  0.5261100000000  0.5513910000000  0.5087460000000 1.0
C      1  0.5181360000000  0.4461960000000  0.5206080000000 1.0
C      1  0.5053150000000  0.5502540000000  0.5264350000000 1.0
C      1  0.5630190000000  0.5447690000000  0.5475820000000 1.0
C      1  0.5291940000000  0.4465980000000  0.5740320000000 1.0
C      1  0.4906190000000  0.5480870000000  0.5737350000000 1.0
C      1  0.4524210000000  0.4552170000000  0.5630110000000 1.0
C      1  0.4259640000000  0.5533920000000  0.5292030000000 1.0
C      1  0.4262680000000  0.4519100000000  0.4906110000000 1.0
C      1  0.4369860000000  0.5447870000000  0.4524290000000 1.0
C      1  0.4708000000000  0.4466190000000  0.4259550000000 1.0
C      1  0.5093860000000  0.5481040000000  0.4262760000000 1.0
C      1  0.5475740000000  0.4552270000000  0.4369780000000 1.0
C      1  0.5740410000000  0.5533900000000  0.4708090000000 1.0
C      1  0.5737270000000  0.4518990000000  0.5093780000000 1.0
C      1  0.4838240000000  0.4625410000000  0.5519830000000 1.0
C      1  0.4577220000000  0.5450250000000  0.5380270000000 1.0
C      1  0.4471340000000  0.4644790000000  0.5094120000000 1.0
C      1  0.4480140000000  0.5374580000000  0.4838300000000 1.0
C      1  0.4619760000000  0.4549800000000  0.4577140000000 1.0
C      1  0.4905860000000  0.5355300000000  0.4471410000000 1.0
C      1  0.5161720000000  0.4625520000000  0.4480080000000 1.0
C      1  0.5422830000000  0.5450290000000  0.4619840000000 1.0
C      1  0.5528620000000  0.4644750000000  0.4905800000000 1.0
C      1  0.5519900000000  0.5374490000000  0.5161790000000 1.0
C      1  0.5380190000000  0.4549660000000  0.5422750000000 1.0
C      1  0.5094180000000  0.5355160000000  0.5528680000000 1.0
END
