TITL C-1154823-9327-610 -0.000516274211803361 125000 -346.574125220189 0 0 60 (C1) n - 1
REM
REM in /home/nfs/bkarasulu/CARBON/AIRSS/Generating-Clusters/AIREBO/Higher-Symm/Only-C60
REM
REM
REM
REM
REM
REM ./C.cell (28575a23ae977d3b5fae324c64b13b57)
REM
REM compiler GCC version 9.2.1 20190827 (Red Hat 9.2.1-1)
REM options -cpp -mtune=generic -march=x86-64 -g -O0 -fpre-include=/usr/include/finclude/math-vector-fortran.h
REM seed -957119773 873462235 -1236411916 2034273241 1837687579 1791575012 -2028368676 -1214932069 1362500651 1781915431 1615122638 -34071475 -1186970681 -1200104973 110163249 2017413513 -2060882190 -150170346 -223083540 -767270272 -399404229 797440440 1511370295 -119635 449738224 1571414990 -1139848519 -311430447 1409013130 1000948373 1378981927 -98985186 948180389
REM
CELL 1.54180   50.00000   50.00000   50.00000   90.00000   90.00000   90.00000
LATT -1
SFAC C  
C      1  0.4264110000000  0.4633280000000  0.5097950000000 1.0
C      1  0.5133060000000  0.4181820000000  0.5031520000000 1.0
C      1  0.5780170000000  0.4848600000000  0.5047200000000 1.0
C      1  0.5385940000000  0.5768710000000  0.5020520000000 1.0
C      1  0.4469470000000  0.5597800000000  0.4906190000000 1.0
C      1  0.4259800000000  0.5382870000000  0.4949010000000 1.0
C      1  0.5097360000000  0.5828660000000  0.5102880000000 1.0
C      1  0.5810140000000  0.5145040000000  0.5050670000000 1.0
C      1  0.5425580000000  0.4247920000000  0.4960110000000 1.0
C      1  0.4421530000000  0.4374510000000  0.5039690000000 1.0
C      1  0.5257160000000  0.5403690000000  0.4922770000000 1.0
C      1  0.4792510000000  0.5321840000000  0.4796360000000 1.0
C      1  0.4569620000000  0.4879840000000  0.5022110000000 1.0
C      1  0.5022070000000  0.4562360000000  0.4978150000000 1.0
C      1  0.5373130000000  0.4910820000000  0.4903940000000 1.0
C      1  0.5295740000000  0.4678090000000  0.5027450000000 1.0
C      1  0.4695030000000  0.4644380000000  0.4929170000000 1.0
C      1  0.4569060000000  0.5148170000000  0.4846460000000 1.0
C      1  0.4982480000000  0.5429260000000  0.5007910000000 1.0
C      1  0.5412160000000  0.5156610000000  0.5023410000000 1.0
C      1  0.5002480000000  0.4538260000000  0.5499300000000 1.0
C      1  0.5450700000000  0.4831760000000  0.5450470000000 1.0
C      1  0.5225600000000  0.5281110000000  0.5551940000000 1.0
C      1  0.4759330000000  0.5322330000000  0.5657350000000 1.0
C      1  0.4561230000000  0.4856780000000  0.5544090000000 1.0
C      1  0.4983350000000  0.5422110000000  0.5525290000000 1.0
C      1  0.5431800000000  0.5113530000000  0.5459490000000 1.0
C      1  0.5250160000000  0.4660540000000  0.5561390000000 1.0
C      1  0.4759140000000  0.4659050000000  0.5575100000000 1.0
C      1  0.4600950000000  0.5102150000000  0.5670970000000 1.0
C      1  0.4350450000000  0.5130350000000  0.5108520000000 1.0
C      1  0.4700120000000  0.4384470000000  0.5132980000000 1.0
C      1  0.5514340000000  0.4475860000000  0.5103870000000 1.0
C      1  0.5620100000000  0.5265990000000  0.5263060000000 1.0
C      1  0.4948540000000  0.5600680000000  0.5287430000000 1.0
C      1  0.4392730000000  0.4854750000000  0.5298440000000 1.0
C      1  0.4689100000000  0.5595500000000  0.5068890000000 1.0
C      1  0.5496250000000  0.5524820000000  0.5139880000000 1.0
C      1  0.5625230000000  0.4712370000000  0.5250670000000 1.0
C      1  0.4984330000000  0.4369650000000  0.5247650000000 1.0
C      1  0.4952320000000  0.4541220000000  0.4645870000000 1.0
C      1  0.5428310000000  0.4851730000000  0.4598070000000 1.0
C      1  0.5319610000000  0.5434030000000  0.4610420000000 1.0
C      1  0.4793820000000  0.5503620000000  0.4576060000000 1.0
C      1  0.4391600000000  0.4805150000000  0.4552690000000 1.0
C      1  0.5045400000000  0.5631050000000  0.4564210000000 1.0
C      1  0.5482320000000  0.5185760000000  0.4550410000000 1.0
C      1  0.5276110000000  0.4575520000000  0.4550570000000 1.0
C      1  0.4632060000000  0.4571370000000  0.4608850000000 1.0
C      1  0.4400830000000  0.5073430000000  0.4586250000000 1.0
C      1  0.4412010000000  0.4339430000000  0.4731700000000 1.0
C      1  0.5414000000000  0.4305600000000  0.4640350000000 1.0
C      1  0.5699080000000  0.5102260000000  0.4750310000000 1.0
C      1  0.5082220000000  0.5858430000000  0.4780040000000 1.0
C      1  0.4301100000000  0.5357090000000  0.4637280000000 1.0
C      1  0.4513550000000  0.5593880000000  0.4589440000000 1.0
C      1  0.5391460000000  0.5750310000000  0.4712510000000 1.0
C      1  0.5723050000000  0.4779890000000  0.4751710000000 1.0
C      1  0.5104610000000  0.4262170000000  0.4728340000000 1.0
C      1  0.4274510000000  0.4631740000000  0.4774670000000 1.0
END
