TITL C-1154825-9328-125 -0.00196478677307712 125000 -335.670356470649 0 0 60 (C1) n - 1
REM
REM in /home/nfs/bkarasulu/CARBON/AIRSS/Generating-Clusters/AIREBO/Higher-Symm/Only-C60
REM
REM
REM
REM
REM
REM ./C.cell (28575a23ae977d3b5fae324c64b13b57)
REM
REM compiler GCC version 9.2.1 20190827 (Red Hat 9.2.1-1)
REM options -cpp -mtune=generic -march=x86-64 -g -O0 -fpre-include=/usr/include/finclude/math-vector-fortran.h
REM seed 126734721 140041841 -831748257 -277641403 895929640 1005746987 1012660976 799283311 681407638 1668861097 -545554741 180027134 -909098844 -1675659075 -1050045672 -136445211 -868575907 2145646031 1056562531 869109790 1507489274 382900847 535147274 718156994 111181078 -805197815 1047281821 900695832 -349725401 1578723116 899176988 -855546380 -150373728
REM
CELL 1.54180   50.00000   50.00000   50.00000   90.00000   90.00000   90.00000
LATT -1
SFAC C  
C      1  0.4770650000000  0.5397570000000  0.4364220000000 1.0
C      1  0.4383630000000  0.4801440000000  0.5444610000000 1.0
C      1  0.5369690000000  0.4368380000000  0.4782860000000 1.0
C      1  0.5200700000000  0.5397290000000  0.5603510000000 1.0
C      1  0.4853910000000  0.4592040000000  0.5596300000000 1.0
C      1  0.5239750000000  0.4575460000000  0.4350120000000 1.0
C      1  0.5632330000000  0.4748440000000  0.4601380000000 1.0
C      1  0.4344410000000  0.5221360000000  0.4552360000000 1.0
C      1  0.5627720000000  0.5252500000000  0.5394400000000 1.0
C      1  0.4616750000000  0.4445570000000  0.5184320000000 1.0
C      1  0.5390270000000  0.5636370000000  0.5181050000000 1.0
C      1  0.4607920000000  0.5568480000000  0.4800350000000 1.0
C      1  0.4349860000000  0.5416860000000  0.4758700000000 1.0
C      1  0.5411620000000  0.4789760000000  0.4404250000000 1.0
C      1  0.4789570000000  0.4376830000000  0.5389840000000 1.0
C      1  0.5622510000000  0.5430590000000  0.5177360000000 1.0
C      1  0.5570790000000  0.4590050000000  0.4822280000000 1.0
C      1  0.4373060000000  0.4611460000000  0.5227000000000 1.0
C      1  0.4638760000000  0.4772840000000  0.5629600000000 1.0
C      1  0.4584320000000  0.5186780000000  0.4372480000000 1.0
C      1  0.5406950000000  0.5210660000000  0.5607120000000 1.0
C      1  0.5170130000000  0.4401270000000  0.4587190000000 1.0
C      1  0.5200730000000  0.5605530000000  0.5382650000000 1.0
C      1  0.4803710000000  0.5567300000000  0.4610090000000 1.0
C      1  0.4881920000000  0.4422400000000  0.4663490000000 1.0
C      1  0.4725490000000  0.4886950000000  0.4417720000000 1.0
C      1  0.4496230000000  0.4708300000000  0.4909020000000 1.0
C      1  0.5120240000000  0.4434310000000  0.5345860000000 1.0
C      1  0.4900920000000  0.5448640000000  0.5348410000000 1.0
C      1  0.5125860000000  0.5581050000000  0.4696280000000 1.0
C      1  0.5307450000000  0.4885430000000  0.5580560000000 1.0
C      1  0.4656400000000  0.5083530000000  0.5500490000000 1.0
C      1  0.5263450000000  0.5065820000000  0.4477570000000 1.0
C      1  0.5491310000000  0.4758770000000  0.5091830000000 1.0
C      1  0.4444360000000  0.5332340000000  0.5074420000000 1.0
C      1  0.5571150000000  0.5277310000000  0.4878220000000 1.0
C      1  0.4765680000000  0.4525210000000  0.4908350000000 1.0
C      1  0.4474460000000  0.4900330000000  0.4627220000000 1.0
C      1  0.4900400000000  0.4622800000000  0.4392980000000 1.0
C      1  0.5301710000000  0.4474960000000  0.5092820000000 1.0
C      1  0.5374420000000  0.5545380000000  0.4888350000000 1.0
C      1  0.4687860000000  0.5565300000000  0.5123440000000 1.0
C      1  0.5512020000000  0.4938580000000  0.5338630000000 1.0
C      1  0.5573440000000  0.5087530000000  0.4615600000000 1.0
C      1  0.4377670000000  0.5125000000000  0.5338250000000 1.0
C      1  0.5172990000000  0.4611260000000  0.5628270000000 1.0
C      1  0.5096370000000  0.5339330000000  0.4468930000000 1.0
C      1  0.4883010000000  0.5287610000000  0.5644490000000 1.0
C      1  0.4976970000000  0.5491230000000  0.4962340000000 1.0
C      1  0.4874100000000  0.4887390000000  0.5327520000000 1.0
C      1  0.5372210000000  0.4936570000000  0.4839890000000 1.0
C      1  0.4954310000000  0.4657870000000  0.5158280000000 1.0
C      1  0.5152220000000  0.4701940000000  0.4887790000000 1.0
C      1  0.4546670000000  0.4951430000000  0.5116310000000 1.0
C      1  0.5362220000000  0.5136890000000  0.5104740000000 1.0
C      1  0.4565340000000  0.5098490000000  0.4859250000000 1.0
C      1  0.5121160000000  0.5303440000000  0.5133500000000 1.0
C      1  0.5067020000000  0.4822510000000  0.4611760000000 1.0
C      1  0.4895540000000  0.5109050000000  0.4609100000000 1.0
C      1  0.5047660000000  0.5030230000000  0.5514290000000 1.0
END
