TITL C-1154808-8168-323 -0.00841004545322486 125000 -333.40812634786 0 0 60 (C1) n - 1
REM
REM in /home/nfs/bkarasulu/CARBON/AIRSS/Generating-Clusters/AIREBO/Higher-Symm/Only-C60
REM
REM
REM
REM
REM
REM ./C.cell (28575a23ae977d3b5fae324c64b13b57)
REM
REM compiler GCC version 9.2.1 20190827 (Red Hat 9.2.1-1)
REM options -cpp -mtune=generic -march=x86-64 -g -O0 -fpre-include=/usr/include/finclude/math-vector-fortran.h
REM seed -1301399382 1388345144 -669257009 -1023592530 868690878 -222687040 -582927695 1038381965 1604532666 -10555136 930742141 1332618966 -1531376588 -251472 1665002413 -1897268019 -151290254 -1255985025 617217809 -907337113 -1024935276 508314648 -2074888500 -1670599173 658758007 1288845615 171440956 947404986 1448886917 -1467208954 -1931842181 -1073023624 -8167832
REM
CELL 1.54180   50.00000   50.00000   50.00000   90.00000   90.00000   90.00000
LATT -1
SFAC C  
C      1  0.4992070000000  0.4572220000000  0.5436590000000 1.0
C      1  0.4900230000000  0.5628350000000  0.4601600000000 1.0
C      1  0.5362040000000  0.5657600000000  0.4669390000000 1.0
C      1  0.4674770000000  0.4335400000000  0.5465990000000 1.0
C      1  0.5147450000000  0.4198080000000  0.4848910000000 1.0
C      1  0.4740880000000  0.5667050000000  0.5108030000000 1.0
C      1  0.4494450000000  0.4650310000000  0.4808200000000 1.0
C      1  0.5336290000000  0.5324330000000  0.5230360000000 1.0
C      1  0.5158530000000  0.5080480000000  0.5172900000000 1.0
C      1  0.4733740000000  0.5078190000000  0.4721280000000 1.0
C      1  0.5533980000000  0.4928840000000  0.4607660000000 1.0
C      1  0.4535880000000  0.4833770000000  0.5336490000000 1.0
C      1  0.5045870000000  0.5158110000000  0.4861510000000 1.0
C      1  0.4994070000000  0.4815300000000  0.5037820000000 1.0
C      1  0.5546120000000  0.4802910000000  0.4984880000000 1.0
C      1  0.4451490000000  0.5122770000000  0.5024140000000 1.0
C      1  0.4672730000000  0.5495430000000  0.5316580000000 1.0
C      1  0.5230190000000  0.4402620000000  0.4689400000000 1.0
C      1  0.5273160000000  0.4929520000000  0.4826480000000 1.0
C      1  0.4780980000000  0.5081770000000  0.5046200000000 1.0
C      1  0.5531110000000  0.5217160000000  0.4724070000000 1.0
C      1  0.4680850000000  0.4700280000000  0.5086210000000 1.0
C      1  0.5828380000000  0.4819280000000  0.5387730000000 1.0
C      1  0.4176450000000  0.5178680000000  0.4621990000000 1.0
C      1  0.4973690000000  0.4577520000000  0.4577280000000 1.0
C      1  0.4957210000000  0.5479570000000  0.5503000000000 1.0
C      1  0.4678900000000  0.4652710000000  0.5542430000000 1.0
C      1  0.5428720000000  0.5406530000000  0.4556320000000 1.0
C      1  0.4215920000000  0.4746320000000  0.5262360000000 1.0
C      1  0.5714530000000  0.4918680000000  0.4389240000000 1.0
C      1  0.5028140000000  0.5679360000000  0.5058190000000 1.0
C      1  0.4914400000000  0.4271410000000  0.4992770000000 1.0
C      1  0.5277800000000  0.5299500000000  0.4336590000000 1.0
C      1  0.4857950000000  0.4785400000000  0.5770560000000 1.0
C      1  0.5037030000000  0.5147750000000  0.4363710000000 1.0
C      1  0.5056690000000  0.4951750000000  0.5684610000000 1.0
C      1  0.5609040000000  0.4697480000000  0.5256610000000 1.0
C      1  0.4360040000000  0.5305270000000  0.4797520000000 1.0
C      1  0.5021670000000  0.4858570000000  0.4383410000000 1.0
C      1  0.5028290000000  0.5241040000000  0.5740760000000 1.0
C      1  0.5822700000000  0.5093940000000  0.5432840000000 1.0
C      1  0.4302080000000  0.4971580000000  0.4487050000000 1.0
C      1  0.5384520000000  0.4634510000000  0.5402810000000 1.0
C      1  0.4553310000000  0.5451000000000  0.4664550000000 1.0
C      1  0.4788700000000  0.4502610000000  0.4831460000000 1.0
C      1  0.5162680000000  0.5552160000000  0.5279180000000 1.0
C      1  0.4541010000000  0.5174410000000  0.5348100000000 1.0
C      1  0.5471780000000  0.4610100000000  0.4708450000000 1.0
C      1  0.5558250000000  0.5142060000000  0.5006430000000 1.0
C      1  0.4319550000000  0.4847490000000  0.5001570000000 1.0
C      1  0.5270590000000  0.4403080000000  0.5540180000000 1.0
C      1  0.4613930000000  0.5748890000000  0.4600390000000 1.0
C      1  0.4528610000000  0.4882660000000  0.4610420000000 1.0
C      1  0.5645360000000  0.5242330000000  0.5295270000000 1.0
C      1  0.4778540000000  0.5203650000000  0.5548020000000 1.0
C      1  0.5288810000000  0.4692490000000  0.4433800000000 1.0
C      1  0.4885080000000  0.4297120000000  0.5262250000000 1.0
C      1  0.5106000000000  0.5686790000000  0.4783930000000 1.0
C      1  0.4828830000000  0.5304110000000  0.4527090000000 1.0
C      1  0.5167960000000  0.4861690000000  0.5406460000000 1.0
END
