TITL C-1154828-9214-400 0.00368144327413828 125000 -394.442620242027 0 0 60 (C1) n - 1
REM
REM in /home/nfs/bkarasulu/CARBON/AIRSS/Generating-Clusters/AIREBO/Higher-Symm/Only-C60
REM
REM
REM
REM
REM
REM ./C.cell (28575a23ae977d3b5fae324c64b13b57)
REM
REM compiler GCC version 9.2.1 20190827 (Red Hat 9.2.1-1)
REM options -cpp -mtune=generic -march=x86-64 -g -O0 -fpre-include=/usr/include/finclude/math-vector-fortran.h
REM seed 1947979611 -2036405004 -1596344447 -2104641972 196218069 -2010654479 -743875534 -991727336 -1154870436 1684147887 -998576555 -1871043459 950623803 -556828073 -1062411616 -730637653 -1572408774 1992981880 1270837533 -925805796 103390654 -1482996964 1867803092 794085524 261023766 -1165080835 1255234433 628291119 -1130258655 -1093009514 -2133825569 -319365901 862437828
REM
CELL 1.54180   50.00000   50.00000   50.00000   90.00000   90.00000   90.00000
LATT -1
SFAC C  
C      1  0.5145140000000  0.5549660000000  0.4563710000000 1.0
C      1  0.5515100000000  0.4533510000000  0.5138590000000 1.0
C      1  0.4471910000000  0.5191570000000  0.5538470000000 1.0
C      1  0.5136210000000  0.4479220000000  0.5451120000000 1.0
C      1  0.4912240000000  0.5634870000000  0.5545810000000 1.0
C      1  0.4857950000000  0.4439080000000  0.4546900000000 1.0
C      1  0.5516100000000  0.5496250000000  0.4856250000000 1.0
C      1  0.4498040000000  0.4490470000000  0.4854800000000 1.0
C      1  0.4457470000000  0.5460940000000  0.5151420000000 1.0
C      1  0.4484640000000  0.4911330000000  0.4397340000000 1.0
C      1  0.5517000000000  0.5082070000000  0.4386490000000 1.0
C      1  0.5449560000000  0.4861230000000  0.5501640000000 1.0
C      1  0.4860320000000  0.5538290000000  0.4559150000000 1.0
C      1  0.4494440000000  0.4491660000000  0.5138680000000 1.0
C      1  0.5456150000000  0.5151830000000  0.5504360000000 1.0
C      1  0.4852680000000  0.4455890000000  0.5448890000000 1.0
C      1  0.5189190000000  0.5567310000000  0.5504270000000 1.0
C      1  0.5142630000000  0.4447610000000  0.4534730000000 1.0
C      1  0.4482600000000  0.5465990000000  0.4868590000000 1.0
C      1  0.5515600000000  0.4524750000000  0.4849180000000 1.0
C      1  0.5526940000000  0.5480880000000  0.5143390000000 1.0
C      1  0.5481240000000  0.4802610000000  0.4446630000000 1.0
C      1  0.4520920000000  0.5189910000000  0.4461890000000 1.0
C      1  0.4461700000000  0.4910620000000  0.5600790000000 1.0
C      1  0.5206420000000  0.4733990000000  0.5557960000000 1.0
C      1  0.4724350000000  0.5565960000000  0.5285990000000 1.0
C      1  0.5525590000000  0.5246960000000  0.4686000000000 1.0
C      1  0.5263760000000  0.5272870000000  0.4470630000000 1.0
C      1  0.4741090000000  0.4719510000000  0.4467230000000 1.0
C      1  0.4734810000000  0.5344850000000  0.5550330000000 1.0
C      1  0.4723760000000  0.4330530000000  0.4767720000000 1.0
C      1  0.5281680000000  0.5650630000000  0.4787020000000 1.0
C      1  0.5286290000000  0.4381680000000  0.5232550000000 1.0
C      1  0.5591700000000  0.4771260000000  0.5267160000000 1.0
C      1  0.4365520000000  0.5226740000000  0.5276030000000 1.0
C      1  0.4486770000000  0.4744560000000  0.4693640000000 1.0
C      1  0.4725690000000  0.4733980000000  0.5524870000000 1.0
C      1  0.5305040000000  0.5634650000000  0.5253750000000 1.0
C      1  0.4416400000000  0.5232890000000  0.4724390000000 1.0
C      1  0.4779330000000  0.5300740000000  0.4420180000000 1.0
C      1  0.5222970000000  0.4691380000000  0.4406100000000 1.0
C      1  0.5227550000000  0.5295600000000  0.5584340000000 1.0
C      1  0.5288120000000  0.4366760000000  0.4763530000000 1.0
C      1  0.4723580000000  0.5600710000000  0.4798310000000 1.0
C      1  0.4721720000000  0.4337760000000  0.5231340000000 1.0
C      1  0.4470430000000  0.4744700000000  0.5300670000000 1.0
C      1  0.5595910000000  0.5238510000000  0.5266400000000 1.0
C      1  0.5591290000000  0.4754440000000  0.4705620000000 1.0
C      1  0.4977190000000  0.4891030000000  0.5590990000000 1.0
C      1  0.4866410000000  0.5666610000000  0.5030910000000 1.0
C      1  0.5150120000000  0.4273590000000  0.5000690000000 1.0
C      1  0.5002580000000  0.5132250000000  0.4390900000000 1.0
C      1  0.5000000000000  0.4861950000000  0.4386780000000 1.0
C      1  0.4870180000000  0.4245610000000  0.5001450000000 1.0
C      1  0.4396170000000  0.4989080000000  0.4862730000000 1.0
C      1  0.4981890000000  0.5160280000000  0.5603570000000 1.0
C      1  0.5138710000000  0.5713700000000  0.5029640000000 1.0
C      1  0.4372920000000  0.4985220000000  0.5131650000000 1.0
C      1  0.5665650000000  0.5004450000000  0.5114470000000 1.0
C      1  0.5632680000000  0.4997060000000  0.4841350000000 1.0
END
