TITL C-1154823-9327-645 0.0133616826605101 125000 -342.943731002529 0 0 60 (C1) n - 1
REM
REM in /home/nfs/bkarasulu/CARBON/AIRSS/Generating-Clusters/AIREBO/Higher-Symm/Only-C60
REM
REM
REM
REM
REM
REM ./C.cell (28575a23ae977d3b5fae324c64b13b57)
REM
REM compiler GCC version 9.2.1 20190827 (Red Hat 9.2.1-1)
REM options -cpp -mtune=generic -march=x86-64 -g -O0 -fpre-include=/usr/include/finclude/math-vector-fortran.h
REM seed 366429580 -1613268146 859270651 -1264539875 -1052820403 -670092581 -792274381 -406110390 1519928173 -840029618 874785953 549779872 -970250796 -727072071 -794679073 -321129873 -1365538039 -1970234483 -218246753 -1818565834 851575718 1797641962 -1846969020 1495227745 -2130674425 -484197493 776330506 668021011 -1530266870 497282112 1994738330 1445305565 424846520
REM
CELL 1.54180   50.00000   50.00000   50.00000   90.00000   90.00000   90.00000
LATT -1
SFAC C  
C      1  0.5812610000000  0.4799210000000  0.5046190000000 1.0
C      1  0.5196410000000  0.4333770000000  0.4943600000000 1.0
C      1  0.4500290000000  0.4511690000000  0.5007490000000 1.0
C      1  0.4262880000000  0.5196630000000  0.4949330000000 1.0
C      1  0.4805260000000  0.5718000000000  0.4959660000000 1.0
C      1  0.5540680000000  0.5529460000000  0.4952940000000 1.0
C      1  0.4234440000000  0.4804920000000  0.5018790000000 1.0
C      1  0.4736460000000  0.4190450000000  0.5014710000000 1.0
C      1  0.5397140000000  0.4532940000000  0.4980630000000 1.0
C      1  0.5729750000000  0.5188210000000  0.5027050000000 1.0
C      1  0.5197260000000  0.5715580000000  0.5028430000000 1.0
C      1  0.4463300000000  0.5529800000000  0.5033390000000 1.0
C      1  0.4602680000000  0.5386360000000  0.5303070000000 1.0
C      1  0.5149650000000  0.5527520000000  0.5300730000000 1.0
C      1  0.5573950000000  0.5157750000000  0.5326150000000 1.0
C      1  0.5400420000000  0.4651100000000  0.5264570000000 1.0
C      1  0.4809060000000  0.4358130000000  0.5218110000000 1.0
C      1  0.4421570000000  0.4859850000000  0.5280690000000 1.0
C      1  0.5433880000000  0.5415500000000  0.5183950000000 1.0
C      1  0.4849480000000  0.5555140000000  0.5180100000000 1.0
C      1  0.4410280000000  0.5157490000000  0.5179850000000 1.0
C      1  0.4603190000000  0.4574630000000  0.5318060000000 1.0
C      1  0.5105190000000  0.4434850000000  0.5241230000000 1.0
C      1  0.5633060000000  0.4853380000000  0.5245860000000 1.0
C      1  0.4486610000000  0.5129270000000  0.4337060000000 1.0
C      1  0.4856310000000  0.5546000000000  0.4335930000000 1.0
C      1  0.5397050000000  0.5391110000000  0.4334000000000 1.0
C      1  0.5435400000000  0.4871090000000  0.4333720000000 1.0
C      1  0.5115500000000  0.4506800000000  0.4484760000000 1.0
C      1  0.4643510000000  0.4599710000000  0.4368310000000 1.0
C      1  0.5508880000000  0.5128520000000  0.4417350000000 1.0
C      1  0.5145120000000  0.5531330000000  0.4401880000000 1.0
C      1  0.4624970000000  0.5379740000000  0.4417520000000 1.0
C      1  0.4498970000000  0.4846600000000  0.4429550000000 1.0
C      1  0.4906070000000  0.4536050000000  0.4295800000000 1.0
C      1  0.5346620000000  0.4665650000000  0.4506070000000 1.0
C      1  0.5490700000000  0.4656870000000  0.4748400000000 1.0
C      1  0.4770270000000  0.4311150000000  0.4761340000000 1.0
C      1  0.4382630000000  0.4827880000000  0.4743960000000 1.0
C      1  0.4556250000000  0.5446440000000  0.4744800000000 1.0
C      1  0.5168600000000  0.5610970000000  0.4761050000000 1.0
C      1  0.5606800000000  0.5149280000000  0.4725900000000 1.0
C      1  0.4568730000000  0.4548860000000  0.4685100000000 1.0
C      1  0.5040720000000  0.4356610000000  0.4711980000000 1.0
C      1  0.5693070000000  0.4845540000000  0.4793700000000 1.0
C      1  0.5427110000000  0.5431290000000  0.4662970000000 1.0
C      1  0.4853970000000  0.5591010000000  0.4665470000000 1.0
C      1  0.4408100000000  0.5154830000000  0.4664320000000 1.0
C      1  0.5490760000000  0.4882630000000  0.5713440000000 1.0
C      1  0.5151840000000  0.4499960000000  0.5538350000000 1.0
C      1  0.4679620000000  0.4616770000000  0.5629310000000 1.0
C      1  0.4529330000000  0.5113840000000  0.5700830000000 1.0
C      1  0.4872140000000  0.5476620000000  0.5696650000000 1.0
C      1  0.5358660000000  0.5367010000000  0.5709990000000 1.0
C      1  0.4525410000000  0.4862300000000  0.5582030000000 1.0
C      1  0.4923110000000  0.4504940000000  0.5701330000000 1.0
C      1  0.5388750000000  0.4659220000000  0.5585680000000 1.0
C      1  0.5498420000000  0.5145260000000  0.5615940000000 1.0
C      1  0.5132390000000  0.5483110000000  0.5595770000000 1.0
C      1  0.4648750000000  0.5343370000000  0.5595130000000 1.0
END
