TITL C-1154808-8168-590 -0.00300542531679431 125000 -321.361609716243 0 0 60 (C1) n - 1
REM
REM in /home/nfs/bkarasulu/CARBON/AIRSS/Generating-Clusters/AIREBO/Higher-Symm/Only-C60
REM
REM
REM
REM
REM
REM ./C.cell (28575a23ae977d3b5fae324c64b13b57)
REM
REM compiler GCC version 9.2.1 20190827 (Red Hat 9.2.1-1)
REM options -cpp -mtune=generic -march=x86-64 -g -O0 -fpre-include=/usr/include/finclude/math-vector-fortran.h
REM seed 1300990112 1390755646 1060538866 -487167911 189919531 1626792636 809599135 -648737293 2056349301 -1633652655 -1068297959 -1954307392 1775454458 1743927742 1879485535 -1289040404 1314569659 1418671136 -1827103115 -1792746647 1211815293 779264010 291328189 2062808676 2007506800 -1648565777 770648109 -1416778902 -1493141135 -577752685 -334144589 -1341190170 1363700611
REM
CELL 1.54180   50.00000   50.00000   50.00000   90.00000   90.00000   90.00000
LATT -1
SFAC C  
C      1  0.5137320000000  0.4523720000000  0.4940870000000 1.0
C      1  0.5114320000000  0.5408660000000  0.5137220000000 1.0
C      1  0.4988070000000  0.5107690000000  0.5864310000000 1.0
C      1  0.5003240000000  0.4857960000000  0.5814070000000 1.0
C      1  0.4414040000000  0.5446850000000  0.4764010000000 1.0
C      1  0.4416380000000  0.4568030000000  0.4678720000000 1.0
C      1  0.4449880000000  0.4827900000000  0.4887400000000 1.0
C      1  0.4520920000000  0.5132750000000  0.4780420000000 1.0
C      1  0.4978590000000  0.4795540000000  0.4869280000000 1.0
C      1  0.5060830000000  0.5230610000000  0.4868490000000 1.0
C      1  0.4453540000000  0.5589690000000  0.4998740000000 1.0
C      1  0.4392960000000  0.4510390000000  0.4997220000000 1.0
C      1  0.4884060000000  0.4332970000000  0.4858620000000 1.0
C      1  0.4966350000000  0.5616180000000  0.4912170000000 1.0
C      1  0.5709650000000  0.4624110000000  0.5244820000000 1.0
C      1  0.5653450000000  0.5369770000000  0.5225200000000 1.0
C      1  0.5502180000000  0.5329330000000  0.4483420000000 1.0
C      1  0.5372320000000  0.4569680000000  0.4730050000000 1.0
C      1  0.5693060000000  0.5133950000000  0.5008000000000 1.0
C      1  0.5753060000000  0.4803260000000  0.5042620000000 1.0
C      1  0.5515190000000  0.4818040000000  0.4840620000000 1.0
C      1  0.5570570000000  0.5142720000000  0.4689890000000 1.0
C      1  0.4693610000000  0.4820830000000  0.4412450000000 1.0
C      1  0.4662460000000  0.5106550000000  0.4474820000000 1.0
C      1  0.5389670000000  0.4899800000000  0.5440630000000 1.0
C      1  0.5485270000000  0.5148720000000  0.5511160000000 1.0
C      1  0.4873700000000  0.4388080000000  0.4548410000000 1.0
C      1  0.4954400000000  0.5543970000000  0.4613280000000 1.0
C      1  0.4885020000000  0.4134410000000  0.4379390000000 1.0
C      1  0.4759950000000  0.5712210000000  0.4406300000000 1.0
C      1  0.5363240000000  0.5432310000000  0.5367830000000 1.0
C      1  0.5454740000000  0.4633720000000  0.5371440000000 1.0
C      1  0.4883020000000  0.5283220000000  0.5629750000000 1.0
C      1  0.4942680000000  0.4770340000000  0.5509990000000 1.0
C      1  0.4795240000000  0.5543010000000  0.5428670000000 1.0
C      1  0.4874850000000  0.4502600000000  0.5337500000000 1.0
C      1  0.4963910000000  0.4858880000000  0.4560740000000 1.0
C      1  0.5047080000000  0.5156770000000  0.4585630000000 1.0
C      1  0.5221450000000  0.4798380000000  0.4261410000000 1.0
C      1  0.5190140000000  0.5058030000000  0.4298080000000 1.0
C      1  0.4730310000000  0.4894470000000  0.5020330000000 1.0
C      1  0.4769700000000  0.5220860000000  0.4999620000000 1.0
C      1  0.5113380000000  0.4941050000000  0.5329440000000 1.0
C      1  0.5024650000000  0.5222850000000  0.5363090000000 1.0
C      1  0.5210050000000  0.5395590000000  0.4444620000000 1.0
C      1  0.5144480000000  0.4590180000000  0.4505850000000 1.0
C      1  0.5368000000000  0.5170490000000  0.4945400000000 1.0
C      1  0.5223360000000  0.4902460000000  0.5028950000000 1.0
C      1  0.4642700000000  0.5422590000000  0.4536270000000 1.0
C      1  0.4616810000000  0.4563050000000  0.4489670000000 1.0
C      1  0.5024760000000  0.5792800000000  0.5196840000000 1.0
C      1  0.5026400000000  0.4198170000000  0.5129800000000 1.0
C      1  0.4523600000000  0.5431990000000  0.5600480000000 1.0
C      1  0.4613740000000  0.4556960000000  0.5548520000000 1.0
C      1  0.4727640000000  0.5510230000000  0.5130000000000 1.0
C      1  0.4724080000000  0.4554160000000  0.5061340000000 1.0
C      1  0.5205860000000  0.4460430000000  0.5261370000000 1.0
C      1  0.5116730000000  0.5652670000000  0.5448760000000 1.0
C      1  0.4622970000000  0.4860310000000  0.5587290000000 1.0
C      1  0.4580400000000  0.5127040000000  0.5598750000000 1.0
END
