TITL C-1154823-9327-335 0.00121956227299174 125000 -335.13568581899 0 0 60 (C1) n - 1
REM
REM in /home/nfs/bkarasulu/CARBON/AIRSS/Generating-Clusters/AIREBO/Higher-Symm/Only-C60
REM
REM
REM
REM
REM
REM ./C.cell (28575a23ae977d3b5fae324c64b13b57)
REM
REM compiler GCC version 9.2.1 20190827 (Red Hat 9.2.1-1)
REM options -cpp -mtune=generic -march=x86-64 -g -O0 -fpre-include=/usr/include/finclude/math-vector-fortran.h
REM seed -686159609 722670131 -31830777 -733802960 -1490195986 -1955288638 1078446839 451523323 717835543 2034348339 -1075003164 459080180 -518091750 1869701596 1424183187 -970121061 -1401211525 1177989300 1867753165 127625784 1017500698 1735488891 -381343794 -573581220 -1388992577 516912762 -2016169221 1911198810 887518128 -738640800 994858010 -358335196 -992038881
REM
CELL 1.54180   50.00000   50.00000   50.00000   90.00000   90.00000   90.00000
LATT -1
SFAC C  
C      1  0.5076290000000  0.4600070000000  0.5604250000000 1.0
C      1  0.5110810000000  0.5443950000000  0.4370720000000 1.0
C      1  0.4622020000000  0.5221610000000  0.4465410000000 1.0
C      1  0.4534410000000  0.4784610000000  0.5435970000000 1.0
C      1  0.5060820000000  0.5379620000000  0.4654990000000 1.0
C      1  0.5033030000000  0.4620610000000  0.5336060000000 1.0
C      1  0.5342400000000  0.4705960000000  0.4522860000000 1.0
C      1  0.5336650000000  0.5301720000000  0.5503390000000 1.0
C      1  0.4797520000000  0.5239050000000  0.5400800000000 1.0
C      1  0.4709340000000  0.4758130000000  0.4621800000000 1.0
C      1  0.5228330000000  0.5303510000000  0.4941010000000 1.0
C      1  0.5230220000000  0.4699770000000  0.5069870000000 1.0
C      1  0.5301870000000  0.5142290000000  0.5231240000000 1.0
C      1  0.5262870000000  0.4868700000000  0.4776090000000 1.0
C      1  0.4283500000000  0.4755010000000  0.5318520000000 1.0
C      1  0.4459970000000  0.5042260000000  0.4951760000000 1.0
C      1  0.5056150000000  0.5108440000000  0.4362410000000 1.0
C      1  0.5077570000000  0.4888710000000  0.5742620000000 1.0
C      1  0.4701150000000  0.5759880000000  0.4969510000000 1.0
C      1  0.4698960000000  0.4271910000000  0.4930700000000 1.0
C      1  0.4421090000000  0.4686570000000  0.4701550000000 1.0
C      1  0.4483590000000  0.5309250000000  0.5340280000000 1.0
C      1  0.4908270000000  0.4677970000000  0.4962530000000 1.0
C      1  0.4886710000000  0.5330540000000  0.5009120000000 1.0
C      1  0.4548190000000  0.5516060000000  0.4908420000000 1.0
C      1  0.4561720000000  0.4489620000000  0.5017590000000 1.0
C      1  0.5752090000000  0.4924740000000  0.5091330000000 1.0
C      1  0.5747020000000  0.5054720000000  0.4874210000000 1.0
C      1  0.5222010000000  0.4360370000000  0.5051300000000 1.0
C      1  0.5215670000000  0.5642240000000  0.4913900000000 1.0
C      1  0.4728540000000  0.4640420000000  0.5248790000000 1.0
C      1  0.4749880000000  0.5386130000000  0.4702740000000 1.0
C      1  0.4757720000000  0.5041030000000  0.4899180000000 1.0
C      1  0.4939950000000  0.4960520000000  0.5149120000000 1.0
C      1  0.4980210000000  0.5716690000000  0.5052080000000 1.0
C      1  0.4998930000000  0.4294020000000  0.4896980000000 1.0
C      1  0.5486840000000  0.5119890000000  0.5671630000000 1.0
C      1  0.5486410000000  0.4882010000000  0.4348260000000 1.0
C      1  0.5004540000000  0.4639420000000  0.4189160000000 1.0
C      1  0.4932450000000  0.5353960000000  0.5772280000000 1.0
C      1  0.5379250000000  0.4422060000000  0.5315820000000 1.0
C      1  0.5398010000000  0.5593480000000  0.4672640000000 1.0
C      1  0.4627490000000  0.5004410000000  0.5569820000000 1.0
C      1  0.4682860000000  0.4968680000000  0.4381640000000 1.0
C      1  0.5476330000000  0.4881530000000  0.5205520000000 1.0
C      1  0.5465080000000  0.5121840000000  0.4783740000000 1.0
C      1  0.5121900000000  0.4557520000000  0.4436620000000 1.0
C      1  0.5100280000000  0.5445320000000  0.5558250000000 1.0
C      1  0.4933820000000  0.5515350000000  0.5290980000000 1.0
C      1  0.4923950000000  0.4516480000000  0.4663520000000 1.0
C      1  0.4418930000000  0.5308540000000  0.5061190000000 1.0
C      1  0.4341290000000  0.4748770000000  0.5008810000000 1.0
C      1  0.5446270000000  0.5334810000000  0.4558510000000 1.0
C      1  0.5428730000000  0.4681570000000  0.5434010000000 1.0
C      1  0.5386450000000  0.4844490000000  0.5663800000000 1.0
C      1  0.5373230000000  0.5146630000000  0.4347780000000 1.0
C      1  0.4838760000000  0.5083600000000  0.5766320000000 1.0
C      1  0.4895490000000  0.4902630000000  0.4182130000000 1.0
C      1  0.4973520000000  0.4970010000000  0.4654670000000 1.0
C      1  0.5052670000000  0.5030260000000  0.5433790000000 1.0
END
