TITL C-1154823-9327-324 -0.00367778012182841 125000 -374.677957230343 0 0 60 (C1) n - 1
REM
REM in /home/nfs/bkarasulu/CARBON/AIRSS/Generating-Clusters/AIREBO/Higher-Symm/Only-C60
REM
REM
REM
REM
REM
REM ./C.cell (28575a23ae977d3b5fae324c64b13b57)
REM
REM compiler GCC version 9.2.1 20190827 (Red Hat 9.2.1-1)
REM options -cpp -mtune=generic -march=x86-64 -g -O0 -fpre-include=/usr/include/finclude/math-vector-fortran.h
REM seed 1841946340 -2119796727 -418492635 900996684 893145437 1186381477 207436019 1316109201 42360120 -686637829 -1143716128 -1439640878 -1463778300 114895818 206966902 1243671667 1827772314 2123536329 1977760558 -272012623 -1666366775 -470661241 1132895302 -1391142557 1910300790 295211510 -56143122 -1788445143 -1407713042 1999360596 -236903947 1612308640 1181553746
REM
CELL 1.54180   50.00000   50.00000   50.00000   90.00000   90.00000   90.00000
LATT -1
SFAC C  
C      1  0.4415260000000  0.5033450000000  0.4629020000000 1.0
C      1  0.5051790000000  0.4642250000000  0.4430810000000 1.0
C      1  0.4616590000000  0.4397350000000  0.5039530000000 1.0
C      1  0.4422350000000  0.4941980000000  0.5361860000000 1.0
C      1  0.5589400000000  0.5003350000000  0.5363240000000 1.0
C      1  0.5589150000000  0.4979570000000  0.4626710000000 1.0
C      1  0.5012090000000  0.5382020000000  0.5585010000000 1.0
C      1  0.4998040000000  0.4642140000000  0.5596790000000 1.0
C      1  0.4954690000000  0.5372980000000  0.4402920000000 1.0
C      1  0.4643880000000  0.5572930000000  0.4964540000000 1.0
C      1  0.5355020000000  0.4413640000000  0.5006840000000 1.0
C      1  0.5380460000000  0.5592280000000  0.4997910000000 1.0
C      1  0.4402930000000  0.4617630000000  0.4994460000000 1.0
C      1  0.5008660000000  0.4423680000000  0.4651650000000 1.0
C      1  0.4634600000000  0.5000830000000  0.4409710000000 1.0
C      1  0.4421360000000  0.5356740000000  0.4999240000000 1.0
C      1  0.5585010000000  0.5358700000000  0.5023990000000 1.0
C      1  0.5579820000000  0.4625360000000  0.4961620000000 1.0
C      1  0.5037120000000  0.5585050000000  0.5350030000000 1.0
C      1  0.4987760000000  0.5598810000000  0.4614320000000 1.0
C      1  0.4954810000000  0.4415360000000  0.5387960000000 1.0
C      1  0.4636670000000  0.4980780000000  0.5586710000000 1.0
C      1  0.5373030000000  0.5013950000000  0.4406540000000 1.0
C      1  0.5372910000000  0.5048410000000  0.5583140000000 1.0
C      1  0.4523750000000  0.4328220000000  0.4750110000000 1.0
C      1  0.4344020000000  0.4751000000000  0.4514890000000 1.0
C      1  0.4775910000000  0.4524550000000  0.4345600000000 1.0
C      1  0.4546790000000  0.5634180000000  0.5254670000000 1.0
C      1  0.5434680000000  0.4304300000000  0.5291490000000 1.0
C      1  0.5465230000000  0.5715430000000  0.4720980000000 1.0
C      1  0.4337950000000  0.5219060000000  0.5477300000000 1.0
C      1  0.5696610000000  0.4718700000000  0.5441840000000 1.0
C      1  0.5647890000000  0.5271530000000  0.4533470000000 1.0
C      1  0.4731670000000  0.5461690000000  0.5703110000000 1.0
C      1  0.5283400000000  0.4568050000000  0.5705740000000 1.0
C      1  0.5231990000000  0.5490390000000  0.4320100000000 1.0
C      1  0.4570000000000  0.4713800000000  0.4301180000000 1.0
C      1  0.4302790000000  0.4547120000000  0.4706190000000 1.0
C      1  0.4731830000000  0.4303160000000  0.4560120000000 1.0
C      1  0.4540920000000  0.5253380000000  0.5711930000000 1.0
C      1  0.5441140000000  0.5301250000000  0.4299420000000 1.0
C      1  0.5480350000000  0.4766330000000  0.5663060000000 1.0
C      1  0.4315030000000  0.5426860000000  0.5286830000000 1.0
C      1  0.5653560000000  0.5465420000000  0.4738600000000 1.0
C      1  0.5655430000000  0.4519950000000  0.5244580000000 1.0
C      1  0.4748630000000  0.5647800000000  0.5451340000000 1.0
C      1  0.5261170000000  0.5725350000000  0.4525590000000 1.0
C      1  0.5239130000000  0.4343870000000  0.5491990000000 1.0
C      1  0.4907300000000  0.4907260000000  0.5614720000000 1.0
C      1  0.4895450000000  0.5100610000000  0.4381880000000 1.0
C      1  0.4386080000000  0.4880540000000  0.5090900000000 1.0
C      1  0.4389450000000  0.5095260000000  0.4901050000000 1.0
C      1  0.4907980000000  0.5614570000000  0.4883520000000 1.0
C      1  0.5088830000000  0.4391180000000  0.4919640000000 1.0
C      1  0.5615510000000  0.4893780000000  0.4890750000000 1.0
C      1  0.5111780000000  0.4912940000000  0.4388360000000 1.0
C      1  0.5614500000000  0.5091300000000  0.5097900000000 1.0
C      1  0.4883710000000  0.4379140000000  0.5119720000000 1.0
C      1  0.5113100000000  0.5615780000000  0.5083490000000 1.0
C      1  0.5103060000000  0.5117000000000  0.5613370000000 1.0
END
