TITL C-1154828-9214-702 -0.000285644445811396 125000 -335.355377516415 0 0 60 (C1) n - 1
REM
REM in /home/nfs/bkarasulu/CARBON/AIRSS/Generating-Clusters/AIREBO/Higher-Symm/Only-C60
REM
REM
REM
REM
REM
REM ./C.cell (28575a23ae977d3b5fae324c64b13b57)
REM
REM compiler GCC version 9.2.1 20190827 (Red Hat 9.2.1-1)
REM options -cpp -mtune=generic -march=x86-64 -g -O0 -fpre-include=/usr/include/finclude/math-vector-fortran.h
REM seed 47750933 1325377481 -175741930 -1478605747 -670501798 -1858713689 3317340 -1141243889 184069013 1327449665 -560394997 -770486953 -1001023597 1995718420 -1526105253 -1732369956 -1511076842 -189478455 622103134 1517082872 2136570160 -1439120919 -1760434743 -716772733 -175091933 828293371 1353280803 1444970967 -1949792738 -1318452370 -1326872373 1358294010 -207721373
REM
CELL 1.54180   50.00000   50.00000   50.00000   90.00000   90.00000   90.00000
LATT -1
SFAC C  
C      1  0.5407400000000  0.4517930000000  0.5360690000000 1.0
C      1  0.5530680000000  0.5036500000000  0.5305560000000 1.0
C      1  0.5499590000000  0.5375400000000  0.5326260000000 1.0
C      1  0.5216800000000  0.5532490000000  0.5430970000000 1.0
C      1  0.4896550000000  0.5451680000000  0.5347910000000 1.0
C      1  0.4589090000000  0.5483480000000  0.5366730000000 1.0
C      1  0.4468180000000  0.4972780000000  0.5305970000000 1.0
C      1  0.4517060000000  0.4636190000000  0.5322260000000 1.0
C      1  0.4779180000000  0.4444050000000  0.5419710000000 1.0
C      1  0.5097560000000  0.4538730000000  0.5341670000000 1.0
C      1  0.5066660000000  0.5367420000000  0.4892520000000 1.0
C      1  0.4900190000000  0.5266670000000  0.5102590000000 1.0
C      1  0.4652880000000  0.5168140000000  0.5011460000000 1.0
C      1  0.4491590000000  0.4894000000000  0.4976020000000 1.0
C      1  0.4648510000000  0.4640480000000  0.4937990000000 1.0
C      1  0.4931490000000  0.4632640000000  0.4880820000000 1.0
C      1  0.5099070000000  0.4729740000000  0.5098170000000 1.0
C      1  0.5346470000000  0.4837020000000  0.5012140000000 1.0
C      1  0.5510870000000  0.5108900000000  0.4973920000000 1.0
C      1  0.5348000000000  0.5357250000000  0.4932700000000 1.0
C      1  0.5790360000000  0.5243080000000  0.5244130000000 1.0
C      1  0.5457490000000  0.5697130000000  0.5252720000000 1.0
C      1  0.5020690000000  0.5747120000000  0.5254600000000 1.0
C      1  0.4500050000000  0.5718520000000  0.5226250000000 1.0
C      1  0.4418620000000  0.5266750000000  0.5320290000000 1.0
C      1  0.4217230000000  0.4760480000000  0.5243930000000 1.0
C      1  0.4502990000000  0.4308670000000  0.5270710000000 1.0
C      1  0.4988280000000  0.4236730000000  0.5250060000000 1.0
C      1  0.5502300000000  0.4287830000000  0.5215400000000 1.0
C      1  0.5574780000000  0.4738520000000  0.5324750000000 1.0
C      1  0.4703520000000  0.5437260000000  0.4608910000000 1.0
C      1  0.4567510000000  0.5161200000000  0.4689100000000 1.0
C      1  0.4476900000000  0.4841680000000  0.4639460000000 1.0
C      1  0.4639270000000  0.4571780000000  0.4548160000000 1.0
C      1  0.4979290000000  0.4561560000000  0.4551770000000 1.0
C      1  0.5309030000000  0.4565580000000  0.4602110000000 1.0
C      1  0.5440320000000  0.4838040000000  0.4689590000000 1.0
C      1  0.5525050000000  0.5157490000000  0.4636720000000 1.0
C      1  0.5354200000000  0.5423570000000  0.4541330000000 1.0
C      1  0.5027060000000  0.5444780000000  0.4538140000000 1.0
C      1  0.5540700000000  0.5775840000000  0.5005130000000 1.0
C      1  0.4943530000000  0.5828000000000  0.5007420000000 1.0
C      1  0.4462540000000  0.5734960000000  0.4952550000000 1.0
C      1  0.4237080000000  0.5327300000000  0.5106850000000 1.0
C      1  0.4084090000000  0.4764240000000  0.5012090000000 1.0
C      1  0.4436710000000  0.4227050000000  0.5018380000000 1.0
C      1  0.5056600000000  0.4159750000000  0.4999960000000 1.0
C      1  0.5548080000000  0.4271420000000  0.4943060000000 1.0
C      1  0.5765590000000  0.4683670000000  0.5115930000000 1.0
C      1  0.5918300000000  0.5234640000000  0.5009300000000 1.0
C      1  0.4518380000000  0.4401380000000  0.4811990000000 1.0
C      1  0.5020850000000  0.4331720000000  0.4799550000000 1.0
C      1  0.5436790000000  0.4345190000000  0.4701830000000 1.0
C      1  0.5712310000000  0.4741060000000  0.4853920000000 1.0
C      1  0.5825060000000  0.5220380000000  0.4752910000000 1.0
C      1  0.5478300000000  0.5591130000000  0.4800300000000 1.0
C      1  0.4977770000000  0.5659090000000  0.4797470000000 1.0
C      1  0.4577290000000  0.5656610000000  0.4714320000000 1.0
C      1  0.4291990000000  0.5260690000000  0.4847350000000 1.0
C      1  0.4175300000000  0.4786680000000  0.4755480000000 1.0
END
