TITL C-1154803-8277-283 -8.3750274863723e-06 125000 -314.798690229157 0 0 60 (C1) n - 1
REM
REM in /home/nfs/bkarasulu/CARBON/AIRSS/Generating-Clusters/AIREBO/Higher-Symm/Only-C60
REM
REM
REM
REM
REM
REM ./C.cell (28575a23ae977d3b5fae324c64b13b57)
REM
REM compiler GCC version 9.2.1 20190827 (Red Hat 9.2.1-1)
REM options -cpp -mtune=generic -march=x86-64 -g -O0 -fpre-include=/usr/include/finclude/math-vector-fortran.h
REM seed 1943377868 465522954 -1257544260 850889301 65201471 -1918925898 -1041933219 766055870 1742041212 -1111267228 577605811 1484979968 -1735949176 25624358 1417590339 -556282491 984659710 700737141 -576975025 -1015459000 -1610320547 -1629914658 1420796077 1712778556 -1548383727 -237807713 2061009820 1355921063 -1150537725 -863913933 2125765333 -1704442693 9557138
REM
CELL 1.54180   50.00000   50.00000   50.00000   90.00000   90.00000   90.00000
LATT -1
SFAC C  
C      1  0.4349270000000  0.5175520000000  0.5212070000000 1.0
C      1  0.4349030000000  0.5255600000000  0.4881610000000 1.0
C      1  0.4353110000000  0.4965020000000  0.4705110000000 1.0
C      1  0.4342700000000  0.4717700000000  0.4927700000000 1.0
C      1  0.4277670000000  0.4862200000000  0.5217210000000 1.0
C      1  0.5205310000000  0.5022930000000  0.4733590000000 1.0
C      1  0.5204930000000  0.4753820000000  0.4897520000000 1.0
C      1  0.5205360000000  0.4824850000000  0.5202600000000 1.0
C      1  0.5211410000000  0.5141490000000  0.5226900000000 1.0
C      1  0.5206250000000  0.5262690000000  0.4937150000000 1.0
C      1  0.5450790000000  0.5615110000000  0.4692170000000 1.0
C      1  0.5457810000000  0.4898360000000  0.4326540000000 1.0
C      1  0.5450770000000  0.4323210000000  0.4890670000000 1.0
C      1  0.5450300000000  0.4683740000000  0.5607980000000 1.0
C      1  0.5459890000000  0.5481110000000  0.5485520000000 1.0
C      1  0.5704510000000  0.5624750000000  0.4497590000000 1.0
C      1  0.5712870000000  0.4716490000000  0.4261260000000 1.0
C      1  0.5695460000000  0.4190900000000  0.5048230000000 1.0
C      1  0.5709850000000  0.4787770000000  0.5764140000000 1.0
C      1  0.5707510000000  0.5675910000000  0.5432220000000 1.0
C      1  0.5492340000000  0.4379700000000  0.5212260000000 1.0
C      1  0.5506520000000  0.5006150000000  0.5643010000000 1.0
C      1  0.5500720000000  0.5622970000000  0.5190720000000 1.0
C      1  0.5501110000000  0.5376240000000  0.4471380000000 1.0
C      1  0.5505420000000  0.4614240000000  0.4485490000000 1.0
C      1  0.4959180000000  0.5337670000000  0.4734640000000 1.0
C      1  0.4961570000000  0.4851660000000  0.4596230000000 1.0
C      1  0.4957350000000  0.4573430000000  0.5015310000000 1.0
C      1  0.4960630000000  0.4889380000000  0.5407600000000 1.0
C      1  0.4959420000000  0.5353490000000  0.5237700000000 1.0
C      1  0.4755870000000  0.5593380000000  0.4834330000000 1.0
C      1  0.4764200000000  0.5023400000000  0.4378070000000 1.0
C      1  0.4765730000000  0.4416480000000  0.4782250000000 1.0
C      1  0.4758120000000  0.4627590000000  0.5486000000000 1.0
C      1  0.4755270000000  0.5330610000000  0.5510590000000 1.0
C      1  0.4492180000000  0.4823690000000  0.4418030000000 1.0
C      1  0.4512130000000  0.4428820000000  0.5006050000000 1.0
C      1  0.4551510000000  0.4838910000000  0.5643350000000 1.0
C      1  0.4475120000000  0.5455170000000  0.5370280000000 1.0
C      1  0.4482960000000  0.5492560000000  0.4658310000000 1.0
C      1  0.4485820000000  0.4607010000000  0.5283420000000 1.0
C      1  0.4520760000000  0.5085000000000  0.5491470000000 1.0
C      1  0.4509780000000  0.5502790000000  0.5050960000000 1.0
C      1  0.4514410000000  0.5202800000000  0.4523260000000 1.0
C      1  0.4510930000000  0.4602690000000  0.4655470000000 1.0
C      1  0.4713760000000  0.4811630000000  0.4804990000000 1.0
C      1  0.4713130000000  0.4758270000000  0.5110790000000 1.0
C      1  0.4721090000000  0.5033080000000  0.5247020000000 1.0
C      1  0.4716780000000  0.5254470000000  0.5041090000000 1.0
C      1  0.4717100000000  0.5120370000000  0.4762500000000 1.0
C      1  0.5326990000000  0.4573260000000  0.5363470000000 1.0
C      1  0.5340340000000  0.5213170000000  0.5512060000000 1.0
C      1  0.5331850000000  0.5558400000000  0.4956110000000 1.0
C      1  0.5335120000000  0.5131310000000  0.4459280000000 1.0
C      1  0.5335620000000  0.4526310000000  0.4711200000000 1.0
C      1  0.5024870000000  0.5155230000000  0.5577240000000 1.0
C      1  0.5014290000000  0.5596920000000  0.5032590000000 1.0
C      1  0.5017890000000  0.5214990000000  0.4441210000000 1.0
C      1  0.5019820000000  0.4535420000000  0.4622730000000 1.0
C      1  0.5007510000000  0.4502150000000  0.5323760000000 1.0
END
