TITL C-1154824-75-631 0.00137017894536565 125000 -331.912542649665 0 0 60 (C1) n - 1
REM
REM in /home/nfs/bkarasulu/CARBON/AIRSS/Generating-Clusters/AIREBO/Higher-Symm/Only-C60
REM
REM
REM
REM
REM
REM ./C.cell (28575a23ae977d3b5fae324c64b13b57)
REM
REM compiler GCC version 9.2.1 20190827 (Red Hat 9.2.1-1)
REM options -cpp -mtune=generic -march=x86-64 -g -O0 -fpre-include=/usr/include/finclude/math-vector-fortran.h
REM seed 169473656 -1400897012 -633356318 -762389792 -200393838 43370147 -636001109 1617320261 67458272 329423682 -441295968 421140828 1851998504 -437594723 -934142801 -1348415726 164819641 -635929934 -2100861951 -2022172481 809372820 -120118366 115338403 1722449497 2114978536 1700575704 -1899479197 -1722058833 241562233 1746601211 -452777586 256129066 550110537
REM
CELL 1.54180   50.00000   50.00000   50.00000   90.00000   90.00000   90.00000
LATT -1
SFAC C  
C      1  0.5689420000000  0.5292690000000  0.5263470000000 1.0
C      1  0.5378180000000  0.4625110000000  0.5316130000000 1.0
C      1  0.4944250000000  0.4371610000000  0.5277120000000 1.0
C      1  0.4557760000000  0.4693740000000  0.5112370000000 1.0
C      1  0.4461980000000  0.5128420000000  0.5175010000000 1.0
C      1  0.4653820000000  0.5472020000000  0.5244990000000 1.0
C      1  0.5221990000000  0.5450340000000  0.5287160000000 1.0
C      1  0.5364260000000  0.5002360000000  0.4558610000000 1.0
C      1  0.5257500000000  0.4724070000000  0.4549920000000 1.0
C      1  0.4989090000000  0.4635200000000  0.4480830000000 1.0
C      1  0.4715290000000  0.4827920000000  0.4511200000000 1.0
C      1  0.4624180000000  0.5141440000000  0.4492150000000 1.0
C      1  0.4823910000000  0.5347410000000  0.4508950000000 1.0
C      1  0.5154990000000  0.5268960000000  0.4524820000000 1.0
C      1  0.5026600000000  0.4762080000000  0.5745560000000 1.0
C      1  0.4732100000000  0.4768660000000  0.5624910000000 1.0
C      1  0.4624340000000  0.5086210000000  0.5681210000000 1.0
C      1  0.4906770000000  0.5267610000000  0.5657790000000 1.0
C      1  0.5214480000000  0.5395300000000  0.5695770000000 1.0
C      1  0.5411480000000  0.5129120000000  0.5663660000000 1.0
C      1  0.5288930000000  0.4829710000000  0.5721920000000 1.0
C      1  0.4792160000000  0.5315270000000  0.4992450000000 1.0
C      1  0.5094690000000  0.5265780000000  0.5043010000000 1.0
C      1  0.5391910000000  0.5277160000000  0.4932850000000 1.0
C      1  0.5361150000000  0.4756600000000  0.5010810000000 1.0
C      1  0.4996940000000  0.4478510000000  0.4968490000000 1.0
C      1  0.4833320000000  0.4768320000000  0.4950060000000 1.0
C      1  0.4661940000000  0.5035350000000  0.4933190000000 1.0
C      1  0.4395910000000  0.5180360000000  0.4665330000000 1.0
C      1  0.4760260000000  0.5504330000000  0.4733180000000 1.0
C      1  0.5223300000000  0.5553270000000  0.4702400000000 1.0
C      1  0.5509220000000  0.5061070000000  0.4799160000000 1.0
C      1  0.5349240000000  0.4571560000000  0.4771800000000 1.0
C      1  0.4900640000000  0.4413570000000  0.4656860000000 1.0
C      1  0.4516630000000  0.4689720000000  0.4703910000000 1.0
C      1  0.5259120000000  0.4302980000000  0.4844460000000 1.0
C      1  0.4635590000000  0.4453730000000  0.4802550000000 1.0
C      1  0.4353750000000  0.4918610000000  0.4852620000000 1.0
C      1  0.4377010000000  0.5427770000000  0.4807650000000 1.0
C      1  0.4994760000000  0.5632590000000  0.4858410000000 1.0
C      1  0.5494650000000  0.5557220000000  0.4855960000000 1.0
C      1  0.5645670000000  0.4894750000000  0.5003380000000 1.0
C      1  0.5541390000000  0.4863790000000  0.5495350000000 1.0
C      1  0.5255070000000  0.4351400000000  0.5303820000000 1.0
C      1  0.4701770000000  0.4581120000000  0.5381150000000 1.0
C      1  0.4489550000000  0.4925090000000  0.5430450000000 1.0
C      1  0.4627560000000  0.5385940000000  0.5519850000000 1.0
C      1  0.4987540000000  0.5552820000000  0.5491260000000 1.0
C      1  0.5465210000000  0.5357900000000  0.5434070000000 1.0
C      1  0.5723530000000  0.5471040000000  0.5042700000000 1.0
C      1  0.5704720000000  0.5009170000000  0.5251390000000 1.0
C      1  0.5355600000000  0.4193670000000  0.5097790000000 1.0
C      1  0.4637750000000  0.4363390000000  0.5121030000000 1.0
C      1  0.4273700000000  0.4845310000000  0.5175930000000 1.0
C      1  0.4379140000000  0.5415660000000  0.5080580000000 1.0
C      1  0.4975070000000  0.5630890000000  0.5154050000000 1.0
C      1  0.5173470000000  0.4870050000000  0.5343500000000 1.0
C      1  0.4975610000000  0.5002320000000  0.4636060000000 1.0
C      1  0.4954760000000  0.5036200000000  0.4298210000000 1.0
C      1  0.5113030000000  0.4945900000000  0.4941910000000 1.0
END
