TITL C-1154810-7815-286 0.00106491260797359 125000 -346.663417851596 0 0 60 (S4) n - 1
REM
REM in /home/nfs/bkarasulu/CARBON/AIRSS/Generating-Clusters/AIREBO/Higher-Symm/Only-C60
REM
REM
REM
REM
REM
REM ./C.cell (28575a23ae977d3b5fae324c64b13b57)
REM
REM compiler GCC version 9.2.1 20190827 (Red Hat 9.2.1-1)
REM options -cpp -mtune=generic -march=x86-64 -g -O0 -fpre-include=/usr/include/finclude/math-vector-fortran.h
REM seed 368542897 -2070721624 -1884714938 -426042247 10176608 1712659208 -519289759 1014834770 1147592135 138308545 1929265056 -1144705400 -2114823169 -1817597605 -670077573 71055854 -1825968314 1417925744 -2058582976 1632304218 1360310021 -1550679014 240445805 60799776 1168512242 -329131704 1383054023 -1823992598 1379393967 -1935530395 -1855070752 1206666813 -981487775
REM
CELL 1.54180   50.00000   50.00000   50.00000   90.00000   90.00000   90.00000
LATT -1
SFAC C  
C      1  0.4470760000000  0.4909300000000  0.4652740000000 1.0
C      1  0.4928010000000  0.4652770000000  0.4443960000000 1.0
C      1  0.4685430000000  0.4348440000000  0.4925440000000 1.0
C      1  0.4470790000000  0.5090670000000  0.5347300000000 1.0
C      1  0.5620480000000  0.4927710000000  0.5269140000000 1.0
C      1  0.5620460000000  0.5072330000000  0.4730810000000 1.0
C      1  0.4928040000000  0.5347220000000  0.5556040000000 1.0
C      1  0.5116680000000  0.4655810000000  0.5596620000000 1.0
C      1  0.5116610000000  0.5344200000000  0.4403370000000 1.0
C      1  0.4685390000000  0.5651540000000  0.5074590000000 1.0
C      1  0.5335990000000  0.4377750000000  0.5142610000000 1.0
C      1  0.5335940000000  0.5622280000000  0.4857360000000 1.0
C      1  0.4379540000000  0.4730820000000  0.4927710000000 1.0
C      1  0.4883360000000  0.4403380000000  0.4655810000000 1.0
C      1  0.4664010000000  0.4857370000000  0.4377750000000 1.0
C      1  0.4379530000000  0.5269140000000  0.5072340000000 1.0
C      1  0.5529210000000  0.5347300000000  0.4909290000000 1.0
C      1  0.5529240000000  0.4652740000000  0.5090660000000 1.0
C      1  0.4883350000000  0.5596620000000  0.5344200000000 1.0
C      1  0.5071940000000  0.5556040000000  0.4652770000000 1.0
C      1  0.5072010000000  0.4443960000000  0.5347220000000 1.0
C      1  0.4664050000000  0.5142610000000  0.5622280000000 1.0
C      1  0.5314560000000  0.5074580000000  0.4348440000000 1.0
C      1  0.5314620000000  0.4925440000000  0.5651530000000 1.0
C      1  0.5432690000000  0.5185710000000  0.5621420000000 1.0
C      1  0.5200530000000  0.5594490000000  0.5403590000000 1.0
C      1  0.5615810000000  0.5400570000000  0.5223570000000 1.0
C      1  0.5432650000000  0.4814320000000  0.4378550000000 1.0
C      1  0.4624640000000  0.5192430000000  0.4420180000000 1.0
C      1  0.4624700000000  0.4807550000000  0.5579850000000 1.0
C      1  0.5200530000000  0.4405520000000  0.4596390000000 1.0
C      1  0.4751560000000  0.5634650000000  0.4597170000000 1.0
C      1  0.4751630000000  0.4365340000000  0.5402850000000 1.0
C      1  0.5615810000000  0.4599460000000  0.4776380000000 1.0
C      1  0.4379460000000  0.5400320000000  0.4818480000000 1.0
C      1  0.4379500000000  0.4599640000000  0.5181570000000 1.0
C      1  0.5375320000000  0.5579840000000  0.5192420000000 1.0
C      1  0.5248420000000  0.5402850000000  0.5634650000000 1.0
C      1  0.5620530000000  0.5181570000000  0.5400320000000 1.0
C      1  0.5375340000000  0.4420180000000  0.4807540000000 1.0
C      1  0.4567360000000  0.4378550000000  0.5185710000000 1.0
C      1  0.4567300000000  0.5621420000000  0.4814330000000 1.0
C      1  0.5248390000000  0.4597170000000  0.4365330000000 1.0
C      1  0.4799510000000  0.4596400000000  0.5594490000000 1.0
C      1  0.4799430000000  0.5403590000000  0.4405530000000 1.0
C      1  0.5620510000000  0.4818470000000  0.4599630000000 1.0
C      1  0.4384210000000  0.4776380000000  0.5400580000000 1.0
C      1  0.4384170000000  0.5223580000000  0.4599470000000 1.0
C      1  0.4677690000000  0.4878240000000  0.4908080000000 1.0
C      1  0.5139680000000  0.5103500000000  0.4628740000000 1.0
C      1  0.4677690000000  0.5121740000000  0.5091950000000 1.0
C      1  0.5322310000000  0.4908070000000  0.5121740000000 1.0
C      1  0.5322300000000  0.5091950000000  0.4878230000000 1.0
C      1  0.4860290000000  0.5371250000000  0.5103500000000 1.0
C      1  0.5096050000000  0.5394320000000  0.4935500000000 1.0
C      1  0.5096080000000  0.4605680000000  0.5064500000000 1.0
C      1  0.4903920000000  0.4935500000000  0.4605680000000 1.0
C      1  0.4860310000000  0.4628740000000  0.4896510000000 1.0
C      1  0.4903950000000  0.5064500000000  0.5394330000000 1.0
C      1  0.5139720000000  0.4896510000000  0.5371250000000 1.0
END
