TITL C-1154804-8633-619 0.000669708810443786 125000 -322.14252536998 0 0 60 (C1) n - 1
REM
REM in /home/nfs/bkarasulu/CARBON/AIRSS/Generating-Clusters/AIREBO/Higher-Symm/Only-C60
REM
REM
REM
REM
REM
REM ./C.cell (28575a23ae977d3b5fae324c64b13b57)
REM
REM compiler GCC version 9.2.1 20190827 (Red Hat 9.2.1-1)
REM options -cpp -mtune=generic -march=x86-64 -g -O0 -fpre-include=/usr/include/finclude/math-vector-fortran.h
REM seed 1129108094 -893969469 -395120523 -563544447 -1114838006 -1784809180 -1552864560 1000741769 -1866331374 1932221130 -432998949 925722036 -1806270066 -141902598 1583859237 -585883845 -2146703476 -2112376072 791591314 -1450988410 -1832496874 1239120672 -338494985 -1930308099 1681502869 -1338099877 -93622423 274394457 1619790018 311494103 -1599068154 597279594 38170258
REM
CELL 1.54180   50.00000   50.00000   50.00000   90.00000   90.00000   90.00000
LATT -1
SFAC C  
C      1  0.4181540000000  0.5001240000000  0.4877060000000 1.0
C      1  0.5380530000000  0.5000350000000  0.4729750000000 1.0
C      1  0.4322150000000  0.5131640000000  0.4662380000000 1.0
C      1  0.4692070000000  0.4996150000000  0.5690340000000 1.0
C      1  0.4650990000000  0.5573190000000  0.4735970000000 1.0
C      1  0.4826200000000  0.5199920000000  0.5796860000000 1.0
C      1  0.5865660000000  0.5226160000000  0.5011380000000 1.0
C      1  0.5060040000000  0.5335370000000  0.4406130000000 1.0
C      1  0.4957170000000  0.5021060000000  0.4395230000000 1.0
C      1  0.4669390000000  0.4891900000000  0.4308980000000 1.0
C      1  0.4751950000000  0.4969730000000  0.5350770000000 1.0
C      1  0.5310250000000  0.5417970000000  0.4494610000000 1.0
C      1  0.4435530000000  0.4846130000000  0.5334300000000 1.0
C      1  0.4726580000000  0.4581350000000  0.5265860000000 1.0
C      1  0.4286890000000  0.4840980000000  0.5080580000000 1.0
C      1  0.5776380000000  0.4852860000000  0.5374950000000 1.0
C      1  0.5038650000000  0.4681230000000  0.5357410000000 1.0
C      1  0.4893510000000  0.5207230000000  0.4664750000000 1.0
C      1  0.4900930000000  0.5517760000000  0.5460250000000 1.0
C      1  0.5840730000000  0.4971410000000  0.4574110000000 1.0
C      1  0.5221680000000  0.4265010000000  0.4805140000000 1.0
C      1  0.5012610000000  0.4241030000000  0.4975850000000 1.0
C      1  0.5141180000000  0.4732730000000  0.4377390000000 1.0
C      1  0.5467790000000  0.5602890000000  0.4381870000000 1.0
C      1  0.4572890000000  0.4847830000000  0.4801870000000 1.0
C      1  0.5581470000000  0.4872380000000  0.4549900000000 1.0
C      1  0.4478350000000  0.4933940000000  0.4497490000000 1.0
C      1  0.5287220000000  0.5214170000000  0.5845720000000 1.0
C      1  0.5364580000000  0.5279430000000  0.4734490000000 1.0
C      1  0.5369520000000  0.4657680000000  0.4525140000000 1.0
C      1  0.4967340000000  0.4967200000000  0.5087580000000 1.0
C      1  0.4697900000000  0.4324940000000  0.5043120000000 1.0
C      1  0.5481040000000  0.4632270000000  0.5038840000000 1.0
C      1  0.5333190000000  0.5468900000000  0.5468440000000 1.0
C      1  0.4673080000000  0.5835850000000  0.4661140000000 1.0
C      1  0.4516980000000  0.4609690000000  0.5023280000000 1.0
C      1  0.4625510000000  0.5320540000000  0.5080540000000 1.0
C      1  0.5955680000000  0.5080180000000  0.4798810000000 1.0
C      1  0.5347150000000  0.5113860000000  0.5206910000000 1.0
C      1  0.4429050000000  0.5400720000000  0.4673730000000 1.0
C      1  0.4924480000000  0.4198230000000  0.5275750000000 1.0
C      1  0.4902040000000  0.5434930000000  0.4919060000000 1.0
C      1  0.4352110000000  0.5435450000000  0.5254010000000 1.0
C      1  0.4546280000000  0.4563240000000  0.4628960000000 1.0
C      1  0.5356700000000  0.5513130000000  0.5224580000000 1.0
C      1  0.5092280000000  0.5282470000000  0.5614250000000 1.0
C      1  0.5222430000000  0.5345340000000  0.4990510000000 1.0
C      1  0.4977090000000  0.4373690000000  0.5491980000000 1.0
C      1  0.5563290000000  0.4851040000000  0.5203070000000 1.0
C      1  0.4873040000000  0.4670730000000  0.4231310000000 1.0
C      1  0.4742430000000  0.5069090000000  0.4913680000000 1.0
C      1  0.5664030000000  0.5236360000000  0.5192520000000 1.0
C      1  0.5172050000000  0.4623930000000  0.5081700000000 1.0
C      1  0.5379020000000  0.4495940000000  0.4765260000000 1.0
C      1  0.5198430000000  0.4874100000000  0.4896240000000 1.0
C      1  0.5086910000000  0.5015000000000  0.5402330000000 1.0
C      1  0.4706820000000  0.4503610000000  0.5596280000000 1.0
C      1  0.4637220000000  0.5479060000000  0.5366650000000 1.0
C      1  0.4541720000000  0.4749690000000  0.5606820000000 1.0
C      1  0.4970250000000  0.5620090000000  0.5196080000000 1.0
END
