TITL C-1154801-8518-253 0.000980924091162603 125000 -327.750742527856 0 0 60 (C1) n - 1
REM
REM in /home/nfs/bkarasulu/CARBON/AIRSS/Generating-Clusters/AIREBO/Higher-Symm/Only-C60
REM
REM
REM
REM
REM
REM ./C.cell (28575a23ae977d3b5fae324c64b13b57)
REM
REM compiler GCC version 9.2.1 20190827 (Red Hat 9.2.1-1)
REM options -cpp -mtune=generic -march=x86-64 -g -O0 -fpre-include=/usr/include/finclude/math-vector-fortran.h
REM seed 1068255494 2127185881 -1741326936 -1630350602 534837985 1262792412 -1588688950 -612006600 -1826040086 226130051 1847647681 -1902669085 214790450 1604168398 360441716 76229105 943724519 -248696148 862562474 365764532 -1374819621 -1288682349 1753992702 457141851 -666495815 786027222 2066688886 2074238504 1754780593 -567632060 -1207626296 -1688128209 -1558722075
REM
CELL 1.54180   50.00000   50.00000   50.00000   90.00000   90.00000   90.00000
LATT -1
SFAC C  
C      1  0.4848790000000  0.5581170000000  0.4629290000000 1.0
C      1  0.4926280000000  0.5544810000000  0.5330200000000 1.0
C      1  0.5530060000000  0.5074160000000  0.5318740000000 1.0
C      1  0.5539690000000  0.5125210000000  0.4649200000000 1.0
C      1  0.5248730000000  0.5584880000000  0.4629560000000 1.0
C      1  0.5455320000000  0.5527880000000  0.5380090000000 1.0
C      1  0.4845270000000  0.4783730000000  0.4815730000000 1.0
C      1  0.4812620000000  0.4797940000000  0.5115430000000 1.0
C      1  0.5296720000000  0.4989950000000  0.4844890000000 1.0
C      1  0.5244700000000  0.5076210000000  0.5152150000000 1.0
C      1  0.4569480000000  0.4642380000000  0.4705710000000 1.0
C      1  0.4572010000000  0.4649800000000  0.5256510000000 1.0
C      1  0.4416550000000  0.4892370000000  0.4822570000000 1.0
C      1  0.4416900000000  0.4918980000000  0.5133730000000 1.0
C      1  0.4487200000000  0.4394760000000  0.5140520000000 1.0
C      1  0.4492060000000  0.4387850000000  0.4829290000000 1.0
C      1  0.5085420000000  0.5681280000000  0.5067820000000 1.0
C      1  0.4980550000000  0.5789940000000  0.4843870000000 1.0
C      1  0.5218030000000  0.4437520000000  0.5241600000000 1.0
C      1  0.5189100000000  0.4467960000000  0.4974400000000 1.0
C      1  0.4623180000000  0.4662110000000  0.4407670000000 1.0
C      1  0.4626540000000  0.4660860000000  0.5556250000000 1.0
C      1  0.4793670000000  0.5295460000000  0.5140870000000 1.0
C      1  0.4915370000000  0.5311340000000  0.4825300000000 1.0
C      1  0.5165930000000  0.4704290000000  0.4735290000000 1.0
C      1  0.5294780000000  0.4597390000000  0.5457000000000 1.0
C      1  0.5075450000000  0.5511290000000  0.4409490000000 1.0
C      1  0.5158020000000  0.5462250000000  0.5531610000000 1.0
C      1  0.4691180000000  0.5681700000000  0.5126000000000 1.0
C      1  0.4634160000000  0.5590570000000  0.4873850000000 1.0
C      1  0.4645180000000  0.4924620000000  0.4316860000000 1.0
C      1  0.4675390000000  0.4938130000000  0.5593190000000 1.0
C      1  0.5181060000000  0.5208360000000  0.5654300000000 1.0
C      1  0.5146750000000  0.5256620000000  0.4321580000000 1.0
C      1  0.5489340000000  0.4632640000000  0.4658510000000 1.0
C      1  0.5511070000000  0.4749780000000  0.5418940000000 1.0
C      1  0.5258530000000  0.5416510000000  0.5151170000000 1.0
C      1  0.5254630000000  0.5327340000000  0.4841250000000 1.0
C      1  0.5217220000000  0.4685670000000  0.5931900000000 1.0
C      1  0.5341950000000  0.4692780000000  0.4221270000000 1.0
C      1  0.5410520000000  0.5195040000000  0.4369930000000 1.0
C      1  0.5440090000000  0.5115550000000  0.5630850000000 1.0
C      1  0.5100820000000  0.4731810000000  0.4402700000000 1.0
C      1  0.5103380000000  0.4688270000000  0.5672920000000 1.0
C      1  0.4952730000000  0.5036630000000  0.4375010000000 1.0
C      1  0.4984640000000  0.4983680000000  0.5588700000000 1.0
C      1  0.4812460000000  0.5063410000000  0.4662160000000 1.0
C      1  0.4950640000000  0.5028490000000  0.5255980000000 1.0
C      1  0.4484250000000  0.4088620000000  0.5088760000000 1.0
C      1  0.4485490000000  0.4076890000000  0.4778970000000 1.0
C      1  0.5656890000000  0.5392510000000  0.5151290000000 1.0
C      1  0.5596940000000  0.5373960000000  0.4873860000000 1.0
C      1  0.5653710000000  0.4826330000000  0.4655980000000 1.0
C      1  0.5786020000000  0.4843440000000  0.5317560000000 1.0
C      1  0.4569760000000  0.5082100000000  0.5393270000000 1.0
C      1  0.4512270000000  0.5141790000000  0.4703760000000 1.0
C      1  0.4833450000000  0.4517570000000  0.5662760000000 1.0
C      1  0.4859080000000  0.4534270000000  0.4336810000000 1.0
C      1  0.4476290000000  0.5365010000000  0.4871030000000 1.0
C      1  0.4455680000000  0.5256150000000  0.5154100000000 1.0
END
