TITL C-1154825-9328-556 -0.000115471237550774 125000 -323.934856702314 0 0 60 (C1) n - 1
REM
REM in /home/nfs/bkarasulu/CARBON/AIRSS/Generating-Clusters/AIREBO/Higher-Symm/Only-C60
REM
REM
REM
REM
REM
REM ./C.cell (28575a23ae977d3b5fae324c64b13b57)
REM
REM compiler GCC version 9.2.1 20190827 (Red Hat 9.2.1-1)
REM options -cpp -mtune=generic -march=x86-64 -g -O0 -fpre-include=/usr/include/finclude/math-vector-fortran.h
REM seed -506702413 -1018672042 -1219360764 1263654541 -679489354 -438572809 1693001924 -834569354 -1513097060 801706478 1556034618 1309823642 2219208 -806140126 -1590673054 1758604388 -1353969360 -543774813 2054624036 -728050861 -73973449 1397382031 -1681616981 980844389 335915918 678271024 -71511754 -1803025918 -1147091821 439752593 1067049174 -725420117 -1357945791
REM
CELL 1.54180   50.00000   50.00000   50.00000   90.00000   90.00000   90.00000
LATT -1
SFAC C  
C      1  0.4268940000000  0.5280250000000  0.5118200000000 1.0
C      1  0.4348030000000  0.5048400000000  0.5301690000000 1.0
C      1  0.4238830000000  0.4791130000000  0.5178770000000 1.0
C      1  0.4340690000000  0.4747400000000  0.4902180000000 1.0
C      1  0.4217460000000  0.4994530000000  0.4741310000000 1.0
C      1  0.4358960000000  0.5248170000000  0.4825910000000 1.0
C      1  0.5761810000000  0.5264470000000  0.5129100000000 1.0
C      1  0.5662970000000  0.5026730000000  0.5290490000000 1.0
C      1  0.5788200000000  0.4780610000000  0.5166180000000 1.0
C      1  0.5677150000000  0.4749330000000  0.4885280000000 1.0
C      1  0.5778510000000  0.4988010000000  0.4727310000000 1.0
C      1  0.5662130000000  0.5243610000000  0.4843460000000 1.0
C      1  0.4672490000000  0.5064970000000  0.5320440000000 1.0
C      1  0.4801960000000  0.4786600000000  0.5174060000000 1.0
C      1  0.4640470000000  0.4673660000000  0.4919740000000 1.0
C      1  0.4852290000000  0.5000570000000  0.4686170000000 1.0
C      1  0.4664010000000  0.5213780000000  0.4805490000000 1.0
C      1  0.4818040000000  0.5246580000000  0.5090290000000 1.0
C      1  0.5365000000000  0.5027820000000  0.5242460000000 1.0
C      1  0.5119750000000  0.4811120000000  0.5150340000000 1.0
C      1  0.5376110000000  0.4763460000000  0.4931980000000 1.0
C      1  0.5142340000000  0.4936940000000  0.4773530000000 1.0
C      1  0.5367320000000  0.5184280000000  0.4835340000000 1.0
C      1  0.5127780000000  0.5201180000000  0.5071210000000 1.0
C      1  0.5112880000000  0.5473200000000  0.4733710000000 1.0
C      1  0.5129940000000  0.5465350000000  0.5369130000000 1.0
C      1  0.5117910000000  0.4925270000000  0.5538740000000 1.0
C      1  0.5167560000000  0.4427470000000  0.5245080000000 1.0
C      1  0.5143790000000  0.4534450000000  0.4702570000000 1.0
C      1  0.5150570000000  0.5030290000000  0.4387470000000 1.0
C      1  0.4811270000000  0.5489560000000  0.4685330000000 1.0
C      1  0.4879140000000  0.5537400000000  0.5481790000000 1.0
C      1  0.4836980000000  0.4882830000000  0.5558740000000 1.0
C      1  0.4881610000000  0.4396700000000  0.5260050000000 1.0
C      1  0.4847860000000  0.4507400000000  0.4707710000000 1.0
C      1  0.4831760000000  0.5008200000000  0.4352440000000 1.0
C      1  0.5728350000000  0.5474940000000  0.4693790000000 1.0
C      1  0.5939570000000  0.5435900000000  0.5211960000000 1.0
C      1  0.5725510000000  0.5047120000000  0.5566390000000 1.0
C      1  0.5993940000000  0.4652310000000  0.5260780000000 1.0
C      1  0.5752550000000  0.4504630000000  0.4763100000000 1.0
C      1  0.5969240000000  0.4978950000000  0.4550190000000 1.0
C      1  0.4275520000000  0.5467960000000  0.4665150000000 1.0
C      1  0.4157160000000  0.5499060000000  0.5207300000000 1.0
C      1  0.4237410000000  0.5084150000000  0.5562940000000 1.0
C      1  0.4089530000000  0.4621800000000  0.5309430000000 1.0
C      1  0.4427330000000  0.4702810000000  0.4576420000000 1.0
C      1  0.4003190000000  0.4981560000000  0.4593540000000 1.0
C      1  0.4692560000000  0.5337330000000  0.5523000000000 1.0
C      1  0.4752980000000  0.4597730000000  0.5452550000000 1.0
C      1  0.4755090000000  0.4376160000000  0.5008100000000 1.0
C      1  0.4707680000000  0.4745210000000  0.4532490000000 1.0
C      1  0.4716190000000  0.5313110000000  0.4421560000000 1.0
C      1  0.4722680000000  0.5550610000000  0.5006920000000 1.0
C      1  0.5215690000000  0.5210820000000  0.5461100000000 1.0
C      1  0.5255330000000  0.4669870000000  0.5428400000000 1.0
C      1  0.5260950000000  0.4464640000000  0.4976650000000 1.0
C      1  0.5242680000000  0.4749740000000  0.4507990000000 1.0
C      1  0.5230310000000  0.5253500000000  0.4545950000000 1.0
C      1  0.5186070000000  0.5528410000000  0.5040590000000 1.0
END
