TITL C-1154830-9999-385 -0.000437556104936747 125000 -315.371500417662 0 0 60 (C1) n - 1
REM
REM in /home/nfs/bkarasulu/CARBON/AIRSS/Generating-Clusters/AIREBO/Higher-Symm/Only-C60
REM
REM
REM
REM
REM
REM ./C.cell (28575a23ae977d3b5fae324c64b13b57)
REM
REM compiler GCC version 9.2.1 20190827 (Red Hat 9.2.1-1)
REM options -cpp -mtune=generic -march=x86-64 -g -O0 -fpre-include=/usr/include/finclude/math-vector-fortran.h
REM seed -683614390 1021262442 -81086100 345389168 891521532 -453097045 -1022243654 63265909 52330307 203433372 670321009 -1267386019 668927906 1867283712 1860782597 43339300 -1642132722 1808446829 -972709155 1035564845 815149238 -1959004843 1871325175 -1441984842 786439857 -45308874 -217924932 -1676635372 1647336454 -1195550336 642059498 58389593 1591631250
REM
CELL 1.54180   50.00000   50.00000   50.00000   90.00000   90.00000   90.00000
LATT -1
SFAC C  
C      1  0.5553920000000  0.5248950000000  0.4961500000000 1.0
C      1  0.4923790000000  0.5679920000000  0.4895770000000 1.0
C      1  0.4333540000000  0.5134190000000  0.4898600000000 1.0
C      1  0.4626430000000  0.4393400000000  0.4939880000000 1.0
C      1  0.5445530000000  0.4395500000000  0.4887730000000 1.0
C      1  0.4552230000000  0.4846040000000  0.4490020000000 1.0
C      1  0.4832010000000  0.4665280000000  0.4534170000000 1.0
C      1  0.5412430000000  0.4870030000000  0.4599770000000 1.0
C      1  0.5435890000000  0.5197360000000  0.4583060000000 1.0
C      1  0.4757270000000  0.5493120000000  0.4451700000000 1.0
C      1  0.4732080000000  0.5488400000000  0.5091060000000 1.0
C      1  0.4479540000000  0.4906690000000  0.5105120000000 1.0
C      1  0.4901010000000  0.4425020000000  0.5138580000000 1.0
C      1  0.5558280000000  0.4594520000000  0.5139360000000 1.0
C      1  0.5450650000000  0.5473070000000  0.5162720000000 1.0
C      1  0.4938160000000  0.4824400000000  0.4807080000000 1.0
C      1  0.5226160000000  0.4969700000000  0.4862620000000 1.0
C      1  0.5121010000000  0.5249470000000  0.4700310000000 1.0
C      1  0.4897990000000  0.5254800000000  0.4484520000000 1.0
C      1  0.4754040000000  0.5037900000000  0.4651640000000 1.0
C      1  0.5694860000000  0.5030230000000  0.5174440000000 1.0
C      1  0.5122680000000  0.5543150000000  0.5136260000000 1.0
C      1  0.4476950000000  0.5295100000000  0.5161840000000 1.0
C      1  0.4547190000000  0.4598670000000  0.5199130000000 1.0
C      1  0.5233130000000  0.4365350000000  0.5152360000000 1.0
C      1  0.5435620000000  0.5485010000000  0.4764340000000 1.0
C      1  0.4660170000000  0.5576840000000  0.4708120000000 1.0
C      1  0.4360210000000  0.4838590000000  0.4732190000000 1.0
C      1  0.4874850000000  0.4417940000000  0.4733450000000 1.0
C      1  0.5602820000000  0.4666380000000  0.4755220000000 1.0
C      1  0.4664210000000  0.5435950000000  0.5403520000000 1.0
C      1  0.4489940000000  0.4833580000000  0.5423760000000 1.0
C      1  0.5052040000000  0.4450330000000  0.5426210000000 1.0
C      1  0.5657140000000  0.4767370000000  0.5340370000000 1.0
C      1  0.5256920000000  0.5497620000000  0.5428250000000 1.0
C      1  0.5135060000000  0.4325200000000  0.4768090000000 1.0
C      1  0.5704890000000  0.4961710000000  0.4852720000000 1.0
C      1  0.5240100000000  0.5674270000000  0.4778900000000 1.0
C      1  0.4431890000000  0.5443930000000  0.4796880000000 1.0
C      1  0.4358150000000  0.4581430000000  0.4848550000000 1.0
C      1  0.4500730000000  0.4774890000000  0.5739260000000 1.0
C      1  0.5066070000000  0.4506100000000  0.5740690000000 1.0
C      1  0.5510110000000  0.4820060000000  0.5563730000000 1.0
C      1  0.5284260000000  0.5459960000000  0.5763280000000 1.0
C      1  0.4584280000000  0.5413270000000  0.5712760000000 1.0
C      1  0.4714950000000  0.5623470000000  0.4221400000000 1.0
C      1  0.4426270000000  0.4853310000000  0.4218640000000 1.0
C      1  0.5040780000000  0.4678660000000  0.4311700000000 1.0
C      1  0.5274560000000  0.4755610000000  0.4351950000000 1.0
C      1  0.5588540000000  0.5271870000000  0.4326550000000 1.0
C      1  0.5244770000000  0.4691170000000  0.5056820000000 1.0
C      1  0.5358160000000  0.4981730000000  0.5183590000000 1.0
C      1  0.4984790000000  0.5293490000000  0.4973760000000 1.0
C      1  0.4717500000000  0.5106010000000  0.4982950000000 1.0
C      1  0.4826820000000  0.4719810000000  0.5048360000000 1.0
C      1  0.5123570000000  0.5238220000000  0.5588120000000 1.0
C      1  0.4822870000000  0.5216790000000  0.5604020000000 1.0
C      1  0.4756090000000  0.4921790000000  0.5596670000000 1.0
C      1  0.5009710000000  0.4765640000000  0.5549210000000 1.0
C      1  0.5234410000000  0.4971790000000  0.5496700000000 1.0
END
