TITL C-1154830-9999-507 0.000461736214437513 125000 -347.321707123513 0 0 60 (C1) n - 1
REM
REM in /home/nfs/bkarasulu/CARBON/AIRSS/Generating-Clusters/AIREBO/Higher-Symm/Only-C60
REM
REM
REM
REM
REM
REM ./C.cell (28575a23ae977d3b5fae324c64b13b57)
REM
REM compiler GCC version 9.2.1 20190827 (Red Hat 9.2.1-1)
REM options -cpp -mtune=generic -march=x86-64 -g -O0 -fpre-include=/usr/include/finclude/math-vector-fortran.h
REM seed 873934127 1012878837 -1487227859 1379234250 -1761094220 622937726 2118551210 -2015845497 -1422261788 274068411 -1466465485 588711332 -411506698 1628313201 -13223611 -1479114714 -1334542755 -1311784573 613837742 692024347 -309043829 -147321349 156760055 464903673 377287246 1068091564 626791990 806054656 741216152 1424785672 -905502681 44812937 1756231245
REM
CELL 1.54180   50.00000   50.00000   50.00000   90.00000   90.00000   90.00000
LATT -1
SFAC C  
C      1  0.5411910000000  0.5505580000000  0.5204910000000 1.0
C      1  0.5689660000000  0.4706030000000  0.5428030000000 1.0
C      1  0.4956990000000  0.4149330000000  0.5071640000000 1.0
C      1  0.4390180000000  0.4659360000000  0.5657330000000 1.0
C      1  0.4463820000000  0.5290770000000  0.5140150000000 1.0
C      1  0.5193510000000  0.4475120000000  0.4540600000000 1.0
C      1  0.5648920000000  0.5023930000000  0.4930700000000 1.0
C      1  0.4980180000000  0.5690870000000  0.4640150000000 1.0
C      1  0.4123480000000  0.5076010000000  0.4619250000000 1.0
C      1  0.4453020000000  0.4576610000000  0.4946110000000 1.0
C      1  0.5338150000000  0.5139890000000  0.5889470000000 1.0
C      1  0.5214460000000  0.5236120000000  0.6128590000000 1.0
C      1  0.5033910000000  0.5445210000000  0.6056710000000 1.0
C      1  0.5045350000000  0.5478360000000  0.5773030000000 1.0
C      1  0.5235680000000  0.5288740000000  0.5660590000000 1.0
C      1  0.5454640000000  0.5289530000000  0.4308860000000 1.0
C      1  0.5586440000000  0.5476080000000  0.4130190000000 1.0
C      1  0.5554950000000  0.5385880000000  0.3861850000000 1.0
C      1  0.5403930000000  0.5144420000000  0.3867190000000 1.0
C      1  0.5337010000000  0.5080590000000  0.4142050000000 1.0
C      1  0.5212180000000  0.4742510000000  0.5367850000000 1.0
C      1  0.5049730000000  0.4519240000000  0.5353840000000 1.0
C      1  0.4739500000000  0.4950050000000  0.5533890000000 1.0
C      1  0.4855300000000  0.5094150000000  0.5327810000000 1.0
C      1  0.5140150000000  0.5013050000000  0.5235470000000 1.0
C      1  0.5166660000000  0.5007220000000  0.4918370000000 1.0
C      1  0.4717200000000  0.5336280000000  0.4469450000000 1.0
C      1  0.4594210000000  0.5093360000000  0.4522690000000 1.0
C      1  0.4713360000000  0.4890650000000  0.4678720000000 1.0
C      1  0.4998690000000  0.4882500000000  0.4724420000000 1.0
C      1  0.4568190000000  0.4642910000000  0.4703770000000 1.0
C      1  0.4325010000000  0.5057340000000  0.4426680000000 1.0
C      1  0.4823240000000  0.5590840000000  0.4434820000000 1.0
C      1  0.5412620000000  0.5102950000000  0.4810820000000 1.0
C      1  0.5136010000000  0.4743780000000  0.4506470000000 1.0
C      1  0.4721520000000  0.5322810000000  0.5236150000000 1.0
C      1  0.4616460000000  0.4803770000000  0.5736270000000 1.0
C      1  0.4954150000000  0.4258820000000  0.5326500000000 1.0
C      1  0.5436620000000  0.4724530000000  0.5541980000000 1.0
C      1  0.5306040000000  0.5238660000000  0.5377740000000 1.0
C      1  0.4321480000000  0.4527840000000  0.5173390000000 1.0
C      1  0.4063670000000  0.5212550000000  0.4845650000000 1.0
C      1  0.5172460000000  0.5743350000000  0.4818040000000 1.0
C      1  0.5875720000000  0.4922780000000  0.5036430000000 1.0
C      1  0.5128730000000  0.4222030000000  0.4606020000000 1.0
C      1  0.4205980000000  0.5261830000000  0.5071310000000 1.0
C      1  0.4318350000000  0.4512140000000  0.5442080000000 1.0
C      1  0.5065560000000  0.4088670000000  0.4832960000000 1.0
C      1  0.5895280000000  0.4808270000000  0.5284150000000 1.0
C      1  0.5297200000000  0.5692250000000  0.5050260000000 1.0
C      1  0.4776660000000  0.5732870000000  0.4210260000000 1.0
C      1  0.5420960000000  0.5260600000000  0.4581450000000 1.0
C      1  0.5189030000000  0.4889630000000  0.4275480000000 1.0
C      1  0.4553320000000  0.4474210000000  0.4492820000000 1.0
C      1  0.4275180000000  0.5013640000000  0.4165400000000 1.0
C      1  0.4863160000000  0.4119960000000  0.5539160000000 1.0
C      1  0.5402090000000  0.4704680000000  0.5809180000000 1.0
C      1  0.5632650000000  0.5309500000000  0.5309510000000 1.0
C      1  0.4832900000000  0.5568500000000  0.5235280000000 1.0
C      1  0.4706560000000  0.4800890000000  0.5990070000000 1.0
END
