TITL C-1154826-9507-108 -0.000383102038349232 125000 -315.799107970132 0 0 60 (C1) n - 1
REM
REM in /home/nfs/bkarasulu/CARBON/AIRSS/Generating-Clusters/AIREBO/Higher-Symm/Only-C60
REM
REM
REM
REM
REM
REM ./C.cell (28575a23ae977d3b5fae324c64b13b57)
REM
REM compiler GCC version 9.2.1 20190827 (Red Hat 9.2.1-1)
REM options -cpp -mtune=generic -march=x86-64 -g -O0 -fpre-include=/usr/include/finclude/math-vector-fortran.h
REM seed -602565271 179024795 651985321 -1832703303 379002660 1176583782 1433514232 1430378857 -1399291305 -1574835113 -388792408 -1681162280 -562616718 -533961036 63395059 -405907816 926245591 -891377793 -1150026970 -2009865531 -771162228 -1746519247 -1805159931 1357079628 -852524584 -999984094 -2119410273 1526257006 -297471604 -716897089 -1419915021 -230468270 -2076678590
REM
CELL 1.54180   50.00000   50.00000   50.00000   90.00000   90.00000   90.00000
LATT -1
SFAC C  
C      1  0.4719470000000  0.4828060000000  0.4831260000000 1.0
C      1  0.5042480000000  0.4742850000000  0.4777340000000 1.0
C      1  0.5242840000000  0.4918980000000  0.4922910000000 1.0
C      1  0.5243080000000  0.5240850000000  0.4912840000000 1.0
C      1  0.4931140000000  0.5167230000000  0.4890490000000 1.0
C      1  0.5276720000000  0.4844540000000  0.5216890000000 1.0
C      1  0.4987900000000  0.4695640000000  0.5286920000000 1.0
C      1  0.4781990000000  0.4883360000000  0.5127220000000 1.0
C      1  0.4797030000000  0.5204810000000  0.5184620000000 1.0
C      1  0.5127520000000  0.5252410000000  0.5227270000000 1.0
C      1  0.4928670000000  0.4720320000000  0.5616790000000 1.0
C      1  0.5234240000000  0.4821320000000  0.5571400000000 1.0
C      1  0.5257480000000  0.5126620000000  0.5497680000000 1.0
C      1  0.4926380000000  0.5168910000000  0.5562410000000 1.0
C      1  0.4710000000000  0.4926820000000  0.5458130000000 1.0
C      1  0.5073880000000  0.4687850000000  0.4446530000000 1.0
C      1  0.4779420000000  0.4845790000000  0.4499710000000 1.0
C      1  0.4816180000000  0.5171820000000  0.4589200000000 1.0
C      1  0.5109520000000  0.5177960000000  0.4417380000000 1.0
C      1  0.5319150000000  0.4975360000000  0.4596290000000 1.0
C      1  0.5639000000000  0.5199240000000  0.4883030000000 1.0
C      1  0.4996390000000  0.5658150000000  0.4825260000000 1.0
C      1  0.4319280000000  0.5304990000000  0.4637520000000 1.0
C      1  0.4584220000000  0.4534080000000  0.4905680000000 1.0
C      1  0.5387120000000  0.4471150000000  0.4817780000000 1.0
C      1  0.4427130000000  0.5571720000000  0.5004010000000 1.0
C      1  0.4969290000000  0.5706580000000  0.5100040000000 1.0
C      1  0.5605920000000  0.5223930000000  0.5155050000000 1.0
C      1  0.5430180000000  0.4459250000000  0.5090490000000 1.0
C      1  0.4628390000000  0.4463020000000  0.5194810000000 1.0
C      1  0.5477080000000  0.5444520000000  0.5250850000000 1.0
C      1  0.4724030000000  0.5716030000000  0.5219730000000 1.0
C      1  0.4228960000000  0.4678990000000  0.5414630000000 1.0
C      1  0.4860690000000  0.4319470000000  0.5249930000000 1.0
C      1  0.5613140000000  0.4630350000000  0.5205110000000 1.0
C      1  0.4475740000000  0.5513650000000  0.4746210000000 1.0
C      1  0.5255520000000  0.5645420000000  0.4735350000000 1.0
C      1  0.5683450000000  0.4960170000000  0.4760180000000 1.0
C      1  0.5154830000000  0.4363700000000  0.4722720000000 1.0
C      1  0.4340840000000  0.4714780000000  0.4772280000000 1.0
C      1  0.4846590000000  0.4476130000000  0.4697290000000 1.0
C      1  0.5514480000000  0.4701700000000  0.4647530000000 1.0
C      1  0.5447430000000  0.5390720000000  0.4722160000000 1.0
C      1  0.4774660000000  0.5509710000000  0.4638610000000 1.0
C      1  0.4332840000000  0.4971140000000  0.4672180000000 1.0
C      1  0.5178590000000  0.4415460000000  0.5259220000000 1.0
C      1  0.4505700000000  0.4652280000000  0.5412270000000 1.0
C      1  0.4575030000000  0.5425910000000  0.5249480000000 1.0
C      1  0.5170370000000  0.5570870000000  0.5280380000000 1.0
C      1  0.5574050000000  0.4943340000000  0.5307010000000 1.0
C      1  0.4505420000000  0.5131910000000  0.4457160000000 1.0
C      1  0.4746770000000  0.4531060000000  0.4379220000000 1.0
C      1  0.5342030000000  0.4645070000000  0.4374360000000 1.0
C      1  0.5428420000000  0.5254200000000  0.4440720000000 1.0
C      1  0.4935940000000  0.5460790000000  0.4343310000000 1.0
C      1  0.5575340000000  0.5180390000000  0.5550780000000 1.0
C      1  0.5269070000000  0.4519600000000  0.5552310000000 1.0
C      1  0.4657410000000  0.4614330000000  0.5701140000000 1.0
C      1  0.4483800000000  0.5175120000000  0.5431250000000 1.0
C      1  0.5029810000000  0.5449590000000  0.5559710000000 1.0
END
