TITL C-1154816-9297-136 0.000272160860996386 125000 -318.086537050661 0 0 60 (C1) n - 1
REM
REM in /home/nfs/bkarasulu/CARBON/AIRSS/Generating-Clusters/AIREBO/Higher-Symm/Only-C60
REM
REM
REM
REM
REM
REM ./C.cell (28575a23ae977d3b5fae324c64b13b57)
REM
REM compiler GCC version 9.2.1 20190827 (Red Hat 9.2.1-1)
REM options -cpp -mtune=generic -march=x86-64 -g -O0 -fpre-include=/usr/include/finclude/math-vector-fortran.h
REM seed 822972789 1987504914 -660459933 -1941472884 -802996105 -176150297 1491533324 2120609292 306012843 -793389182 -1425632534 -339793347 -1103959401 -816361348 2063784795 -117581601 -510519333 -1430670724 -1072340526 -1629404904 1043761804 1789187594 -814956461 -1194727558 -2127695733 921135838 -2067909895 -1004380338 81021253 453605079 690610573 -1356421272 -1115458767
REM
CELL 1.54180   50.00000   50.00000   50.00000   90.00000   90.00000   90.00000
LATT -1
SFAC C  
C      1  0.5653380000000  0.5350470000000  0.5309580000000 1.0
C      1  0.4450750000000  0.5460100000000  0.4584780000000 1.0
C      1  0.5601260000000  0.5370060000000  0.4628550000000 1.0
C      1  0.4472480000000  0.5427860000000  0.5405000000000 1.0
C      1  0.5450090000000  0.4951310000000  0.4384630000000 1.0
C      1  0.4491570000000  0.4865630000000  0.5453640000000 1.0
C      1  0.5460320000000  0.4907530000000  0.5635400000000 1.0
C      1  0.4467330000000  0.4914790000000  0.4484210000000 1.0
C      1  0.4843320000000  0.5241560000000  0.4407770000000 1.0
C      1  0.5120450000000  0.5205140000000  0.5549780000000 1.0
C      1  0.4876410000000  0.5181880000000  0.5528610000000 1.0
C      1  0.5087080000000  0.5285350000000  0.4378830000000 1.0
C      1  0.5433380000000  0.4368610000000  0.5177230000000 1.0
C      1  0.4649860000000  0.4289870000000  0.4864880000000 1.0
C      1  0.5496790000000  0.4383440000000  0.4859670000000 1.0
C      1  0.4612840000000  0.4294970000000  0.5174930000000 1.0
C      1  0.4813130000000  0.4915890000000  0.5128780000000 1.0
C      1  0.5108000000000  0.4952270000000  0.4719830000000 1.0
C      1  0.4776250000000  0.4905390000000  0.4793310000000 1.0
C      1  0.5056280000000  0.4791960000000  0.5244040000000 1.0
C      1  0.4492490000000  0.4812620000000  0.5118510000000 1.0
C      1  0.5387210000000  0.4875300000000  0.4871170000000 1.0
C      1  0.4458090000000  0.4784970000000  0.4786950000000 1.0
C      1  0.5334200000000  0.4891910000000  0.5182800000000 1.0
C      1  0.5162880000000  0.5665600000000  0.5147780000000 1.0
C      1  0.4856430000000  0.5637290000000  0.4730170000000 1.0
C      1  0.5136990000000  0.5707790000000  0.4818280000000 1.0
C      1  0.4883290000000  0.5604850000000  0.5261460000000 1.0
C      1  0.5320540000000  0.5182510000000  0.4587730000000 1.0
C      1  0.4624340000000  0.5140670000000  0.5304140000000 1.0
C      1  0.5407240000000  0.5128190000000  0.5384580000000 1.0
C      1  0.4618460000000  0.5172170000000  0.4653230000000 1.0
C      1  0.4845790000000  0.4652360000000  0.4577010000000 1.0
C      1  0.5080030000000  0.4595130000000  0.5487010000000 1.0
C      1  0.4789240000000  0.4496420000000  0.5584200000000 1.0
C      1  0.5174340000000  0.4628080000000  0.4641520000000 1.0
C      1  0.4653770000000  0.4746460000000  0.4346080000000 1.0
C      1  0.5302790000000  0.4711770000000  0.5671670000000 1.0
C      1  0.4581780000000  0.4678540000000  0.5622050000000 1.0
C      1  0.5342810000000  0.4720010000000  0.4384220000000 1.0
C      1  0.4794180000000  0.5370830000000  0.5120180000000 1.0
C      1  0.5271840000000  0.5397990000000  0.4851030000000 1.0
C      1  0.4796020000000  0.5384160000000  0.4851130000000 1.0
C      1  0.5285350000000  0.5347960000000  0.5155540000000 1.0
C      1  0.5551390000000  0.4648290000000  0.5150460000000 1.0
C      1  0.4416120000000  0.4493340000000  0.4892490000000 1.0
C      1  0.5618090000000  0.4670990000000  0.4832860000000 1.0
C      1  0.4382520000000  0.4503620000000  0.5208930000000 1.0
C      1  0.5123540000000  0.4377790000000  0.5228310000000 1.0
C      1  0.4878310000000  0.4382360000000  0.4739010000000 1.0
C      1  0.5159620000000  0.4394020000000  0.4889350000000 1.0
C      1  0.4829940000000  0.4320660000000  0.5344780000000 1.0
C      1  0.5457130000000  0.5604370000000  0.5308070000000 1.0
C      1  0.4623960000000  0.5687410000000  0.4573450000000 1.0
C      1  0.5426940000000  0.5632280000000  0.4659400000000 1.0
C      1  0.4656840000000  0.5645350000000  0.5433800000000 1.0
C      1  0.4362430000000  0.5300020000000  0.4856940000000 1.0
C      1  0.5825790000000  0.5319810000000  0.5090340000000 1.0
C      1  0.4363160000000  0.5300880000000  0.5123650000000 1.0
C      1  0.5803110000000  0.5321130000000  0.4816240000000 1.0
END
