TITL C-1154826-9507-540 -0.0010577118257271 125000 -337.370588820436 0 0 60 (C2) n - 1
REM
REM in /home/nfs/bkarasulu/CARBON/AIRSS/Generating-Clusters/AIREBO/Higher-Symm/Only-C60
REM
REM
REM
REM
REM
REM ./C.cell (28575a23ae977d3b5fae324c64b13b57)
REM
REM compiler GCC version 9.2.1 20190827 (Red Hat 9.2.1-1)
REM options -cpp -mtune=generic -march=x86-64 -g -O0 -fpre-include=/usr/include/finclude/math-vector-fortran.h
REM seed 1044996608 341942336 -685126959 1220854041 567905392 -371693229 -1177386946 1336386328 -1437232941 366851079 -1164494327 -2134682200 -1172661424 -124387289 -274527601 1007459389 -25544164 664920587 319002022 2024491961 -2047419490 1717883319 -404105536 -564591395 752797118 -1559700766 1036308539 -2016104349 809115125 1631627042 2824481 1822404803 814913761
REM
CELL 1.54180   50.00000   50.00000   50.00000   90.00000   90.00000   90.00000
LATT -1
SFAC C  
C      1  0.5252510000000  0.4283810000000  0.4630110000000 1.0
C      1  0.4863060000000  0.4254380000000  0.4548770000000 1.0
C      1  0.4572280000000  0.4599370000000  0.4695630000000 1.0
C      1  0.4333700000000  0.4973510000000  0.4683670000000 1.0
C      1  0.4410590000000  0.5413120000000  0.4667110000000 1.0
C      1  0.4747560000000  0.5716330000000  0.4630330000000 1.0
C      1  0.5137020000000  0.5745790000000  0.4549080000000 1.0
C      1  0.5427770000000  0.5400750000000  0.4695870000000 1.0
C      1  0.5666360000000  0.5026610000000  0.4683800000000 1.0
C      1  0.5589470000000  0.4587010000000  0.4667060000000 1.0
C      1  0.5104670000000  0.5460920000000  0.4383950000000 1.0
C      1  0.5315970000000  0.5264220000000  0.4459580000000 1.0
C      1  0.5460540000000  0.4998820000000  0.4454860000000 1.0
C      1  0.5411210000000  0.4703800000000  0.4450790000000 1.0
C      1  0.5189310000000  0.4507200000000  0.4439940000000 1.0
C      1  0.4895440000000  0.4539320000000  0.4383750000000 1.0
C      1  0.4684130000000  0.4735990000000  0.4459430000000 1.0
C      1  0.4539560000000  0.5001390000000  0.4454780000000 1.0
C      1  0.4588890000000  0.5296410000000  0.4450830000000 1.0
C      1  0.4810790000000  0.5493010000000  0.4440090000000 1.0
C      1  0.5582240000000  0.5197210000000  0.5399100000000 1.0
C      1  0.5601460000000  0.4798210000000  0.5408620000000 1.0
C      1  0.5408260000000  0.4457660000000  0.5337920000000 1.0
C      1  0.4988910000000  0.4287730000000  0.5353840000000 1.0
C      1  0.4648400000000  0.4479430000000  0.5433610000000 1.0
C      1  0.4417680000000  0.4802640000000  0.5398920000000 1.0
C      1  0.4398470000000  0.5201640000000  0.5408590000000 1.0
C      1  0.4591680000000  0.5542210000000  0.5338050000000 1.0
C      1  0.5011030000000  0.5712140000000  0.5354120000000 1.0
C      1  0.5351520000000  0.5520410000000  0.5433880000000 1.0
C      1  0.5464710000000  0.5149660000000  0.5098820000000 1.0
C      1  0.5482390000000  0.4809130000000  0.5107250000000 1.0
C      1  0.5289670000000  0.4534210000000  0.5046280000000 1.0
C      1  0.4968600000000  0.4412500000000  0.5038130000000 1.0
C      1  0.4714800000000  0.4583510000000  0.5186580000000 1.0
C      1  0.4535270000000  0.4850300000000  0.5098680000000 1.0
C      1  0.4517600000000  0.5190830000000  0.5107230000000 1.0
C      1  0.4710320000000  0.5465770000000  0.5046400000000 1.0
C      1  0.5031390000000  0.5587480000000  0.5038360000000 1.0
C      1  0.5285170000000  0.5416420000000  0.5186790000000 1.0
C      1  0.5442660000000  0.4396370000000  0.4809030000000 1.0
C      1  0.5046260000000  0.4166710000000  0.4816240000000 1.0
C      1  0.4731210000000  0.4402170000000  0.4790830000000 1.0
C      1  0.4407640000000  0.4758480000000  0.4842720000000 1.0
C      1  0.4323620000000  0.5208470000000  0.4837890000000 1.0
C      1  0.4557380000000  0.5603700000000  0.4809180000000 1.0
C      1  0.4953780000000  0.5833360000000  0.4816550000000 1.0
C      1  0.5268830000000  0.5597910000000  0.4791110000000 1.0
C      1  0.5592380000000  0.5241580000000  0.4842920000000 1.0
C      1  0.5676410000000  0.4791590000000  0.4837930000000 1.0
C      1  0.4771390000000  0.4622670000000  0.5678060000000 1.0
C      1  0.4598550000000  0.4860730000000  0.5619600000000 1.0
C      1  0.4596910000000  0.5153070000000  0.5639740000000 1.0
C      1  0.4717730000000  0.5415230000000  0.5563910000000 1.0
C      1  0.4978170000000  0.5520670000000  0.5576180000000 1.0
C      1  0.5228490000000  0.5377070000000  0.5678250000000 1.0
C      1  0.5401340000000  0.5139040000000  0.5619730000000 1.0
C      1  0.5402970000000  0.4846680000000  0.5639760000000 1.0
C      1  0.5282170000000  0.4584560000000  0.5563800000000 1.0
C      1  0.5021730000000  0.4479110000000  0.5575990000000 1.0
END
