TITL C-1154827-9204-73 0.000509140500196279 125000 -345.819876701117 0 0 60 (C1) n - 1
REM
REM in /home/nfs/bkarasulu/CARBON/AIRSS/Generating-Clusters/AIREBO/Higher-Symm/Only-C60
REM
REM
REM
REM
REM
REM ./C.cell (28575a23ae977d3b5fae324c64b13b57)
REM
REM compiler GCC version 9.2.1 20190827 (Red Hat 9.2.1-1)
REM options -cpp -mtune=generic -march=x86-64 -g -O0 -fpre-include=/usr/include/finclude/math-vector-fortran.h
REM seed 542466723 1336755205 239276829 879935057 -1124483543 -1273508858 -644147929 227014729 -818632375 1018342086 -1169484466 625002007 -1665354345 -1886115531 -1313918276 1265233557 -1001349981 1798620247 522260512 -556832383 -1568004530 -1758484850 2038527420 2051769153 -320698846 -296648860 -1695402217 -1599812326 1361244968 1014026639 -1966264733 1510735337 1767829375
REM
CELL 1.54180   50.00000   50.00000   50.00000   90.00000   90.00000   90.00000
LATT -1
SFAC C  
C      1  0.5496180000000  0.5494340000000  0.4968030000000 1.0
C      1  0.5467110000000  0.4522890000000  0.5355990000000 1.0
C      1  0.5066150000000  0.5605020000000  0.5080770000000 1.0
C      1  0.5100370000000  0.4335860000000  0.5083270000000 1.0
C      1  0.5112170000000  0.5445050000000  0.5547840000000 1.0
C      1  0.5298650000000  0.4607660000000  0.5570790000000 1.0
C      1  0.4692940000000  0.5790850000000  0.4725400000000 1.0
C      1  0.4730920000000  0.4331450000000  0.4730340000000 1.0
C      1  0.4369940000000  0.5063450000000  0.4749950000000 1.0
C      1  0.4399830000000  0.4777710000000  0.4766420000000 1.0
C      1  0.4956110000000  0.4347750000000  0.5313790000000 1.0
C      1  0.4968570000000  0.5492430000000  0.5306500000000 1.0
C      1  0.4716000000000  0.5206510000000  0.5599020000000 1.0
C      1  0.4767800000000  0.4689930000000  0.5594280000000 1.0
C      1  0.5028300000000  0.5450530000000  0.4800750000000 1.0
C      1  0.5194490000000  0.4556530000000  0.4838600000000 1.0
C      1  0.4716370000000  0.5095560000000  0.5065390000000 1.0
C      1  0.4727850000000  0.4755920000000  0.5076710000000 1.0
C      1  0.4465950000000  0.4426700000000  0.5120910000000 1.0
C      1  0.4481840000000  0.5416670000000  0.5097940000000 1.0
C      1  0.5410580000000  0.5182120000000  0.4581160000000 1.0
C      1  0.5586760000000  0.4622060000000  0.4047320000000 1.0
C      1  0.4948670000000  0.5719140000000  0.4637470000000 1.0
C      1  0.4774750000000  0.4295990000000  0.4456620000000 1.0
C      1  0.4651660000000  0.4716180000000  0.4660010000000 1.0
C      1  0.4606100000000  0.5168580000000  0.4548630000000 1.0
C      1  0.4585140000000  0.5585310000000  0.4881540000000 1.0
C      1  0.4549370000000  0.4237020000000  0.4926100000000 1.0
C      1  0.4710570000000  0.5320050000000  0.5306380000000 1.0
C      1  0.4692320000000  0.4534710000000  0.5314240000000 1.0
C      1  0.5331180000000  0.5353790000000  0.4778590000000 1.0
C      1  0.5326350000000  0.4640700000000  0.4614110000000 1.0
C      1  0.4881790000000  0.4587550000000  0.4845670000000 1.0
C      1  0.4739520000000  0.5287500000000  0.4815870000000 1.0
C      1  0.5332960000000  0.5708490000000  0.5071580000000 1.0
C      1  0.5376090000000  0.4470680000000  0.5102670000000 1.0
C      1  0.5483660000000  0.4995240000000  0.4406070000000 1.0
C      1  0.5536470000000  0.4816190000000  0.4216080000000 1.0
C      1  0.5023850000000  0.4543590000000  0.5536680000000 1.0
C      1  0.4918940000000  0.5353710000000  0.5739260000000 1.0
C      1  0.5358570000000  0.5322630000000  0.5535790000000 1.0
C      1  0.5425570000000  0.4789720000000  0.5748780000000 1.0
C      1  0.4320670000000  0.4642880000000  0.5022080000000 1.0
C      1  0.4334650000000  0.5199740000000  0.5007520000000 1.0
C      1  0.5651730000000  0.5313720000000  0.5417740000000 1.0
C      1  0.5682110000000  0.4721450000000  0.5869780000000 1.0
C      1  0.4838190000000  0.4451710000000  0.4238030000000 1.0
C      1  0.4942950000000  0.4622830000000  0.3980580000000 1.0
C      1  0.4625520000000  0.5571570000000  0.4120050000000 1.0
C      1  0.4339470000000  0.5428210000000  0.4091080000000 1.0
C      1  0.5684070000000  0.5393240000000  0.5151050000000 1.0
C      1  0.6155050000000  0.4871010000000  0.5834700000000 1.0
C      1  0.4677510000000  0.4939030000000  0.5662520000000 1.0
C      1  0.5776080000000  0.5096060000000  0.5608750000000 1.0
C      1  0.4432110000000  0.4923050000000  0.5136380000000 1.0
C      1  0.4533230000000  0.5351250000000  0.4339250000000 1.0
C      1  0.5459890000000  0.5061870000000  0.5657520000000 1.0
C      1  0.4823020000000  0.4774770000000  0.4239120000000 1.0
C      1  0.4721360000000  0.4895530000000  0.4455640000000 1.0
C      1  0.5894730000000  0.4896890000000  0.5776910000000 1.0
END
