TITL C-1154830-9999-481 0.00070234712156975 125000 -317.136023472006 0 0 60 (C1) n - 1
REM
REM in /home/nfs/bkarasulu/CARBON/AIRSS/Generating-Clusters/AIREBO/Higher-Symm/Only-C60
REM
REM
REM
REM
REM
REM ./C.cell (28575a23ae977d3b5fae324c64b13b57)
REM
REM compiler GCC version 9.2.1 20190827 (Red Hat 9.2.1-1)
REM options -cpp -mtune=generic -march=x86-64 -g -O0 -fpre-include=/usr/include/finclude/math-vector-fortran.h
REM seed 1449465139 518127258 1345926479 -245756763 1061829214 487021517 -190733860 -1734462843 1030727982 1387897849 272097389 1739064604 -1804505382 -1228603495 1049543328 1655298350 -299001014 -140995445 -1152623720 -577819791 1606624738 -764692068 -1683862319 -423688654 -544732536 -4198414 -1625012399 -1168096090 -407982468 942948019 1518609084 1585053953 345122937
REM
CELL 1.54180   50.00000   50.00000   50.00000   90.00000   90.00000   90.00000
LATT -1
SFAC C  
C      1  0.4863500000000  0.5620660000000  0.5140510000000 1.0
C      1  0.4868170000000  0.4397030000000  0.4779120000000 1.0
C      1  0.5122150000000  0.5466400000000  0.5228690000000 1.0
C      1  0.5148920000000  0.4536300000000  0.4777050000000 1.0
C      1  0.5001330000000  0.4833880000000  0.4269480000000 1.0
C      1  0.5103570000000  0.5179580000000  0.5783190000000 1.0
C      1  0.4717470000000  0.4852510000000  0.4184930000000 1.0
C      1  0.4812140000000  0.5141150000000  0.5807360000000 1.0
C      1  0.5122560000000  0.5470740000000  0.4410810000000 1.0
C      1  0.5066160000000  0.4628870000000  0.5668650000000 1.0
C      1  0.4874640000000  0.5483290000000  0.4416980000000 1.0
C      1  0.4826010000000  0.4599990000000  0.5706020000000 1.0
C      1  0.4973010000000  0.5096300000000  0.4882750000000 1.0
C      1  0.4973240000000  0.4882430000000  0.5078700000000 1.0
C      1  0.5204060000000  0.5237770000000  0.4797410000000 1.0
C      1  0.5199930000000  0.4749710000000  0.5198470000000 1.0
C      1  0.4991010000000  0.5359290000000  0.5525970000000 1.0
C      1  0.5028820000000  0.4589530000000  0.4467670000000 1.0
C      1  0.4671960000000  0.5254050000000  0.5545180000000 1.0
C      1  0.4698240000000  0.4675030000000  0.4471300000000 1.0
C      1  0.5275780000000  0.5450540000000  0.4954690000000 1.0
C      1  0.5283200000000  0.4532110000000  0.5052050000000 1.0
C      1  0.4725120000000  0.5259480000000  0.4789940000000 1.0
C      1  0.4743600000000  0.4717240000000  0.5119770000000 1.0
C      1  0.4521880000000  0.4419200000000  0.4581340000000 1.0
C      1  0.4489880000000  0.5413550000000  0.5344450000000 1.0
C      1  0.5348520000000  0.4482250000000  0.4441400000000 1.0
C      1  0.5296020000000  0.5504070000000  0.5566650000000 1.0
C      1  0.4623660000000  0.4582570000000  0.4861620000000 1.0
C      1  0.4641660000000  0.5430660000000  0.5061170000000 1.0
C      1  0.5437280000000  0.4695500000000  0.4690260000000 1.0
C      1  0.5412250000000  0.5309930000000  0.5312880000000 1.0
C      1  0.5513260000000  0.5010430000000  0.5382300000000 1.0
C      1  0.5520650000000  0.4998090000000  0.4635420000000 1.0
C      1  0.4489270000000  0.5003640000000  0.5449140000000 1.0
C      1  0.4558760000000  0.4967910000000  0.4573620000000 1.0
C      1  0.5674700000000  0.5243300000000  0.5107020000000 1.0
C      1  0.5684430000000  0.4763190000000  0.4909300000000 1.0
C      1  0.4389820000000  0.5230430000000  0.5004320000000 1.0
C      1  0.4374520000000  0.4753230000000  0.4975390000000 1.0
C      1  0.4669760000000  0.5250060000000  0.4454480000000 1.0
C      1  0.4537710000000  0.4757040000000  0.5653760000000 1.0
C      1  0.5337120000000  0.5225340000000  0.4484700000000 1.0
C      1  0.5318160000000  0.4772520000000  0.5504820000000 1.0
C      1  0.5302110000000  0.5004940000000  0.5752490000000 1.0
C      1  0.5198860000000  0.5012630000000  0.4274420000000 1.0
C      1  0.4679830000000  0.4918930000000  0.5898110000000 1.0
C      1  0.4588210000000  0.5090470000000  0.4194310000000 1.0
C      1  0.5708990000000  0.4914520000000  0.5174460000000 1.0
C      1  0.5717520000000  0.5106900000000  0.4829900000000 1.0
C      1  0.4392630000000  0.4980480000000  0.5193800000000 1.0
C      1  0.4397470000000  0.4999090000000  0.4796460000000 1.0
C      1  0.4612080000000  0.5564350000000  0.4690160000000 1.0
C      1  0.4643310000000  0.4647370000000  0.5355910000000 1.0
C      1  0.5578650000000  0.5362390000000  0.4357870000000 1.0
C      1  0.5530070000000  0.4563940000000  0.5554410000000 1.0
C      1  0.4847920000000  0.5880690000000  0.5129710000000 1.0
C      1  0.4840150000000  0.4139730000000  0.4739500000000 1.0
C      1  0.5408850000000  0.5675050000000  0.4867840000000 1.0
C      1  0.5419460000000  0.4311750000000  0.5139920000000 1.0
END
