TITL C-1154828-9214-253 0.000380770388280588 125000 -318.247550935301 0 0 60 (C1) n - 1
REM
REM in /home/nfs/bkarasulu/CARBON/AIRSS/Generating-Clusters/AIREBO/Higher-Symm/Only-C60
REM
REM
REM
REM
REM
REM ./C.cell (28575a23ae977d3b5fae324c64b13b57)
REM
REM compiler GCC version 9.2.1 20190827 (Red Hat 9.2.1-1)
REM options -cpp -mtune=generic -march=x86-64 -g -O0 -fpre-include=/usr/include/finclude/math-vector-fortran.h
REM seed 1070062264 -2065225151 1638560884 1904662179 1292497777 172835851 537493973 -30262923 620073427 -1967566326 732209727 208562240 -1576087598 -2081445265 -1282889388 987746949 -1918149095 79086212 719949280 527903125 246576121 278504342 1847776125 -2108691379 -293810668 542295603 -1185086919 661354266 -1232380223 -8888351 -99552497 808123484 -750300105
REM
CELL 1.54180   50.00000   50.00000   50.00000   90.00000   90.00000   90.00000
LATT -1
SFAC C  
C      1  0.5032130000000  0.4492960000000  0.4575390000000 1.0
C      1  0.4812440000000  0.5914080000000  0.5262980000000 1.0
C      1  0.5133490000000  0.4741750000000  0.4971000000000 1.0
C      1  0.4932360000000  0.5074850000000  0.5062440000000 1.0
C      1  0.4811000000000  0.4287850000000  0.5151430000000 1.0
C      1  0.5223550000000  0.5663810000000  0.4980920000000 1.0
C      1  0.4351120000000  0.5147730000000  0.4849610000000 1.0
C      1  0.5666130000000  0.4731600000000  0.5030410000000 1.0
C      1  0.5615780000000  0.5072780000000  0.5518140000000 1.0
C      1  0.4324290000000  0.4659650000000  0.4616520000000 1.0
C      1  0.5246450000000  0.5013780000000  0.4294570000000 1.0
C      1  0.4771980000000  0.5071600000000  0.5584080000000 1.0
C      1  0.4506950000000  0.4844760000000  0.4841720000000 1.0
C      1  0.5403240000000  0.5131280000000  0.5279110000000 1.0
C      1  0.5135880000000  0.4754500000000  0.4484600000000 1.0
C      1  0.4867790000000  0.5248920000000  0.5348240000000 1.0
C      1  0.5161490000000  0.5356940000000  0.5227290000000 1.0
C      1  0.4810960000000  0.4691290000000  0.4875950000000 1.0
C      1  0.5679710000000  0.4879250000000  0.4477580000000 1.0
C      1  0.4346750000000  0.5356620000000  0.5441890000000 1.0
C      1  0.4642970000000  0.5040610000000  0.4599240000000 1.0
C      1  0.5474440000000  0.4616090000000  0.5433600000000 1.0
C      1  0.4369410000000  0.4770870000000  0.5144040000000 1.0
C      1  0.5491750000000  0.5194970000000  0.4956950000000 1.0
C      1  0.4591970000000  0.5408490000000  0.5261140000000 1.0
C      1  0.5437610000000  0.4818030000000  0.4584540000000 1.0
C      1  0.5277750000000  0.4874100000000  0.5441130000000 1.0
C      1  0.4934300000000  0.5024510000000  0.4540910000000 1.0
C      1  0.4186600000000  0.5133600000000  0.5430310000000 1.0
C      1  0.5829670000000  0.5091490000000  0.4583450000000 1.0
C      1  0.4520100000000  0.4670330000000  0.5411290000000 1.0
C      1  0.5349400000000  0.5311610000000  0.4681920000000 1.0
C      1  0.4615340000000  0.5164460000000  0.5055290000000 1.0
C      1  0.5419340000000  0.4870610000000  0.4884820000000 1.0
C      1  0.4588970000000  0.4533020000000  0.5076440000000 1.0
C      1  0.5461250000000  0.5491190000000  0.5121360000000 1.0
C      1  0.4606510000000  0.4883520000000  0.5593900000000 1.0
C      1  0.5425410000000  0.5180530000000  0.4412820000000 1.0
C      1  0.4848920000000  0.4356340000000  0.4829790000000 1.0
C      1  0.4994320000000  0.5652400000000  0.5207970000000 1.0
C      1  0.5301240000000  0.5637860000000  0.4656400000000 1.0
C      1  0.4644880000000  0.4376940000000  0.5437480000000 1.0
C      1  0.4145320000000  0.4963940000000  0.5208050000000 1.0
C      1  0.5808200000000  0.5140730000000  0.4865200000000 1.0
C      1  0.4563060000000  0.5342760000000  0.4701570000000 1.0
C      1  0.5529360000000  0.4526400000000  0.5172440000000 1.0
C      1  0.5178080000000  0.4314580000000  0.4801320000000 1.0
C      1  0.4679530000000  0.5649970000000  0.5092860000000 1.0
C      1  0.5011210000000  0.5501000000000  0.4769410000000 1.0
C      1  0.4895000000000  0.4568060000000  0.5324750000000 1.0
C      1  0.5304530000000  0.4464510000000  0.5003970000000 1.0
C      1  0.4722130000000  0.5552240000000  0.4806480000000 1.0
C      1  0.5056570000000  0.5180100000000  0.4787480000000 1.0
C      1  0.5039840000000  0.4820340000000  0.5260920000000 1.0
C      1  0.4434750000000  0.4848450000000  0.4448710000000 1.0
C      1  0.5642450000000  0.4807150000000  0.5590840000000 1.0
C      1  0.4075390000000  0.5099440000000  0.4974420000000 1.0
C      1  0.5883950000000  0.4910340000000  0.5022060000000 1.0
C      1  0.4982280000000  0.5129230000000  0.4220940000000 1.0
C      1  0.5202700000000  0.4943190000000  0.5729910000000 1.0
END
