TITL C-1154801-8518-544 -0.00122950429293353 125000 -305.268127470818 0 0 60 (C1) n - 1
REM
REM in /home/nfs/bkarasulu/CARBON/AIRSS/Generating-Clusters/AIREBO/Higher-Symm/Only-C60
REM
REM
REM
REM
REM
REM ./C.cell (28575a23ae977d3b5fae324c64b13b57)
REM
REM compiler GCC version 9.2.1 20190827 (Red Hat 9.2.1-1)
REM options -cpp -mtune=generic -march=x86-64 -g -O0 -fpre-include=/usr/include/finclude/math-vector-fortran.h
REM seed 1970466638 -1092906975 -1865513167 648627440 -903746653 -1756890383 -652756882 -839422429 -1906363314 -21561473 12257491 1121920887 -834762935 802117271 -96805299 1561372376 1228551641 889253641 -1899752579 -452121745 -465199699 1180088096 -797635040 -2073114319 1937457517 309032996 1604718534 -927564069 1891538837 1972171755 733771594 811647992 2053530762
REM
CELL 1.54180   50.00000   50.00000   50.00000   90.00000   90.00000   90.00000
LATT -1
SFAC C  
C      1  0.5069120000000  0.5461400000000  0.5263810000000 1.0
C      1  0.5082960000000  0.5199580000000  0.5044170000000 1.0
C      1  0.5355760000000  0.4682980000000  0.5176480000000 1.0
C      1  0.5021770000000  0.4715290000000  0.5235260000000 1.0
C      1  0.4740520000000  0.4524040000000  0.5236770000000 1.0
C      1  0.4737540000000  0.5068930000000  0.5194160000000 1.0
C      1  0.4740780000000  0.5405690000000  0.5241170000000 1.0
C      1  0.4920450000000  0.5345370000000  0.4595300000000 1.0
C      1  0.5203330000000  0.5240430000000  0.4666900000000 1.0
C      1  0.5374000000000  0.4989620000000  0.4510920000000 1.0
C      1  0.5315610000000  0.4706110000000  0.4646300000000 1.0
C      1  0.4776480000000  0.4677450000000  0.4766360000000 1.0
C      1  0.4637190000000  0.4899860000000  0.4550180000000 1.0
C      1  0.4633710000000  0.5188600000000  0.4662370000000 1.0
C      1  0.4364500000000  0.4811970000000  0.4475550000000 1.0
C      1  0.4426430000000  0.5360860000000  0.4502890000000 1.0
C      1  0.4882470000000  0.5617560000000  0.4723680000000 1.0
C      1  0.5521730000000  0.5344680000000  0.4614040000000 1.0
C      1  0.5682590000000  0.5126220000000  0.4552710000000 1.0
C      1  0.5699350000000  0.4421250000000  0.4895360000000 1.0
C      1  0.4657160000000  0.4447630000000  0.4578090000000 1.0
C      1  0.4733570000000  0.5402730000000  0.5581190000000 1.0
C      1  0.5153130000000  0.5638880000000  0.5541390000000 1.0
C      1  0.5532400000000  0.5166910000000  0.5319390000000 1.0
C      1  0.5423240000000  0.4595800000000  0.5470750000000 1.0
C      1  0.5040150000000  0.4503350000000  0.5500500000000 1.0
C      1  0.4645680000000  0.4567400000000  0.5527270000000 1.0
C      1  0.4472400000000  0.5061340000000  0.5406940000000 1.0
C      1  0.4794490000000  0.4248810000000  0.5190620000000 1.0
C      1  0.4393580000000  0.4852160000000  0.5010020000000 1.0
C      1  0.4406050000000  0.5333810000000  0.5212250000000 1.0
C      1  0.5067850000000  0.5723220000000  0.4961690000000 1.0
C      1  0.5546530000000  0.5418380000000  0.5132430000000 1.0
C      1  0.5503410000000  0.4940390000000  0.5124480000000 1.0
C      1  0.5176740000000  0.4286580000000  0.4871200000000 1.0
C      1  0.5412090000000  0.5099050000000  0.5572580000000 1.0
C      1  0.5471600000000  0.4842540000000  0.5673380000000 1.0
C      1  0.5221520000000  0.4635450000000  0.5746900000000 1.0
C      1  0.4883190000000  0.4676610000000  0.5745850000000 1.0
C      1  0.4637560000000  0.4878960000000  0.5634030000000 1.0
C      1  0.4560790000000  0.5196550000000  0.5696020000000 1.0
C      1  0.5009730000000  0.5401210000000  0.5654350000000 1.0
C      1  0.5060190000000  0.4526770000000  0.4737950000000 1.0
C      1  0.4573140000000  0.4642970000000  0.5012240000000 1.0
C      1  0.4514870000000  0.5147480000000  0.4949470000000 1.0
C      1  0.4754990000000  0.5637770000000  0.5013910000000 1.0
C      1  0.5297520000000  0.5558720000000  0.5053810000000 1.0
C      1  0.5382060000000  0.5182710000000  0.4950330000000 1.0
C      1  0.5414170000000  0.4525390000000  0.4918480000000 1.0
C      1  0.5143810000000  0.5188700000000  0.4118720000000 1.0
C      1  0.5311330000000  0.4988680000000  0.4212760000000 1.0
C      1  0.5299010000000  0.4703870000000  0.4117140000000 1.0
C      1  0.5140520000000  0.4664780000000  0.4372060000000 1.0
C      1  0.4884630000000  0.4746450000000  0.4377850000000 1.0
C      1  0.4716630000000  0.4909080000000  0.4179910000000 1.0
C      1  0.4935680000000  0.5367640000000  0.4290210000000 1.0
C      1  0.5131450000000  0.5155700000000  0.5585510000000 1.0
C      1  0.4970890000000  0.4990300000000  0.5428660000000 1.0
C      1  0.4826400000000  0.5149350000000  0.4085150000000 1.0
C      1  0.4930130000000  0.4905840000000  0.4966290000000 1.0
END
