TITL C-1154803-8277-11 -0.000424502707867709 125000 -317.880895399721 0 0 60 (C1) n - 1
REM
REM in /home/nfs/bkarasulu/CARBON/AIRSS/Generating-Clusters/AIREBO/Higher-Symm/Only-C60
REM
REM
REM
REM
REM
REM ./C.cell (28575a23ae977d3b5fae324c64b13b57)
REM
REM compiler GCC version 9.2.1 20190827 (Red Hat 9.2.1-1)
REM options -cpp -mtune=generic -march=x86-64 -g -O0 -fpre-include=/usr/include/finclude/math-vector-fortran.h
REM seed 1002823058 1189852257 51450468 1973103423 1747465744 -1250155991 1203144154 2058354185 -922939743 2138443000 1020474479 1697376918 198832469 -1265165059 1383510116 1900454056 -784388730 -139066831 1508921986 2139388445 -283613053 1012627313 -1376315216 -1779171057 836546030 872993890 1312458325 -1622600849 -1259720392 -1503637516 1823703203 -859005861 517605665
REM
CELL 1.54180   50.00000   50.00000   50.00000   90.00000   90.00000   90.00000
LATT -1
SFAC C  
C      1  0.5467550000000  0.5112530000000  0.5524850000000 1.0
C      1  0.4885230000000  0.4541250000000  0.5534470000000 1.0
C      1  0.4648760000000  0.5342600000000  0.5519340000000 1.0
C      1  0.5458750000000  0.5095790000000  0.4504590000000 1.0
C      1  0.4837640000000  0.4540890000000  0.4479830000000 1.0
C      1  0.4644200000000  0.5354290000000  0.4447780000000 1.0
C      1  0.5429460000000  0.5732830000000  0.5361750000000 1.0
C      1  0.5434760000000  0.4266230000000  0.5336270000000 1.0
C      1  0.4125170000000  0.5024190000000  0.5315070000000 1.0
C      1  0.5388620000000  0.5732260000000  0.4648520000000 1.0
C      1  0.5400730000000  0.4271660000000  0.4647280000000 1.0
C      1  0.4110670000000  0.5050810000000  0.4647820000000 1.0
C      1  0.4585430000000  0.4847840000000  0.4621720000000 1.0
C      1  0.5088380000000  0.5324600000000  0.4688210000000 1.0
C      1  0.5274100000000  0.4782050000000  0.4668300000000 1.0
C      1  0.4609150000000  0.4843340000000  0.5331880000000 1.0
C      1  0.5054520000000  0.5382660000000  0.5359810000000 1.0
C      1  0.5332000000000  0.4766540000000  0.5348910000000 1.0
C      1  0.4826050000000  0.4851980000000  0.4817590000000 1.0
C      1  0.4888640000000  0.5159280000000  0.4846110000000 1.0
C      1  0.5356530000000  0.4995430000000  0.4877450000000 1.0
C      1  0.4856240000000  0.4800320000000  0.5147920000000 1.0
C      1  0.4959880000000  0.5125800000000  0.5168340000000 1.0
C      1  0.5259950000000  0.5008140000000  0.5173860000000 1.0
C      1  0.5673310000000  0.4998250000000  0.5321930000000 1.0
C      1  0.4685530000000  0.4441880000000  0.5308100000000 1.0
C      1  0.4691970000000  0.5527500000000  0.5268040000000 1.0
C      1  0.5707560000000  0.4969760000000  0.4695350000000 1.0
C      1  0.4658990000000  0.4470430000000  0.4729830000000 1.0
C      1  0.4639450000000  0.5567160000000  0.4689710000000 1.0
C      1  0.4432040000000  0.5117990000000  0.5385270000000 1.0
C      1  0.5386860000000  0.5406630000000  0.5404640000000 1.0
C      1  0.5187330000000  0.4476420000000  0.5389220000000 1.0
C      1  0.4424580000000  0.5135800000000  0.4588700000000 1.0
C      1  0.5395900000000  0.5404070000000  0.4633930000000 1.0
C      1  0.5147320000000  0.4474720000000  0.4596820000000 1.0
C      1  0.5582330000000  0.5247720000000  0.4845870000000 1.0
C      1  0.4959800000000  0.4551740000000  0.4855010000000 1.0
C      1  0.4581610000000  0.5281270000000  0.4832470000000 1.0
C      1  0.5512290000000  0.5235930000000  0.5151550000000 1.0
C      1  0.4976660000000  0.4489580000000  0.5153720000000 1.0
C      1  0.4630330000000  0.5225200000000  0.5142830000000 1.0
C      1  0.4912820000000  0.5186240000000  0.5598600000000 1.0
C      1  0.5182910000000  0.4980290000000  0.5565350000000 1.0
C      1  0.4874270000000  0.4854670000000  0.5542900000000 1.0
C      1  0.4900890000000  0.5183020000000  0.4448460000000 1.0
C      1  0.5170950000000  0.4976820000000  0.4418120000000 1.0
C      1  0.4854950000000  0.4851230000000  0.4414310000000 1.0
C      1  0.4855870000000  0.5688540000000  0.5119360000000 1.0
C      1  0.5742520000000  0.4773860000000  0.5182600000000 1.0
C      1  0.4456630000000  0.4506810000000  0.5178760000000 1.0
C      1  0.4815170000000  0.5727940000000  0.4824410000000 1.0
C      1  0.5702400000000  0.4753370000000  0.4879580000000 1.0
C      1  0.4439930000000  0.4541220000000  0.4879540000000 1.0
C      1  0.5168430000000  0.5643530000000  0.5172380000000 1.0
C      1  0.5503770000000  0.4544050000000  0.5155980000000 1.0
C      1  0.4326140000000  0.4816760000000  0.5145030000000 1.0
C      1  0.5129290000000  0.5623460000000  0.4835660000000 1.0
C      1  0.5466820000000  0.4546690000000  0.4822410000000 1.0
C      1  0.4299960000000  0.4826130000000  0.4805920000000 1.0
END
