TITL C-1154803-8277-561 0.00146602241242825 125000 -344.16385212035 0 0 60 (C1) n - 1
REM
REM in /home/nfs/bkarasulu/CARBON/AIRSS/Generating-Clusters/AIREBO/Higher-Symm/Only-C60
REM
REM
REM
REM
REM
REM ./C.cell (28575a23ae977d3b5fae324c64b13b57)
REM
REM compiler GCC version 9.2.1 20190827 (Red Hat 9.2.1-1)
REM options -cpp -mtune=generic -march=x86-64 -g -O0 -fpre-include=/usr/include/finclude/math-vector-fortran.h
REM seed -1321401351 594812476 -1048793018 1997427685 -1527487171 -68565286 2044602476 -1896182413 1852614386 -1742280318 -2098556291 440365349 -41971284 862928519 1414098946 -1135757 375795853 1641413126 -885868161 -56025396 -521911973 601833771 612136105 -1492015699 -976620641 -275788761 972062140 -2035167773 1325386140 -1763808098 -456098556 1007926026 1568319358
REM
CELL 1.54180   50.00000   50.00000   50.00000   90.00000   90.00000   90.00000
LATT -1
SFAC C  
C      1  0.4981050000000  0.5039820000000  0.4330070000000 1.0
C      1  0.4924660000000  0.4475220000000  0.4561640000000 1.0
C      1  0.4938350000000  0.4381650000000  0.5062170000000 1.0
C      1  0.4890220000000  0.4562900000000  0.5524460000000 1.0
C      1  0.5189360000000  0.5404610000000  0.5880690000000 1.0
C      1  0.4945430000000  0.5712080000000  0.5188120000000 1.0
C      1  0.4970910000000  0.5576110000000  0.4615900000000 1.0
C      1  0.4815360000000  0.5638890000000  0.4894890000000 1.0
C      1  0.4824560000000  0.5314850000000  0.4454450000000 1.0
C      1  0.4808870000000  0.4758000000000  0.4412510000000 1.0
C      1  0.4757260000000  0.4395290000000  0.4813430000000 1.0
C      1  0.4764590000000  0.4439470000000  0.5318800000000 1.0
C      1  0.4814550000000  0.4859150000000  0.5576190000000 1.0
C      1  0.4770370000000  0.5510610000000  0.5378810000000 1.0
C      1  0.4555630000000  0.5561420000000  0.4906980000000 1.0
C      1  0.4543710000000  0.5305930000000  0.4455440000000 1.0
C      1  0.4526810000000  0.4764400000000  0.4380800000000 1.0
C      1  0.4484100000000  0.4416970000000  0.4805840000000 1.0
C      1  0.4493400000000  0.4503880000000  0.5284250000000 1.0
C      1  0.4552080000000  0.4939480000000  0.5548330000000 1.0
C      1  0.4524380000000  0.5420920000000  0.5386680000000 1.0
C      1  0.5174960000000  0.5305130000000  0.5627150000000 1.0
C      1  0.5149330000000  0.5842170000000  0.4987860000000 1.0
C      1  0.5109600000000  0.5553130000000  0.4306320000000 1.0
C      1  0.5135700000000  0.4799240000000  0.4187880000000 1.0
C      1  0.5183470000000  0.4302460000000  0.4658540000000 1.0
C      1  0.5151640000000  0.4340530000000  0.5319590000000 1.0
C      1  0.5144750000000  0.4769430000000  0.5596360000000 1.0
C      1  0.5366530000000  0.5177710000000  0.4652270000000 1.0
C      1  0.5310200000000  0.4854010000000  0.4715760000000 1.0
C      1  0.5400720000000  0.4627050000000  0.4952200000000 1.0
C      1  0.5548570000000  0.4588740000000  0.5321780000000 1.0
C      1  0.5394130000000  0.5071530000000  0.5275010000000 1.0
C      1  0.5345580000000  0.5383030000000  0.5207160000000 1.0
C      1  0.5386750000000  0.5428710000000  0.4880760000000 1.0
C      1  0.5168720000000  0.5271490000000  0.4450100000000 1.0
C      1  0.5144500000000  0.4721860000000  0.4505100000000 1.0
C      1  0.5231300000000  0.4382170000000  0.4929070000000 1.0
C      1  0.5307230000000  0.4534920000000  0.5432500000000 1.0
C      1  0.5251970000000  0.5047220000000  0.5538640000000 1.0
C      1  0.5106640000000  0.5486040000000  0.5379950000000 1.0
C      1  0.5214740000000  0.5656590000000  0.4794390000000 1.0
C      1  0.5670410000000  0.5032860000000  0.4701880000000 1.0
C      1  0.5776100000000  0.4795460000000  0.4762050000000 1.0
C      1  0.5710360000000  0.4622080000000  0.5021810000000 1.0
C      1  0.5792010000000  0.4792630000000  0.5295690000000 1.0
C      1  0.5712970000000  0.5055680000000  0.5292450000000 1.0
C      1  0.5673540000000  0.5315620000000  0.5133300000000 1.0
C      1  0.5698080000000  0.5299940000000  0.4834940000000 1.0
C      1  0.4332350000000  0.4853630000000  0.4569490000000 1.0
C      1  0.4320050000000  0.4680300000000  0.4861950000000 1.0
C      1  0.4359620000000  0.4728520000000  0.5171730000000 1.0
C      1  0.4386110000000  0.4970490000000  0.5313990000000 1.0
C      1  0.4381150000000  0.5241610000000  0.5214800000000 1.0
C      1  0.4391510000000  0.5334420000000  0.4946690000000 1.0
C      1  0.4356160000000  0.5176540000000  0.4673260000000 1.0
C      1  0.5290570000000  0.4917670000000  0.5049550000000 1.0
C      1  0.4769970000000  0.4990430000000  0.4948660000000 1.0
C      1  0.5006630000000  0.4984240000000  0.4970310000000 1.0
C      1  0.4502800000000  0.4957340000000  0.4876930000000 1.0
END
