TITL C-1154804-8633-360 0.0025856251947786 125000 -336.42207223532 0 0 60 (C1) n - 1
REM
REM in /home/nfs/bkarasulu/CARBON/AIRSS/Generating-Clusters/AIREBO/Higher-Symm/Only-C60
REM
REM
REM
REM
REM
REM ./C.cell (28575a23ae977d3b5fae324c64b13b57)
REM
REM compiler GCC version 9.2.1 20190827 (Red Hat 9.2.1-1)
REM options -cpp -mtune=generic -march=x86-64 -g -O0 -fpre-include=/usr/include/finclude/math-vector-fortran.h
REM seed 1021966907 809837723 433126939 1879276444 595663310 259243477 1089999274 -1022690224 -509053987 -671239961 465101022 -1212415004 -31862265 -1950040584 1395965806 1610887841 1295344291 -1857106224 1474452644 1764107855 -2144173053 -525474687 -1412069922 1534200269 -1153063942 1591588905 -1358769091 116459779 -1853837080 -284209972 -1287668210 -43723754 552027331
REM
CELL 1.54180   50.00000   50.00000   50.00000   90.00000   90.00000   90.00000
LATT -1
SFAC C  
C      1  0.4708750000000  0.4921890000000  0.4299320000000 1.0
C      1  0.4921750000000  0.4284190000000  0.4780060000000 1.0
C      1  0.4276240000000  0.4704960000000  0.4854840000000 1.0
C      1  0.5170330000000  0.5147860000000  0.4306400000000 1.0
C      1  0.4680200000000  0.5161340000000  0.5708850000000 1.0
C      1  0.5172700000000  0.4954630000000  0.5724770000000 1.0
C      1  0.5242240000000  0.5682750000000  0.4828550000000 1.0
C      1  0.4882570000000  0.5725270000000  0.5162080000000 1.0
C      1  0.5257460000000  0.4300840000000  0.5218610000000 1.0
C      1  0.5723230000000  0.5155320000000  0.4825980000000 1.0
C      1  0.4238550000000  0.5221760000000  0.5150110000000 1.0
C      1  0.5708050000000  0.4750140000000  0.5100380000000 1.0
C      1  0.4708890000000  0.4867160000000  0.5778290000000 1.0
C      1  0.4973410000000  0.4166080000000  0.5230680000000 1.0
C      1  0.4310450000000  0.4746510000000  0.5153510000000 1.0
C      1  0.5116940000000  0.5240700000000  0.5678920000000 1.0
C      1  0.4778430000000  0.5201530000000  0.4362690000000 1.0
C      1  0.5104270000000  0.4872500000000  0.4269230000000 1.0
C      1  0.5152540000000  0.5641540000000  0.5215480000000 1.0
C      1  0.4967330000000  0.5745710000000  0.4771760000000 1.0
C      1  0.5201240000000  0.4352540000000  0.4739230000000 1.0
C      1  0.5716760000000  0.5149370000000  0.5118130000000 1.0
C      1  0.4239510000000  0.5169710000000  0.4826220000000 1.0
C      1  0.5767220000000  0.4729550000000  0.4807190000000 1.0
C      1  0.4571810000000  0.5294990000000  0.5170690000000 1.0
C      1  0.5204740000000  0.5217860000000  0.4612610000000 1.0
C      1  0.5187000000000  0.4624470000000  0.5287970000000 1.0
C      1  0.5379280000000  0.4797000000000  0.5144200000000 1.0
C      1  0.4616880000000  0.4784360000000  0.4899380000000 1.0
C      1  0.5461820000000  0.5080010000000  0.4727540000000 1.0
C      1  0.4791210000000  0.4909880000000  0.4635500000000 1.0
C      1  0.5048150000000  0.4782230000000  0.5508340000000 1.0
C      1  0.4739480000000  0.5189030000000  0.5387590000000 1.0
C      1  0.4711730000000  0.5525030000000  0.5052440000000 1.0
C      1  0.5277270000000  0.5405690000000  0.4860850000000 1.0
C      1  0.4795190000000  0.4512430000000  0.4914840000000 1.0
C      1  0.4531660000000  0.5112400000000  0.4910410000000 1.0
C      1  0.5037090000000  0.5296450000000  0.5401100000000 1.0
C      1  0.5239710000000  0.4615980000000  0.4659910000000 1.0
C      1  0.5430130000000  0.4776780000000  0.4815750000000 1.0
C      1  0.4592830000000  0.4735480000000  0.5235040000000 1.0
C      1  0.5448140000000  0.5102310000000  0.5206870000000 1.0
C      1  0.4743270000000  0.4871170000000  0.5442680000000 1.0
C      1  0.5045060000000  0.4750950000000  0.4521050000000 1.0
C      1  0.4879200000000  0.5237420000000  0.4662370000000 1.0
C      1  0.4795840000000  0.5501730000000  0.4780390000000 1.0
C      1  0.5247420000000  0.5318300000000  0.5168120000000 1.0
C      1  0.4904640000000  0.4474870000000  0.5182130000000 1.0
C      1  0.4133500000000  0.4919340000000  0.4728020000000 1.0
C      1  0.4865340000000  0.5968460000000  0.4966440000000 1.0
C      1  0.5367650000000  0.4260990000000  0.4955670000000 1.0
C      1  0.5921930000000  0.4964410000000  0.4705410000000 1.0
C      1  0.4166370000000  0.4967980000000  0.5265990000000 1.0
C      1  0.5897050000000  0.4939940000000  0.5248820000000 1.0
C      1  0.4972890000000  0.5336910000000  0.4170200000000 1.0
C      1  0.4884730000000  0.5329230000000  0.5847710000000 1.0
C      1  0.4964970000000  0.4814320000000  0.5898100000000 1.0
C      1  0.4878640000000  0.4804110000000  0.4076030000000 1.0
C      1  0.4891650000000  0.4054380000000  0.4964600000000 1.0
C      1  0.5356690000000  0.5829240000000  0.5073960000000 1.0
END
