TITL C-1154825-9328-356 0.0025539429668001 125000 -323.143836507797 0 0 60 (C1) n - 1
REM
REM in /home/nfs/bkarasulu/CARBON/AIRSS/Generating-Clusters/AIREBO/Higher-Symm/Only-C60
REM
REM
REM
REM
REM
REM ./C.cell (28575a23ae977d3b5fae324c64b13b57)
REM
REM compiler GCC version 9.2.1 20190827 (Red Hat 9.2.1-1)
REM options -cpp -mtune=generic -march=x86-64 -g -O0 -fpre-include=/usr/include/finclude/math-vector-fortran.h
REM seed 1415196300 -1988117892 212198406 -1346395775 -1206718309 -291750396 -1062192535 1798191765 -737347211 464171024 1351942428 -464058665 1322447845 -1546996557 -762379283 -162218832 -270568721 -1168834349 1512593912 1857752551 -987091667 67244678 43735885 1979863286 -156330584 1125583113 -2042118372 -1653725799 48971608 720296599 513576137 -1352606841 660752693
REM
CELL 1.54180   50.00000   50.00000   50.00000   90.00000   90.00000   90.00000
LATT -1
SFAC C  
C      1  0.5278450000000  0.4682930000000  0.4583840000000 1.0
C      1  0.4548840000000  0.4809400000000  0.4792330000000 1.0
C      1  0.4733230000000  0.4672850000000  0.5362920000000 1.0
C      1  0.5341610000000  0.4558020000000  0.5247840000000 1.0
C      1  0.5297110000000  0.5396670000000  0.5376510000000 1.0
C      1  0.4612800000000  0.5247480000000  0.5200200000000 1.0
C      1  0.4731450000000  0.5280530000000  0.4658460000000 1.0
C      1  0.5394470000000  0.5238890000000  0.4718000000000 1.0
C      1  0.5206700000000  0.5348930000000  0.4357110000000 1.0
C      1  0.4173700000000  0.5321370000000  0.4812950000000 1.0
C      1  0.4829400000000  0.5372020000000  0.5666370000000 1.0
C      1  0.5600040000000  0.5510110000000  0.5271530000000 1.0
C      1  0.5308290000000  0.4630840000000  0.5541150000000 1.0
C      1  0.4274340000000  0.4624700000000  0.5204750000000 1.0
C      1  0.4795980000000  0.4723480000000  0.4276630000000 1.0
C      1  0.5754770000000  0.4630780000000  0.4870130000000 1.0
C      1  0.5744680000000  0.4834910000000  0.4681260000000 1.0
C      1  0.4607290000000  0.4924740000000  0.4303090000000 1.0
C      1  0.4310400000000  0.4814420000000  0.5403840000000 1.0
C      1  0.5405650000000  0.4884550000000  0.5614810000000 1.0
C      1  0.5668600000000  0.5352460000000  0.5515610000000 1.0
C      1  0.4673410000000  0.5144310000000  0.5667390000000 1.0
C      1  0.4240240000000  0.5156520000000  0.4595650000000 1.0
C      1  0.5397270000000  0.5153070000000  0.4327580000000 1.0
C      1  0.5093070000000  0.4506920000000  0.5671910000000 1.0
C      1  0.5578900000000  0.4363750000000  0.4856310000000 1.0
C      1  0.4824540000000  0.4496290000000  0.4497210000000 1.0
C      1  0.4479030000000  0.4407160000000  0.5085530000000 1.0
C      1  0.5153940000000  0.5583400000000  0.4572770000000 1.0
C      1  0.5690690000000  0.5532080000000  0.5013870000000 1.0
C      1  0.4829410000000  0.5619560000000  0.5463510000000 1.0
C      1  0.4361920000000  0.5574690000000  0.4877750000000 1.0
C      1  0.4823800000000  0.4530730000000  0.5623710000000 1.0
C      1  0.5624910000000  0.4505290000000  0.5141600000000 1.0
C      1  0.5089350000000  0.4615920000000  0.4351860000000 1.0
C      1  0.4329040000000  0.4621300000000  0.4891080000000 1.0
C      1  0.4907480000000  0.5420450000000  0.4439560000000 1.0
C      1  0.5676760000000  0.5387610000000  0.4781590000000 1.0
C      1  0.5105330000000  0.5523750000000  0.5598060000000 1.0
C      1  0.4347370000000  0.5321970000000  0.5085670000000 1.0
C      1  0.4805250000000  0.4605750000000  0.4781870000000 1.0
C      1  0.4791580000000  0.4476240000000  0.5090660000000 1.0
C      1  0.5119960000000  0.4403270000000  0.5040640000000 1.0
C      1  0.5304720000000  0.4410960000000  0.4786810000000 1.0
C      1  0.4811170000000  0.5523050000000  0.5172120000000 1.0
C      1  0.4650580000000  0.5487500000000  0.4883100000000 1.0
C      1  0.5235450000000  0.5510870000000  0.4846380000000 1.0
C      1  0.5135550000000  0.5530630000000  0.5108860000000 1.0
C      1  0.5079410000000  0.4733620000000  0.4819240000000 1.0
C      1  0.4712250000000  0.4899240000000  0.5035090000000 1.0
C      1  0.4951070000000  0.4879740000000  0.5272830000000 1.0
C      1  0.5196120000000  0.4787920000000  0.5100880000000 1.0
C      1  0.5128020000000  0.5154270000000  0.5244110000000 1.0
C      1  0.4880070000000  0.5169620000000  0.5011620000000 1.0
C      1  0.5045150000000  0.5181190000000  0.4727800000000 1.0
C      1  0.5259350000000  0.5059570000000  0.4962290000000 1.0
C      1  0.5471930000000  0.4944660000000  0.4565850000000 1.0
C      1  0.4532990000000  0.5041930000000  0.4585650000000 1.0
C      1  0.4589340000000  0.4978550000000  0.5407200000000 1.0
C      1  0.5455790000000  0.5146620000000  0.5555060000000 1.0
END
