TITL C-1154808-8168-564 0.000197006161545595 125000 -283.293070698865 0 0 60 (C1) n - 1
REM
REM in /home/nfs/bkarasulu/CARBON/AIRSS/Generating-Clusters/AIREBO/Higher-Symm/Only-C60
REM
REM
REM
REM
REM
REM ./C.cell (28575a23ae977d3b5fae324c64b13b57)
REM
REM compiler GCC version 9.2.1 20190827 (Red Hat 9.2.1-1)
REM options -cpp -mtune=generic -march=x86-64 -g -O0 -fpre-include=/usr/include/finclude/math-vector-fortran.h
REM seed 950886605 -1280008657 -929735520 69243436 -41805717 2065247010 224010884 908335630 2059290687 -1286339532 -839075886 763362077 1243116725 -1564245061 -534627837 120138897 553252549 -738910746 208025002 1877537154 1210194607 2134983827 220972015 1841225036 -998931654 24415762 821737210 427625010 179358002 -1454812200 -271470224 823368096 1246250217
REM
CELL 1.54180   50.00000   50.00000   50.00000   90.00000   90.00000   90.00000
LATT -1
SFAC C  
C      1  0.4378760000000  0.5390170000000  0.5017620000000 1.0
C      1  0.5602180000000  0.4665250000000  0.5101190000000 1.0
C      1  0.4438180000000  0.4435870000000  0.4833120000000 1.0
C      1  0.5553690000000  0.5210300000000  0.4765410000000 1.0
C      1  0.4618450000000  0.5478780000000  0.4712610000000 1.0
C      1  0.5404910000000  0.4585860000000  0.4730160000000 1.0
C      1  0.5473290000000  0.4429160000000  0.5167150000000 1.0
C      1  0.4545930000000  0.5596680000000  0.5114910000000 1.0
C      1  0.5445640000000  0.4873290000000  0.5001450000000 1.0
C      1  0.4535960000000  0.5145650000000  0.4916350000000 1.0
C      1  0.5447900000000  0.5643580000000  0.5002190000000 1.0
C      1  0.4612320000000  0.4248030000000  0.5032040000000 1.0
C      1  0.5188610000000  0.5195080000000  0.4927590000000 1.0
C      1  0.4806660000000  0.4806660000000  0.4873580000000 1.0
C      1  0.5220940000000  0.4860140000000  0.5653460000000 1.0
C      1  0.4684250000000  0.5178750000000  0.5617410000000 1.0
C      1  0.5108030000000  0.5598630000000  0.4658970000000 1.0
C      1  0.4893020000000  0.4447290000000  0.4656620000000 1.0
C      1  0.5130040000000  0.4721760000000  0.4811400000000 1.0
C      1  0.4886810000000  0.5313590000000  0.4824960000000 1.0
C      1  0.4796640000000  0.4622470000000  0.5152600000000 1.0
C      1  0.5245050000000  0.5366420000000  0.5205490000000 1.0
C      1  0.5128590000000  0.5012860000000  0.4646870000000 1.0
C      1  0.4796890000000  0.5045220000000  0.4630720000000 1.0
C      1  0.5294540000000  0.4739540000000  0.5344200000000 1.0
C      1  0.4633010000000  0.5249130000000  0.5288680000000 1.0
C      1  0.5064380000000  0.5900730000000  0.5091810000000 1.0
C      1  0.5054570000000  0.4075230000000  0.4955240000000 1.0
C      1  0.5121000000000  0.4901120000000  0.5100110000000 1.0
C      1  0.4833620000000  0.5083620000000  0.5069330000000 1.0
C      1  0.4514890000000  0.4958440000000  0.5423700000000 1.0
C      1  0.5382070000000  0.5059400000000  0.5425220000000 1.0
C      1  0.4919140000000  0.4853280000000  0.5370130000000 1.0
C      1  0.5016120000000  0.5191850000000  0.5335560000000 1.0
C      1  0.5184310000000  0.4453610000000  0.5196420000000 1.0
C      1  0.4827720000000  0.5503060000000  0.5171950000000 1.0
C      1  0.5079200000000  0.5348100000000  0.4232300000000 1.0
C      1  0.4917970000000  0.4719390000000  0.4236480000000 1.0
C      1  0.4419110000000  0.4475390000000  0.5145950000000 1.0
C      1  0.5587510000000  0.5398090000000  0.5005140000000 1.0
C      1  0.4942230000000  0.5522650000000  0.4440090000000 1.0
C      1  0.5063860000000  0.4566220000000  0.4450440000000 1.0
C      1  0.5176630000000  0.5121510000000  0.4328280000000 1.0
C      1  0.4803320000000  0.4949510000000  0.4304460000000 1.0
C      1  0.4905000000000  0.5323010000000  0.5721760000000 1.0
C      1  0.4990910000000  0.4732200000000  0.5763920000000 1.0
C      1  0.5510390000000  0.4904550000000  0.4675680000000 1.0
C      1  0.4455240000000  0.5245790000000  0.4601610000000 1.0
C      1  0.4742360000000  0.4845410000000  0.5650830000000 1.0
C      1  0.5159030000000  0.5194180000000  0.5643610000000 1.0
C      1  0.5109790000000  0.5606510000000  0.5005990000000 1.0
C      1  0.4931680000000  0.4356590000000  0.4988930000000 1.0
C      1  0.5322920000000  0.5407600000000  0.4706330000000 1.0
C      1  0.4624910000000  0.4588570000000  0.4688740000000 1.0
C      1  0.5294810000000  0.4815070000000  0.4425690000000 1.0
C      1  0.4719190000000  0.5271060000000  0.4388600000000 1.0
C      1  0.4542850000000  0.4498310000000  0.5630830000000 1.0
C      1  0.5809680000000  0.5334230000000  0.5468360000000 1.0
C      1  0.4540540000000  0.4651120000000  0.5365640000000 1.0
C      1  0.5562830000000  0.5284470000000  0.5304100000000 1.0
END
