TITL C-1154816-9297-223 -8.3059185849556e-05 125000 -302.558329651204 0 0 60 (C1) n - 1
REM
REM in /home/nfs/bkarasulu/CARBON/AIRSS/Generating-Clusters/AIREBO/Higher-Symm/Only-C60
REM
REM
REM
REM
REM
REM ./C.cell (28575a23ae977d3b5fae324c64b13b57)
REM
REM compiler GCC version 9.2.1 20190827 (Red Hat 9.2.1-1)
REM options -cpp -mtune=generic -march=x86-64 -g -O0 -fpre-include=/usr/include/finclude/math-vector-fortran.h
REM seed 1416380740 1952849569 -1276330415 -294200012 -912659372 -1814895956 1314142100 -153163486 1114097146 2101654671 -151666303 1752399233 -476367776 -581323814 -192811667 -807211410 -714266172 -685330482 928491009 1804504073 -786565407 -811745400 1365819367 987923455 98959656 1573623082 -1572397427 1154386952 -1481869926 485550721 -736111958 -1538462464 -371941935
REM
CELL 1.54180   50.00000   50.00000   50.00000   90.00000   90.00000   90.00000
LATT -1
SFAC C  
C      1  0.5210200000000  0.4270090000000  0.4926210000000 1.0
C      1  0.5076550000000  0.4680090000000  0.5801260000000 1.0
C      1  0.5265770000000  0.5584520000000  0.5428280000000 1.0
C      1  0.5227530000000  0.5621890000000  0.4674070000000 1.0
C      1  0.5209050000000  0.4864390000000  0.4211460000000 1.0
C      1  0.4652540000000  0.4960220000000  0.4366140000000 1.0
C      1  0.4706140000000  0.4360110000000  0.4733780000000 1.0
C      1  0.4673820000000  0.4574270000000  0.5546620000000 1.0
C      1  0.4704400000000  0.5422370000000  0.5491000000000 1.0
C      1  0.4656380000000  0.5651550000000  0.4841190000000 1.0
C      1  0.5292730000000  0.4885820000000  0.5452910000000 1.0
C      1  0.5309330000000  0.5272230000000  0.5351610000000 1.0
C      1  0.5255800000000  0.5300140000000  0.4732180000000 1.0
C      1  0.5299440000000  0.4831740000000  0.4599000000000 1.0
C      1  0.5231520000000  0.4562450000000  0.5029020000000 1.0
C      1  0.5113860000000  0.4477580000000  0.5621440000000 1.0
C      1  0.5147360000000  0.5429010000000  0.5676900000000 1.0
C      1  0.5043850000000  0.5889050000000  0.4777110000000 1.0
C      1  0.5076790000000  0.5139630000000  0.4162270000000 1.0
C      1  0.5187940000000  0.4287100000000  0.4650850000000 1.0
C      1  0.4882290000000  0.5201860000000  0.4432990000000 1.0
C      1  0.4950220000000  0.4507800000000  0.4548650000000 1.0
C      1  0.4916680000000  0.4445980000000  0.5346150000000 1.0
C      1  0.4928420000000  0.5182530000000  0.5579970000000 1.0
C      1  0.4937640000000  0.5681200000000  0.5029970000000 1.0
C      1  0.5157850000000  0.4614070000000  0.4296170000000 1.0
C      1  0.5119800000000  0.4217340000000  0.5197460000000 1.0
C      1  0.5072220000000  0.4947590000000  0.5779480000000 1.0
C      1  0.5212970000000  0.5744250000000  0.5219350000000 1.0
C      1  0.5080390000000  0.5478100000000  0.4422970000000 1.0
C      1  0.5307700000000  0.5806440000000  0.4947110000000 1.0
C      1  0.5276140000000  0.5130120000000  0.4437580000000 1.0
C      1  0.5346870000000  0.4506660000000  0.4511290000000 1.0
C      1  0.5297460000000  0.4565680000000  0.5349120000000 1.0
C      1  0.5315860000000  0.5134010000000  0.5662860000000 1.0
C      1  0.4684770000000  0.4831820000000  0.5243570000000 1.0
C      1  0.4681510000000  0.5144430000000  0.5205140000000 1.0
C      1  0.4679070000000  0.5259410000000  0.4906960000000 1.0
C      1  0.4668740000000  0.4980880000000  0.4764420000000 1.0
C      1  0.4689440000000  0.4700320000000  0.4941350000000 1.0
C      1  0.4734020000000  0.4386880000000  0.5065490000000 1.0
C      1  0.4726120000000  0.4909260000000  0.5572110000000 1.0
C      1  0.4787530000000  0.5628600000000  0.5330580000000 1.0
C      1  0.4700390000000  0.5426750000000  0.4611710000000 1.0
C      1  0.4741730000000  0.4701170000000  0.4362140000000 1.0
C      1  0.5524500000000  0.5174270000000  0.5164400000000 1.0
C      1  0.5489820000000  0.5168680000000  0.4883580000000 1.0
C      1  0.5504630000000  0.4897220000000  0.4804910000000 1.0
C      1  0.5494380000000  0.4732540000000  0.5029560000000 1.0
C      1  0.5531250000000  0.4896530000000  0.5253780000000 1.0
C      1  0.4459610000000  0.5289980000000  0.5402080000000 1.0
C      1  0.4434240000000  0.5495170000000  0.4980390000000 1.0
C      1  0.4421010000000  0.4996020000000  0.4541590000000 1.0
C      1  0.4452640000000  0.4538520000000  0.4746660000000 1.0
C      1  0.4422840000000  0.4645980000000  0.5377420000000 1.0
C      1  0.5014500000000  0.4767930000000  0.5297020000000 1.0
C      1  0.5013670000000  0.5202810000000  0.5251270000000 1.0
C      1  0.5001890000000  0.5356680000000  0.4951350000000 1.0
C      1  0.4986140000000  0.4956890000000  0.4644830000000 1.0
C      1  0.5012070000000  0.4683370000000  0.4833310000000 1.0
END
