TITL C-1154824-75-364 0.00025110343219017 125000 -324.425679822118 0 0 60 (C1) n - 1
REM
REM in /home/nfs/bkarasulu/CARBON/AIRSS/Generating-Clusters/AIREBO/Higher-Symm/Only-C60
REM
REM
REM
REM
REM
REM ./C.cell (28575a23ae977d3b5fae324c64b13b57)
REM
REM compiler GCC version 9.2.1 20190827 (Red Hat 9.2.1-1)
REM options -cpp -mtune=generic -march=x86-64 -g -O0 -fpre-include=/usr/include/finclude/math-vector-fortran.h
REM seed -775571130 -1882753895 -1429120280 436425683 -1875746356 593120486 599481564 -1956813441 -1528432044 -1331147034 -464063192 -375388017 -992259579 -1279024773 251118127 496680605 -120832455 -1908263028 979365560 -1314416003 -1087082829 1122373863 -647512257 1311696083 255051566 -1920118109 -1615061538 2061519600 1027191716 -960596043 -1348171789 -827191326 233680984
REM
CELL 1.54180   50.00000   50.00000   50.00000   90.00000   90.00000   90.00000
LATT -1
SFAC C  
C      1  0.5676010000000  0.4851730000000  0.4904850000000 1.0
C      1  0.4319690000000  0.5124520000000  0.4890190000000 1.0
C      1  0.5824010000000  0.4992560000000  0.5131010000000 1.0
C      1  0.4335230000000  0.5115320000000  0.5251980000000 1.0
C      1  0.5703640000000  0.5134490000000  0.4777370000000 1.0
C      1  0.4239490000000  0.4834140000000  0.4827340000000 1.0
C      1  0.5796810000000  0.5247700000000  0.5238410000000 1.0
C      1  0.4285070000000  0.4828280000000  0.5154830000000 1.0
C      1  0.5191750000000  0.5153960000000  0.5395070000000 1.0
C      1  0.4811700000000  0.4824930000000  0.5420680000000 1.0
C      1  0.5170560000000  0.5179930000000  0.4589480000000 1.0
C      1  0.4792000000000  0.4835360000000  0.4568710000000 1.0
C      1  0.5121870000000  0.4832600000000  0.5408640000000 1.0
C      1  0.4879430000000  0.5149750000000  0.5421290000000 1.0
C      1  0.5111730000000  0.4851520000000  0.4604940000000 1.0
C      1  0.4859910000000  0.5159810000000  0.4583960000000 1.0
C      1  0.5376420000000  0.5553700000000  0.5313600000000 1.0
C      1  0.4711960000000  0.4450280000000  0.5326850000000 1.0
C      1  0.5354640000000  0.5525380000000  0.4671050000000 1.0
C      1  0.4654190000000  0.4473680000000  0.4667220000000 1.0
C      1  0.5280340000000  0.4468460000000  0.5366760000000 1.0
C      1  0.4711210000000  0.5513250000000  0.5330260000000 1.0
C      1  0.5318870000000  0.4515510000000  0.4667380000000 1.0
C      1  0.4686380000000  0.5509000000000  0.4668700000000 1.0
C      1  0.5231230000000  0.5288500000000  0.4881440000000 1.0
C      1  0.4773440000000  0.4713410000000  0.4871670000000 1.0
C      1  0.5249360000000  0.5301560000000  0.5130020000000 1.0
C      1  0.4777820000000  0.4700700000000  0.5119550000000 1.0
C      1  0.5173620000000  0.4725960000000  0.4887980000000 1.0
C      1  0.4815170000000  0.5279630000000  0.4877570000000 1.0
C      1  0.5189060000000  0.4694980000000  0.5133930000000 1.0
C      1  0.4824320000000  0.5273730000000  0.5124600000000 1.0
C      1  0.5349040000000  0.4895370000000  0.5651670000000 1.0
C      1  0.4576200000000  0.5109600000000  0.5569880000000 1.0
C      1  0.5332830000000  0.4899960000000  0.4358350000000 1.0
C      1  0.4635580000000  0.5123080000000  0.4342410000000 1.0
C      1  0.5404640000000  0.5189350000000  0.5632690000000 1.0
C      1  0.4466600000000  0.4845480000000  0.5516180000000 1.0
C      1  0.5353860000000  0.5192100000000  0.4315460000000 1.0
C      1  0.4557060000000  0.4839610000000  0.4333880000000 1.0
C      1  0.5461320000000  0.5460030000000  0.5608120000000 1.0
C      1  0.4541180000000  0.4573130000000  0.5572090000000 1.0
C      1  0.5434000000000  0.5456780000000  0.4374060000000 1.0
C      1  0.4578660000000  0.4554530000000  0.4373790000000 1.0
C      1  0.5377170000000  0.4608700000000  0.5628430000000 1.0
C      1  0.4626720000000  0.5393400000000  0.5611460000000 1.0
C      1  0.5397430000000  0.4623980000000  0.4388070000000 1.0
C      1  0.4616850000000  0.5409280000000  0.4378960000000 1.0
C      1  0.4444050000000  0.5388710000000  0.5160520000000 1.0
C      1  0.5513060000000  0.4461110000000  0.5132910000000 1.0
C      1  0.4438200000000  0.5410500000000  0.4862110000000 1.0
C      1  0.5552050000000  0.4600260000000  0.4899880000000 1.0
C      1  0.4420980000000  0.4529010000000  0.5169480000000 1.0
C      1  0.5623290000000  0.5442580000000  0.5121820000000 1.0
C      1  0.4400210000000  0.4572600000000  0.4870600000000 1.0
C      1  0.5611700000000  0.5400950000000  0.4846420000000 1.0
C      1  0.4990550000000  0.4430260000000  0.4691200000000 1.0
C      1  0.5039170000000  0.5595740000000  0.5300180000000 1.0
C      1  0.4991680000000  0.4316260000000  0.5384450000000 1.0
C      1  0.5019030000000  0.5573310000000  0.4697630000000 1.0
END
