TITL C-1154804-8633-209 4.05345993191474e-05 125000 -333.940890302044 0 0 60 (C1) n - 1
REM
REM in /home/nfs/bkarasulu/CARBON/AIRSS/Generating-Clusters/AIREBO/Higher-Symm/Only-C60
REM
REM
REM
REM
REM
REM ./C.cell (28575a23ae977d3b5fae324c64b13b57)
REM
REM compiler GCC version 9.2.1 20190827 (Red Hat 9.2.1-1)
REM options -cpp -mtune=generic -march=x86-64 -g -O0 -fpre-include=/usr/include/finclude/math-vector-fortran.h
REM seed -2035000433 1610654802 596584076 -668832944 -794078898 946979501 -495296960 -2039115715 747254964 -1841079172 1233484238 382765648 729280390 -2031821903 -759282392 -1903982207 952069984 1997424101 526485359 399483162 1003803914 449428745 -2010619012 1444257480 830629451 204578670 -374323355 -1835339312 -18393148 169347773 1914290866 -48538361 -2030201248
REM
CELL 1.54180   50.00000   50.00000   50.00000   90.00000   90.00000   90.00000
LATT -1
SFAC C  
C      1  0.5574000000000  0.5028070000000  0.4704050000000 1.0
C      1  0.4812600000000  0.5061260000000  0.4372160000000 1.0
C      1  0.4354620000000  0.5047310000000  0.5001250000000 1.0
C      1  0.4788870000000  0.5038810000000  0.5592550000000 1.0
C      1  0.5577830000000  0.5181700000000  0.5471580000000 1.0
C      1  0.4834620000000  0.5763430000000  0.5395740000000 1.0
C      1  0.5293510000000  0.5840320000000  0.5240050000000 1.0
C      1  0.5331140000000  0.5772010000000  0.4704030000000 1.0
C      1  0.4869920000000  0.5727900000000  0.4546450000000 1.0
C      1  0.4580940000000  0.5744890000000  0.4966870000000 1.0
C      1  0.5072530000000  0.5172210000000  0.4419720000000 1.0
C      1  0.4475780000000  0.5158570000000  0.4769850000000 1.0
C      1  0.4579730000000  0.5172080000000  0.5454640000000 1.0
C      1  0.5310820000000  0.5222100000000  0.5543840000000 1.0
C      1  0.5578340000000  0.5122320000000  0.4982810000000 1.0
C      1  0.5732310000000  0.4504310000000  0.4729530000000 1.0
C      1  0.4880840000000  0.4566020000000  0.4257000000000 1.0
C      1  0.4244830000000  0.4548450000000  0.4918330000000 1.0
C      1  0.4661690000000  0.4536300000000  0.5606300000000 1.0
C      1  0.5535750000000  0.4472250000000  0.5509290000000 1.0
C      1  0.4323620000000  0.4413410000000  0.4689720000000 1.0
C      1  0.4580030000000  0.4359730000000  0.5409740000000 1.0
C      1  0.5289690000000  0.4407660000000  0.5616240000000 1.0
C      1  0.5656960000000  0.4306990000000  0.4908780000000 1.0
C      1  0.5099480000000  0.4427590000000  0.4348070000000 1.0
C      1  0.5337940000000  0.5725720000000  0.4983320000000 1.0
C      1  0.5129130000000  0.5613520000000  0.4579510000000 1.0
C      1  0.4687900000000  0.5626140000000  0.4737300000000 1.0
C      1  0.4663070000000  0.5634500000000  0.5213410000000 1.0
C      1  0.5104210000000  0.5684430000000  0.5389750000000 1.0
C      1  0.5582310000000  0.4737490000000  0.4703390000000 1.0
C      1  0.4789930000000  0.4781780000000  0.4406480000000 1.0
C      1  0.4388730000000  0.4765690000000  0.5021030000000 1.0
C      1  0.4807050000000  0.4764640000000  0.5533450000000 1.0
C      1  0.5535810000000  0.4614060000000  0.5273750000000 1.0
C      1  0.5069600000000  0.5049180000000  0.5278990000000 1.0
C      1  0.5280420000000  0.5136870000000  0.5037180000000 1.0
C      1  0.5154790000000  0.4980440000000  0.4797850000000 1.0
C      1  0.4844210000000  0.5008020000000  0.4806280000000 1.0
C      1  0.4773460000000  0.5048480000000  0.5127480000000 1.0
C      1  0.5139300000000  0.5380190000000  0.5317750000000 1.0
C      1  0.5228270000000  0.5447270000000  0.5008460000000 1.0
C      1  0.5095160000000  0.5309200000000  0.4727680000000 1.0
C      1  0.4761060000000  0.5337020000000  0.4784680000000 1.0
C      1  0.4669970000000  0.5357980000000  0.5222990000000 1.0
C      1  0.4568340000000  0.5185900000000  0.4470730000000 1.0
C      1  0.4330170000000  0.5156280000000  0.5268450000000 1.0
C      1  0.5039870000000  0.5160450000000  0.5661950000000 1.0
C      1  0.5712930000000  0.5158970000000  0.5228210000000 1.0
C      1  0.5380670000000  0.5136810000000  0.4507620000000 1.0
C      1  0.4575050000000  0.4469880000000  0.4591050000000 1.0
C      1  0.4665460000000  0.4401830000000  0.5151340000000 1.0
C      1  0.5063930000000  0.4464410000000  0.5472660000000 1.0
C      1  0.5416410000000  0.4310070000000  0.5043850000000 1.0
C      1  0.5188810000000  0.4481630000000  0.4596810000000 1.0
C      1  0.4709810000000  0.4732440000000  0.4712380000000 1.0
C      1  0.4718080000000  0.4721220000000  0.5053330000000 1.0
C      1  0.4997440000000  0.4717680000000  0.5255640000000 1.0
C      1  0.5267110000000  0.4600870000000  0.5084630000000 1.0
C      1  0.5283160000000  0.4703220000000  0.4792030000000 1.0
END
