TITL C-1154803-8277-476 0.000921848962320624 125000 -337.870130190424 0 0 60 (C1) n - 1
REM
REM in /home/nfs/bkarasulu/CARBON/AIRSS/Generating-Clusters/AIREBO/Higher-Symm/Only-C60
REM
REM
REM
REM
REM
REM ./C.cell (28575a23ae977d3b5fae324c64b13b57)
REM
REM compiler GCC version 9.2.1 20190827 (Red Hat 9.2.1-1)
REM options -cpp -mtune=generic -march=x86-64 -g -O0 -fpre-include=/usr/include/finclude/math-vector-fortran.h
REM seed -1051725889 -800416357 1465403380 512837923 1246914443 -1111160716 113185964 1056750443 1309571690 -579042506 122178415 -788555339 1640914037 -526562728 -159567759 1846189655 -613304429 2009680938 102057018 -963058626 -1391029267 -356750050 1233179929 -1485575219 46010261 -582713227 464433120 709370802 196584772 999500381 1518960859 -1577248491 -406954426
REM
CELL 1.54180   50.00000   50.00000   50.00000   90.00000   90.00000   90.00000
LATT -1
SFAC C  
C      1  0.5058630000000  0.4693880000000  0.5694410000000 1.0
C      1  0.4966920000000  0.4734700000000  0.4314430000000 1.0
C      1  0.5055170000000  0.5296810000000  0.5734370000000 1.0
C      1  0.5009720000000  0.5276160000000  0.4305050000000 1.0
C      1  0.5008000000000  0.5158400000000  0.4613470000000 1.0
C      1  0.5034060000000  0.5165010000000  0.5434870000000 1.0
C      1  0.4952890000000  0.4869380000000  0.4623740000000 1.0
C      1  0.5015460000000  0.4864210000000  0.5415300000000 1.0
C      1  0.5418050000000  0.4780820000000  0.4551860000000 1.0
C      1  0.4583240000000  0.4846660000000  0.5694250000000 1.0
C      1  0.5456190000000  0.5041450000000  0.4450890000000 1.0
C      1  0.4586420000000  0.5121870000000  0.5717680000000 1.0
C      1  0.4407750000000  0.5353930000000  0.4846680000000 1.0
C      1  0.5613630000000  0.5392100000000  0.5040870000000 1.0
C      1  0.4323210000000  0.4621840000000  0.4881900000000 1.0
C      1  0.5624820000000  0.4658720000000  0.5001840000000 1.0
C      1  0.4844050000000  0.5575550000000  0.4946050000000 1.0
C      1  0.5100190000000  0.5618370000000  0.5069440000000 1.0
C      1  0.4873690000000  0.4413140000000  0.4934210000000 1.0
C      1  0.5149190000000  0.4417990000000  0.5033510000000 1.0
C      1  0.4579530000000  0.4498000000000  0.5082160000000 1.0
C      1  0.5357410000000  0.4567560000000  0.4809830000000 1.0
C      1  0.4590210000000  0.5440230000000  0.5120920000000 1.0
C      1  0.5346550000000  0.5512350000000  0.4880490000000 1.0
C      1  0.5488570000000  0.4857740000000  0.5564180000000 1.0
C      1  0.4539850000000  0.4886710000000  0.4430470000000 1.0
C      1  0.5480460000000  0.5147220000000  0.5576440000000 1.0
C      1  0.4552740000000  0.5173670000000  0.4394830000000 1.0
C      1  0.4564290000000  0.5352830000000  0.4614900000000 1.0
C      1  0.5427760000000  0.5322150000000  0.5318640000000 1.0
C      1  0.4592220000000  0.4720220000000  0.4702350000000 1.0
C      1  0.5454280000000  0.4704270000000  0.5292810000000 1.0
C      1  0.4624210000000  0.5115510000000  0.5073180000000 1.0
C      1  0.5310170000000  0.5140790000000  0.5091440000000 1.0
C      1  0.4626910000000  0.4819830000000  0.5026020000000 1.0
C      1  0.5309880000000  0.4886460000000  0.5080660000000 1.0
C      1  0.5330690000000  0.5260020000000  0.5798680000000 1.0
C      1  0.4749590000000  0.5259020000000  0.4198300000000 1.0
C      1  0.5330900000000  0.4719780000000  0.5765200000000 1.0
C      1  0.4696930000000  0.4749200000000  0.4226410000000 1.0
C      1  0.4758100000000  0.4635350000000  0.5614980000000 1.0
C      1  0.5213010000000  0.4609350000000  0.4421820000000 1.0
C      1  0.4755080000000  0.5342960000000  0.5656650000000 1.0
C      1  0.5318200000000  0.5287290000000  0.4398940000000 1.0
C      1  0.5199970000000  0.5504640000000  0.4582190000000 1.0
C      1  0.4787200000000  0.5474420000000  0.5394760000000 1.0
C      1  0.5162150000000  0.4364630000000  0.4596740000000 1.0
C      1  0.4801180000000  0.4537150000000  0.5337430000000 1.0
C      1  0.5141330000000  0.4570140000000  0.5299940000000 1.0
C      1  0.4874990000000  0.4539220000000  0.4648410000000 1.0
C      1  0.5125100000000  0.5478380000000  0.5339270000000 1.0
C      1  0.4866220000000  0.5465290000000  0.4650870000000 1.0
C      1  0.5762520000000  0.5171980000000  0.4958420000000 1.0
C      1  0.4213770000000  0.5136920000000  0.4880880000000 1.0
C      1  0.5767690000000  0.4891060000000  0.4935860000000 1.0
C      1  0.4170080000000  0.4858290000000  0.4919070000000 1.0
C      1  0.4920020000000  0.5204880000000  0.5132330000000 1.0
C      1  0.5113850000000  0.5264560000000  0.4888090000000 1.0
C      1  0.4915350000000  0.4849220000000  0.5115620000000 1.0
C      1  0.5099770000000  0.4779700000000  0.4875000000000 1.0
END
