TITL C-1154821-8623-371 -0.00483459834490713 125000 -317.905446012358 0 0 60 (C1) n - 1
REM
REM in /home/nfs/bkarasulu/CARBON/AIRSS/Generating-Clusters/AIREBO/Higher-Symm/Only-C60
REM
REM
REM
REM
REM
REM ./C.cell (28575a23ae977d3b5fae324c64b13b57)
REM
REM compiler GCC version 9.2.1 20190827 (Red Hat 9.2.1-1)
REM options -cpp -mtune=generic -march=x86-64 -g -O0 -fpre-include=/usr/include/finclude/math-vector-fortran.h
REM seed -989715052 -1727976039 1780057725 809624030 636842106 2110917239 -2108535312 -1187026416 1591075501 1523535851 1024066636 729759568 -703857593 548654020 -1348571289 -2079957763 922658202 794772089 -621525785 1302665347 -2120497360 -375487636 797374324 2077397412 -867471910 1011739822 -274992913 1428196940 200212623 325882096 -772139579 1820792693 -102231357
REM
CELL 1.54180   50.00000   50.00000   50.00000   90.00000   90.00000   90.00000
LATT -1
SFAC C  
C      1  0.4953530000000  0.4552860000000  0.4158450000000 1.0
C      1  0.4699470000000  0.5300440000000  0.4371850000000 1.0
C      1  0.4745920000000  0.5265260000000  0.4786710000000 1.0
C      1  0.5299740000000  0.4768990000000  0.4777110000000 1.0
C      1  0.5302890000000  0.5503900000000  0.4601400000000 1.0
C      1  0.4548290000000  0.4459330000000  0.4605450000000 1.0
C      1  0.5337120000000  0.5220300000000  0.4520000000000 1.0
C      1  0.4574590000000  0.4791790000000  0.4550390000000 1.0
C      1  0.5503590000000  0.5302720000000  0.5382840000000 1.0
C      1  0.4568010000000  0.4769590000000  0.5355660000000 1.0
C      1  0.4450500000000  0.4621020000000  0.4887680000000 1.0
C      1  0.5436840000000  0.5380540000000  0.4887380000000 1.0
C      1  0.5285560000000  0.4790470000000  0.5115250000000 1.0
C      1  0.4806060000000  0.4950400000000  0.5091460000000 1.0
C      1  0.4429420000000  0.4981940000000  0.5222220000000 1.0
C      1  0.5664040000000  0.5109360000000  0.5247320000000 1.0
C      1  0.5002830000000  0.4611500000000  0.4749340000000 1.0
C      1  0.5047610000000  0.5223340000000  0.4927800000000 1.0
C      1  0.5458850000000  0.4511440000000  0.4611020000000 1.0
C      1  0.4764060000000  0.5576850000000  0.4651600000000 1.0
C      1  0.4983280000000  0.5171000000000  0.5257610000000 1.0
C      1  0.5021090000000  0.4773390000000  0.5258330000000 1.0
C      1  0.5660740000000  0.4701530000000  0.4619280000000 1.0
C      1  0.4475510000000  0.5416800000000  0.4537970000000 1.0
C      1  0.5083160000000  0.4762630000000  0.5592640000000 1.0
C      1  0.5050650000000  0.5231890000000  0.5562420000000 1.0
C      1  0.4749880000000  0.4819300000000  0.5555640000000 1.0
C      1  0.5344090000000  0.5180970000000  0.5583010000000 1.0
C      1  0.5336100000000  0.5084190000000  0.5020330000000 1.0
C      1  0.4742160000000  0.4790990000000  0.4847060000000 1.0
C      1  0.4720080000000  0.5464270000000  0.5344390000000 1.0
C      1  0.5202680000000  0.4332510000000  0.5625690000000 1.0
C      1  0.4621110000000  0.5235730000000  0.5101860000000 1.0
C      1  0.5538710000000  0.4806780000000  0.5316630000000 1.0
C      1  0.5171110000000  0.5053940000000  0.4660010000000 1.0
C      1  0.4781510000000  0.5038540000000  0.4535790000000 1.0
C      1  0.4837930000000  0.5054980000000  0.5709410000000 1.0
C      1  0.5366170000000  0.4895410000000  0.5574690000000 1.0
C      1  0.5063900000000  0.5609140000000  0.4504900000000 1.0
C      1  0.4860580000000  0.4523370000000  0.4485470000000 1.0
C      1  0.5552730000000  0.4486050000000  0.5308020000000 1.0
C      1  0.4366850000000  0.5458350000000  0.5063660000000 1.0
C      1  0.5089800000000  0.5540600000000  0.5004790000000 1.0
C      1  0.4913260000000  0.4450380000000  0.4990880000000 1.0
C      1  0.4369700000000  0.4949880000000  0.4918410000000 1.0
C      1  0.5704690000000  0.5183620000000  0.4959770000000 1.0
C      1  0.4838420000000  0.5669600000000  0.4935040000000 1.0
C      1  0.5127550000000  0.4251400000000  0.5156550000000 1.0
C      1  0.4953300000000  0.5504340000000  0.5475060000000 1.0
C      1  0.4968240000000  0.4488290000000  0.5434940000000 1.0
C      1  0.4799200000000  0.4271090000000  0.5256320000000 1.0
C      1  0.5150440000000  0.5665820000000  0.5379270000000 1.0
C      1  0.4898270000000  0.5481880000000  0.4287350000000 1.0
C      1  0.4812640000000  0.4804710000000  0.4300600000000 1.0
C      1  0.5588070000000  0.4949240000000  0.4785070000000 1.0
C      1  0.4421960000000  0.5168820000000  0.4748230000000 1.0
C      1  0.5321600000000  0.4324090000000  0.5345240000000 1.0
C      1  0.4625300000000  0.5635020000000  0.5115960000000 1.0
C      1  0.4632740000000  0.4549710000000  0.5152720000000 1.0
C      1  0.5375870000000  0.5527720000000  0.5188100000000 1.0
END
