TITL C-1154825-9328-217 0.00289418131959069 125000 -326.385580343023 0 0 60 (C1) n - 1
REM
REM in /home/nfs/bkarasulu/CARBON/AIRSS/Generating-Clusters/AIREBO/Higher-Symm/Only-C60
REM
REM
REM
REM
REM
REM ./C.cell (28575a23ae977d3b5fae324c64b13b57)
REM
REM compiler GCC version 9.2.1 20190827 (Red Hat 9.2.1-1)
REM options -cpp -mtune=generic -march=x86-64 -g -O0 -fpre-include=/usr/include/finclude/math-vector-fortran.h
REM seed 219487789 213325940 943140368 -1907395019 -1777810042 457997106 -1599741850 463595581 -1035300837 -22332560 1946011035 -890400399 -145411225 770587848 -1884182971 733902193 -1842998449 1660597221 -549560995 -1655974564 -1630645747 138010327 -1029202367 330404695 -584999490 2073561395 755543366 -1533279450 -295560082 -1094904041 486127256 -743758128 967438049
REM
CELL 1.54180   50.00000   50.00000   50.00000   90.00000   90.00000   90.00000
LATT -1
SFAC C  
C      1  0.5129620000000  0.5613330000000  0.4602850000000 1.0
C      1  0.4645010000000  0.5517200000000  0.4700280000000 1.0
C      1  0.4665290000000  0.5591130000000  0.5275850000000 1.0
C      1  0.5101030000000  0.5631730000000  0.5417160000000 1.0
C      1  0.5459740000000  0.5590070000000  0.4998340000000 1.0
C      1  0.5166600000000  0.4514630000000  0.5476150000000 1.0
C      1  0.4613770000000  0.4412040000000  0.5257460000000 1.0
C      1  0.4633020000000  0.4497730000000  0.4710190000000 1.0
C      1  0.5120930000000  0.4432650000000  0.4562250000000 1.0
C      1  0.5409950000000  0.4437180000000  0.5006390000000 1.0
C      1  0.5619250000000  0.4815970000000  0.4750980000000 1.0
C      1  0.4928530000000  0.4806560000000  0.4300710000000 1.0
C      1  0.4341320000000  0.4916460000000  0.4837610000000 1.0
C      1  0.4728600000000  0.4779490000000  0.5360420000000 1.0
C      1  0.5366940000000  0.4853930000000  0.5409740000000 1.0
C      1  0.5512380000000  0.5067120000000  0.5180730000000 1.0
C      1  0.4984260000000  0.5128490000000  0.5632090000000 1.0
C      1  0.4440330000000  0.5047300000000  0.5301820000000 1.0
C      1  0.4750210000000  0.5039950000000  0.4457700000000 1.0
C      1  0.5319190000000  0.5072860000000  0.4490390000000 1.0
C      1  0.4967740000000  0.5300350000000  0.4791080000000 1.0
C      1  0.4805860000000  0.5401960000000  0.5045610000000 1.0
C      1  0.4887720000000  0.5268620000000  0.5337640000000 1.0
C      1  0.5166210000000  0.5300640000000  0.5208830000000 1.0
C      1  0.5213820000000  0.5278190000000  0.4964960000000 1.0
C      1  0.4888230000000  0.4788790000000  0.5142110000000 1.0
C      1  0.4765200000000  0.4820140000000  0.4901650000000 1.0
C      1  0.4948000000000  0.4764950000000  0.4695200000000 1.0
C      1  0.5223220000000  0.4734510000000  0.4817130000000 1.0
C      1  0.5201600000000  0.4782350000000  0.5121400000000 1.0
C      1  0.4284480000000  0.4687230000000  0.5003530000000 1.0
C      1  0.4842890000000  0.4682040000000  0.5614720000000 1.0
C      1  0.5638090000000  0.4649610000000  0.5390870000000 1.0
C      1  0.5512070000000  0.4615350000000  0.4569390000000 1.0
C      1  0.4802100000000  0.4559510000000  0.4267270000000 1.0
C      1  0.4433730000000  0.5172280000000  0.5006340000000 1.0
C      1  0.4838680000000  0.5329740000000  0.4305150000000 1.0
C      1  0.5547490000000  0.5078650000000  0.4671170000000 1.0
C      1  0.5521890000000  0.5314300000000  0.5388650000000 1.0
C      1  0.4774460000000  0.5395900000000  0.5694000000000 1.0
C      1  0.4847610000000  0.4405610000000  0.5431650000000 1.0
C      1  0.5394560000000  0.4466870000000  0.5313310000000 1.0
C      1  0.5381830000000  0.4378460000000  0.4730200000000 1.0
C      1  0.4828900000000  0.4404720000000  0.4517250000000 1.0
C      1  0.4499260000000  0.4467230000000  0.4974650000000 1.0
C      1  0.4836850000000  0.5576720000000  0.4503010000000 1.0
C      1  0.5320920000000  0.5713460000000  0.4779490000000 1.0
C      1  0.5409450000000  0.5603690000000  0.5300050000000 1.0
C      1  0.4825650000000  0.5644980000000  0.5509470000000 1.0
C      1  0.4483300000000  0.5512090000000  0.4999670000000 1.0
C      1  0.5133740000000  0.4823080000000  0.5627690000000 1.0
C      1  0.5535360000000  0.4747660000000  0.5066160000000 1.0
C      1  0.5213540000000  0.4749860000000  0.4477500000000 1.0
C      1  0.4558000000000  0.4820140000000  0.4632070000000 1.0
C      1  0.4427560000000  0.4707320000000  0.5295740000000 1.0
C      1  0.5110800000000  0.5287750000000  0.4506510000000 1.0
C      1  0.5519900000000  0.5268300000000  0.4905950000000 1.0
C      1  0.5226850000000  0.5339400000000  0.5536910000000 1.0
C      1  0.4597580000000  0.5200410000000  0.5481360000000 1.0
C      1  0.4648850000000  0.5191370000000  0.4745500000000 1.0
END
