TITL C-1154801-8518-673 -0.00360530059682649 125000 -335.776260534768 0 0 60 (C1) n - 1
REM
REM in /home/nfs/bkarasulu/CARBON/AIRSS/Generating-Clusters/AIREBO/Higher-Symm/Only-C60
REM
REM
REM
REM
REM
REM ./C.cell (28575a23ae977d3b5fae324c64b13b57)
REM
REM compiler GCC version 9.2.1 20190827 (Red Hat 9.2.1-1)
REM options -cpp -mtune=generic -march=x86-64 -g -O0 -fpre-include=/usr/include/finclude/math-vector-fortran.h
REM seed -1950368978 -1692824179 1512668405 -1778635183 -987174008 499155640 1741656 -20052244 -1722437645 -1999677655 -1303692777 187201639 1350662620 -2010297273 2098324950 1551489768 -2115881841 291700066 -379348150 1027915448 -109393726 -52250380 -867520935 104767869 297921614 -1554493232 1056815282 315210572 1379883704 -1955538643 1087038100 635831106 625883377
REM
CELL 1.54180   50.00000   50.00000   50.00000   90.00000   90.00000   90.00000
LATT -1
SFAC C  
C      1  0.4594300000000  0.4403390000000  0.5155040000000 1.0
C      1  0.5255010000000  0.5427640000000  0.5109560000000 1.0
C      1  0.4739280000000  0.5382150000000  0.5206650000000 1.0
C      1  0.5007680000000  0.4361790000000  0.5408360000000 1.0
C      1  0.5591980000000  0.5105620000000  0.5347550000000 1.0
C      1  0.4271830000000  0.4872150000000  0.5336780000000 1.0
C      1  0.5776350000000  0.4977880000000  0.5129640000000 1.0
C      1  0.4377800000000  0.5121670000000  0.5507670000000 1.0
C      1  0.4590760000000  0.5191120000000  0.4609760000000 1.0
C      1  0.5503920000000  0.4823360000000  0.4438750000000 1.0
C      1  0.4388570000000  0.4678630000000  0.4462240000000 1.0
C      1  0.5779430000000  0.5482750000000  0.4467870000000 1.0
C      1  0.5953420000000  0.4887260000000  0.4942050000000 1.0
C      1  0.4291680000000  0.5583670000000  0.4949710000000 1.0
C      1  0.5711140000000  0.5622010000000  0.4950340000000 1.0
C      1  0.4190130000000  0.4659660000000  0.5184150000000 1.0
C      1  0.5899320000000  0.4944970000000  0.4678520000000 1.0
C      1  0.4471060000000  0.5354190000000  0.5011170000000 1.0
C      1  0.5507260000000  0.5401870000000  0.4879230000000 1.0
C      1  0.4386000000000  0.4569170000000  0.5012590000000 1.0
C      1  0.4719080000000  0.5663740000000  0.5043630000000 1.0
C      1  0.5121970000000  0.4169090000000  0.5235630000000 1.0
C      1  0.4718380000000  0.4174570000000  0.4975810000000 1.0
C      1  0.5173450000000  0.5696530000000  0.4955740000000 1.0
C      1  0.4775330000000  0.5008560000000  0.5755150000000 1.0
C      1  0.5400190000000  0.5191460000000  0.5526040000000 1.0
C      1  0.4610260000000  0.5209530000000  0.5642270000000 1.0
C      1  0.5260470000000  0.5003190000000  0.5682830000000 1.0
C      1  0.4469980000000  0.4276280000000  0.5418360000000 1.0
C      1  0.5249400000000  0.5410270000000  0.5431640000000 1.0
C      1  0.4757100000000  0.5411020000000  0.5507710000000 1.0
C      1  0.4887510000000  0.4278290000000  0.5649890000000 1.0
C      1  0.5109770000000  0.5531390000000  0.4455570000000 1.0
C      1  0.4871670000000  0.4428910000000  0.4453400000000 1.0
C      1  0.5101920000000  0.4464550000000  0.4350980000000 1.0
C      1  0.4901250000000  0.5456670000000  0.4662440000000 1.0
C      1  0.5232330000000  0.4737310000000  0.4343130000000 1.0
C      1  0.4881380000000  0.5183320000000  0.4461870000000 1.0
C      1  0.5325720000000  0.5347520000000  0.4376530000000 1.0
C      1  0.4715890000000  0.4679500000000  0.4554280000000 1.0
C      1  0.4461430000000  0.5056690000000  0.4845420000000 1.0
C      1  0.5660880000000  0.5013720000000  0.4548370000000 1.0
C      1  0.4472820000000  0.4753050000000  0.4783120000000 1.0
C      1  0.5566150000000  0.5313880000000  0.4563140000000 1.0
C      1  0.5006800000000  0.5201600000000  0.5166380000000 1.0
C      1  0.4841050000000  0.4569880000000  0.5257530000000 1.0
C      1  0.5146090000000  0.4943850000000  0.4139900000000 1.0
C      1  0.5109930000000  0.5183530000000  0.4259890000000 1.0
C      1  0.4914320000000  0.5673780000000  0.4840880000000 1.0
C      1  0.4957640000000  0.4055390000000  0.5042880000000 1.0
C      1  0.4620080000000  0.4205110000000  0.5637780000000 1.0
C      1  0.5018650000000  0.5509010000000  0.5567690000000 1.0
C      1  0.4978650000000  0.4722970000000  0.5021800000000 1.0
C      1  0.5222460000000  0.5059290000000  0.4965070000000 1.0
C      1  0.5503590000000  0.5126780000000  0.5028140000000 1.0
C      1  0.4435490000000  0.5087300000000  0.5180090000000 1.0
C      1  0.5000890000000  0.4927350000000  0.5607570000000 1.0
C      1  0.4966630000000  0.4873770000000  0.4559190000000 1.0
C      1  0.4957740000000  0.4892700000000  0.5308760000000 1.0
C      1  0.5094640000000  0.4860080000000  0.4824260000000 1.0
END
