TITL C-1154828-9214-598 0.00157795564681657 125000 -320.721789803877 0 0 60 (C1) n - 1
REM
REM in /home/nfs/bkarasulu/CARBON/AIRSS/Generating-Clusters/AIREBO/Higher-Symm/Only-C60
REM
REM
REM
REM
REM
REM ./C.cell (28575a23ae977d3b5fae324c64b13b57)
REM
REM compiler GCC version 9.2.1 20190827 (Red Hat 9.2.1-1)
REM options -cpp -mtune=generic -march=x86-64 -g -O0 -fpre-include=/usr/include/finclude/math-vector-fortran.h
REM seed -630295764 -276801367 -1630390288 -1688189252 1158503463 1162490098 1731322759 1738921860 -92080063 -24624245 980872487 2069116766 -124539782 -523345612 324951269 -1280293220 1664366558 1782357372 763857042 -1299408506 1594340404 1314371771 1205590757 246133787 -1822246728 -1724560581 1327182807 -361567478 -1597160529 690662594 -839282791 574499340 -801428465
REM
CELL 1.54180   50.00000   50.00000   50.00000   90.00000   90.00000   90.00000
LATT -1
SFAC C  
C      1  0.4796750000000  0.5354990000000  0.5625610000000 1.0
C      1  0.4562190000000  0.5669010000000  0.5001360000000 1.0
C      1  0.4319540000000  0.4385180000000  0.4843960000000 1.0
C      1  0.4978350000000  0.4411270000000  0.4457770000000 1.0
C      1  0.4499700000000  0.5274160000000  0.5014270000000 1.0
C      1  0.5532530000000  0.5124370000000  0.4849150000000 1.0
C      1  0.5546960000000  0.5440110000000  0.4717230000000 1.0
C      1  0.5566470000000  0.5370830000000  0.5380180000000 1.0
C      1  0.5001150000000  0.5463280000000  0.5063640000000 1.0
C      1  0.5681310000000  0.4685680000000  0.5001630000000 1.0
C      1  0.4966890000000  0.4434690000000  0.5503240000000 1.0
C      1  0.4870300000000  0.4680710000000  0.5595580000000 1.0
C      1  0.5438850000000  0.4565180000000  0.4973630000000 1.0
C      1  0.4885590000000  0.4543600000000  0.4735960000000 1.0
C      1  0.5345810000000  0.4445320000000  0.5226390000000 1.0
C      1  0.4933960000000  0.5150520000000  0.5169660000000 1.0
C      1  0.5197080000000  0.4677510000000  0.4762340000000 1.0
C      1  0.5499630000000  0.4978250000000  0.4358280000000 1.0
C      1  0.4280980000000  0.4835710000000  0.5016240000000 1.0
C      1  0.4377320000000  0.5039890000000  0.5168180000000 1.0
C      1  0.5147440000000  0.4548410000000  0.4321230000000 1.0
C      1  0.4395930000000  0.4552120000000  0.5075240000000 1.0
C      1  0.4527590000000  0.5514270000000  0.5253880000000 1.0
C      1  0.4966810000000  0.5185130000000  0.5801610000000 1.0
C      1  0.5545270000000  0.4314350000000  0.5468980000000 1.0
C      1  0.5271900000000  0.5353500000000  0.4443770000000 1.0
C      1  0.5090340000000  0.4898310000000  0.5003370000000 1.0
C      1  0.5053400000000  0.4429210000000  0.5244300000000 1.0
C      1  0.5358760000000  0.4873950000000  0.5531910000000 1.0
C      1  0.4503840000000  0.5006230000000  0.5413320000000 1.0
C      1  0.5207950000000  0.4837350000000  0.4462040000000 1.0
C      1  0.4888630000000  0.5247310000000  0.4458930000000 1.0
C      1  0.4973380000000  0.5647050000000  0.5315820000000 1.0
C      1  0.4457870000000  0.5390970000000  0.4726240000000 1.0
C      1  0.4946020000000  0.5192990000000  0.4774740000000 1.0
C      1  0.4736470000000  0.5564530000000  0.5448300000000 1.0
C      1  0.4823850000000  0.5096580000000  0.5444320000000 1.0
C      1  0.5443980000000  0.4612130000000  0.5502430000000 1.0
C      1  0.4417270000000  0.4763550000000  0.4398780000000 1.0
C      1  0.5250550000000  0.5092390000000  0.4661810000000 1.0
C      1  0.4928150000000  0.4993300000000  0.4343090000000 1.0
C      1  0.5234690000000  0.5729290000000  0.5385760000000 1.0
C      1  0.4670200000000  0.4782590000000  0.4705380000000 1.0
C      1  0.5336850000000  0.4394060000000  0.4636740000000 1.0
C      1  0.4923590000000  0.4620870000000  0.5048260000000 1.0
C      1  0.4716960000000  0.5459220000000  0.4584830000000 1.0
C      1  0.5685560000000  0.4945140000000  0.5079820000000 1.0
C      1  0.5321660000000  0.5513580000000  0.4961160000000 1.0
C      1  0.5616960000000  0.5169810000000  0.4522920000000 1.0
C      1  0.5498340000000  0.5067090000000  0.5340730000000 1.0
C      1  0.5315290000000  0.5090760000000  0.5084820000000 1.0
C      1  0.5130690000000  0.5465590000000  0.4689670000000 1.0
C      1  0.5072530000000  0.4920940000000  0.5635860000000 1.0
C      1  0.4639350000000  0.4744660000000  0.5466730000000 1.0
C      1  0.4787350000000  0.5576050000000  0.4855730000000 1.0
C      1  0.4699150000000  0.4845540000000  0.4385220000000 1.0
C      1  0.4345140000000  0.4700040000000  0.4711040000000 1.0
C      1  0.5427660000000  0.5566880000000  0.5252450000000 1.0
C      1  0.4648690000000  0.4746980000000  0.5145700000000 1.0
C      1  0.4712600000000  0.5017020000000  0.4948740000000 1.0
END
