TITL C-1154808-8168-605 0.00153589622067236 125000 -329.586896667901 0 0 60 (C1) n - 1
REM
REM in /home/nfs/bkarasulu/CARBON/AIRSS/Generating-Clusters/AIREBO/Higher-Symm/Only-C60
REM
REM
REM
REM
REM
REM ./C.cell (28575a23ae977d3b5fae324c64b13b57)
REM
REM compiler GCC version 9.2.1 20190827 (Red Hat 9.2.1-1)
REM options -cpp -mtune=generic -march=x86-64 -g -O0 -fpre-include=/usr/include/finclude/math-vector-fortran.h
REM seed -353461306 1271040874 159855727 1656191921 936417059 1882220919 -1705195536 -1492373526 -1758623969 251873719 -2060238500 -1386717393 -335941272 1868779847 2548659 1193250200 -1578122558 1227594908 1922498603 728386691 1377624253 1021812336 625805206 -30317973 1659112457 -1878866478 106813438 -1159009998 -1774841637 1286413285 -364310179 783211536 -1019446020
REM
CELL 1.54180   50.00000   50.00000   50.00000   90.00000   90.00000   90.00000
LATT -1
SFAC C  
C      1  0.5081660000000  0.5765600000000  0.4926260000000 1.0
C      1  0.4318270000000  0.4630380000000  0.4877230000000 1.0
C      1  0.5639090000000  0.4585920000000  0.4861200000000 1.0
C      1  0.5057940000000  0.5731390000000  0.5174040000000 1.0
C      1  0.4326840000000  0.4700620000000  0.5119510000000 1.0
C      1  0.5642060000000  0.4570810000000  0.5111770000000 1.0
C      1  0.4245960000000  0.5033650000000  0.4870630000000 1.0
C      1  0.5293850000000  0.4384760000000  0.4851140000000 1.0
C      1  0.5519160000000  0.5501880000000  0.4829240000000 1.0
C      1  0.4333450000000  0.5170140000000  0.5115610000000 1.0
C      1  0.5283490000000  0.4380150000000  0.5160520000000 1.0
C      1  0.5552280000000  0.5450910000000  0.5125220000000 1.0
C      1  0.5190560000000  0.4893600000000  0.5698300000000 1.0
C      1  0.5045640000000  0.5194050000000  0.5672890000000 1.0
C      1  0.4852370000000  0.4925450000000  0.5668800000000 1.0
C      1  0.5174000000000  0.4931140000000  0.4277630000000 1.0
C      1  0.5020930000000  0.5236190000000  0.4297070000000 1.0
C      1  0.4843600000000  0.4946800000000  0.4331100000000 1.0
C      1  0.4984900000000  0.4372590000000  0.4894470000000 1.0
C      1  0.5552400000000  0.5152260000000  0.4859320000000 1.0
C      1  0.4635440000000  0.5444000000000  0.4787010000000 1.0
C      1  0.4884400000000  0.4371220000000  0.5144520000000 1.0
C      1  0.5548510000000  0.5117250000000  0.5185830000000 1.0
C      1  0.4501100000000  0.5419320000000  0.5034460000000 1.0
C      1  0.4986910000000  0.5210730000000  0.4828220000000 1.0
C      1  0.4734950000000  0.4904200000000  0.4868570000000 1.0
C      1  0.5128650000000  0.4839710000000  0.4868510000000 1.0
C      1  0.4983250000000  0.5235900000000  0.5092450000000 1.0
C      1  0.4723320000000  0.4935640000000  0.5135920000000 1.0
C      1  0.5114890000000  0.4860690000000  0.5131710000000 1.0
C      1  0.4562960000000  0.4318130000000  0.4912460000000 1.0
C      1  0.5868690000000  0.4911630000000  0.4879270000000 1.0
C      1  0.4685910000000  0.5816530000000  0.4917240000000 1.0
C      1  0.4487490000000  0.4337200000000  0.5156010000000 1.0
C      1  0.5874350000000  0.4893590000000  0.5134870000000 1.0
C      1  0.4660550000000  0.5761910000000  0.5165520000000 1.0
C      1  0.5595850000000  0.4828860000000  0.5319670000000 1.0
C      1  0.4839880000000  0.5545300000000  0.5356970000000 1.0
C      1  0.4551460000000  0.4606200000000  0.5353960000000 1.0
C      1  0.5594140000000  0.4863910000000  0.4683820000000 1.0
C      1  0.4876570000000  0.5636310000000  0.4700360000000 1.0
C      1  0.4571310000000  0.4551030000000  0.4664290000000 1.0
C      1  0.5184230000000  0.4549980000000  0.5371220000000 1.0
C      1  0.5325270000000  0.5411190000000  0.5334890000000 1.0
C      1  0.4449670000000  0.5086410000000  0.5414510000000 1.0
C      1  0.5198080000000  0.4560160000000  0.4592740000000 1.0
C      1  0.5301400000000  0.5387690000000  0.4656130000000 1.0
C      1  0.4419040000000  0.4996360000000  0.4642710000000 1.0
C      1  0.5344130000000  0.4742340000000  0.5505040000000 1.0
C      1  0.5094090000000  0.5425250000000  0.5518130000000 1.0
C      1  0.4612590000000  0.4868440000000  0.5531670000000 1.0
C      1  0.5336130000000  0.4785440000000  0.4478770000000 1.0
C      1  0.5068770000000  0.5451190000000  0.4497030000000 1.0
C      1  0.4638820000000  0.4829150000000  0.4480540000000 1.0
C      1  0.5231830000000  0.5119920000000  0.5238930000000 1.0
C      1  0.4698420000000  0.5253820000000  0.5253710000000 1.0
C      1  0.4878500000000  0.4677000000000  0.5293130000000 1.0
C      1  0.5263680000000  0.5080210000000  0.4738840000000 1.0
C      1  0.4692460000000  0.5167020000000  0.4684900000000 1.0
C      1  0.4893910000000  0.4640860000000  0.4723530000000 1.0
END
