TITL C-1154821-8623-287 0.000152658990278028 125000 -331.91294002529 0 0 60 (C5) n - 1
REM
REM in /home/nfs/bkarasulu/CARBON/AIRSS/Generating-Clusters/AIREBO/Higher-Symm/Only-C60
REM
REM
REM
REM
REM
REM ./C.cell (28575a23ae977d3b5fae324c64b13b57)
REM
REM compiler GCC version 9.2.1 20190827 (Red Hat 9.2.1-1)
REM options -cpp -mtune=generic -march=x86-64 -g -O0 -fpre-include=/usr/include/finclude/math-vector-fortran.h
REM seed 918138562 398889166 -1048900906 1970391265 -459694771 -497870670 -1884151286 -1929960899 -2041932529 993705058 -1544978500 -215842612 -761773506 2065488241 1456538692 1920720982 -574059974 1745397713 -1726373371 -1696775976 -1137791288 -588424726 1316512814 -310903656 274312327 920255932 2070953043 -164625872 -218179935 740013155 988016031 28207121 239131931
REM
CELL 1.54180   50.00000   50.00000   50.00000   90.00000   90.00000   90.00000
LATT -1
SFAC C  
C      1  0.4905520000000  0.4516070000000  0.5449520000000 1.0
C      1  0.4905290000000  0.5277940000000  0.5599110000000 1.0
C      1  0.4904800000000  0.5655620000000  0.4920810000000 1.0
C      1  0.4904830000000  0.5127220000000  0.4352020000000 1.0
C      1  0.4905150000000  0.4422940000000  0.4678780000000 1.0
C      1  0.4296870000000  0.4959180000000  0.4759310000000 1.0
C      1  0.4297030000000  0.4757990000000  0.4964400000000 1.0
C      1  0.4297100000000  0.4890870000000  0.5219130000000 1.0
C      1  0.4296970000000  0.5174190000000  0.5171460000000 1.0
C      1  0.4296830000000  0.5216410000000  0.4887280000000 1.0
C      1  0.5062920000000  0.4898110000000  0.5818680000000 1.0
C      1  0.5062270000000  0.5747270000000  0.5349920000000 1.0
C      1  0.5061920000000  0.5563800000000  0.4397430000000 1.0
C      1  0.5062330000000  0.4601240000000  0.4277740000000 1.0
C      1  0.5062700000000  0.4189690000000  0.5156080000000 1.0
C      1  0.5342030000000  0.5192110000000  0.4083400000000 1.0
C      1  0.5342330000000  0.4187440000000  0.4534050000000 1.0
C      1  0.5343000000000  0.4306090000000  0.5628470000000 1.0
C      1  0.5342630000000  0.5383650000000  0.5854230000000 1.0
C      1  0.5341840000000  0.5931380000000  0.4899030000000 1.0
C      1  0.4467360000000  0.5331500000000  0.5326110000000 1.0
C      1  0.4467060000000  0.5412230000000  0.4785450000000 1.0
C      1  0.4467170000000  0.4922980000000  0.4541630000000 1.0
C      1  0.4467450000000  0.4539870000000  0.4931580000000 1.0
C      1  0.4467600000000  0.4792370000000  0.5416420000000 1.0
C      1  0.4864900000000  0.5002660000000  0.5663390000000 1.0
C      1  0.4864410000000  0.5631670000000  0.5202450000000 1.0
C      1  0.4864170000000  0.5387680000000  0.4461750000000 1.0
C      1  0.4864510000000  0.4607860000000  0.4465050000000 1.0
C      1  0.4864830000000  0.4369820000000  0.5207670000000 1.0
C      1  0.5570650000000  0.5643280000000  0.5408040000000 1.0
C      1  0.5570220000000  0.5587200000000  0.4514430000000 1.0
C      1  0.5570610000000  0.4720070000000  0.4291680000000 1.0
C      1  0.5570910000000  0.4239940000000  0.5047420000000 1.0
C      1  0.5571200000000  0.4810640000000  0.5737160000000 1.0
C      1  0.4772800000000  0.4894360000000  0.4527970000000 1.0
C      1  0.4773070000000  0.4518140000000  0.4954610000000 1.0
C      1  0.4773230000000  0.4807760000000  0.5444140000000 1.0
C      1  0.4772960000000  0.5362850000000  0.5320040000000 1.0
C      1  0.4772660000000  0.5416410000000  0.4753740000000 1.0
C      1  0.5227020000000  0.4363780000000  0.4716390000000 1.0
C      1  0.5227400000000  0.4533900000000  0.5517190000000 1.0
C      1  0.5227120000000  0.5348140000000  0.5603160000000 1.0
C      1  0.5226590000000  0.5681490000000  0.4855310000000 1.0
C      1  0.5226700000000  0.5073140000000  0.4307430000000 1.0
C      1  0.4973150000000  0.5095540000000  0.5252700000000 1.0
C      1  0.4973130000000  0.5269890000000  0.4987270000000 1.0
C      1  0.4972780000000  0.5071170000000  0.4739460000000 1.0
C      1  0.4973260000000  0.4774130000000  0.4851700000000 1.0
C      1  0.4973060000000  0.4789230000000  0.5169000000000 1.0
C      1  0.5209390000000  0.4572330000000  0.5198900000000 1.0
C      1  0.5209430000000  0.5057350000000  0.5468150000000 1.0
C      1  0.5209150000000  0.5463270000000  0.5090190000000 1.0
C      1  0.5208900000000  0.5229130000000  0.4587540000000 1.0
C      1  0.5209270000000  0.4678380000000  0.4654730000000 1.0
C      1  0.5308460000000  0.4324990000000  0.5007240000000 1.0
C      1  0.5308740000000  0.4798580000000  0.5643940000000 1.0
C      1  0.5308290000000  0.5550600000000  0.5390630000000 1.0
C      1  0.5307870000000  0.5541910000000  0.4597150000000 1.0
C      1  0.5308200000000  0.4784520000000  0.4360340000000 1.0
END
