TITL C-1154802-8274-33 -0.000431982850384418 125000 -333.308702507411 0 0 60 (C1) n - 1
REM
REM in /home/nfs/bkarasulu/CARBON/AIRSS/Generating-Clusters/AIREBO/Higher-Symm/Only-C60
REM
REM
REM
REM
REM
REM ./C.cell (28575a23ae977d3b5fae324c64b13b57)
REM
REM compiler GCC version 9.2.1 20190827 (Red Hat 9.2.1-1)
REM options -cpp -mtune=generic -march=x86-64 -g -O0 -fpre-include=/usr/include/finclude/math-vector-fortran.h
REM seed -2026925875 -1003993599 1452924129 1630249313 873957628 919486773 30286416 -290316362 -1995950674 -1078162625 -49240691 -561666389 847407496 991385484 -891740237 -588529206 286671144 -1060365149 784844176 -1809475831 995135380 621949127 -1659822670 -654617027 -1812900197 -804899734 700133358 1474811897 -1770716948 218123765 168060890 1408611859 -919957545
REM
CELL 1.54180   50.00000   50.00000   50.00000   90.00000   90.00000   90.00000
LATT -1
SFAC C  
C      1  0.5359330000000  0.4801550000000  0.4481700000000 1.0
C      1  0.5424990000000  0.4501230000000  0.4954610000000 1.0
C      1  0.5446970000000  0.4703740000000  0.5393560000000 1.0
C      1  0.5406650000000  0.5185400000000  0.5455040000000 1.0
C      1  0.5378080000000  0.5569330000000  0.5098710000000 1.0
C      1  0.5281080000000  0.5293300000000  0.4605320000000 1.0
C      1  0.4624620000000  0.4856590000000  0.4445150000000 1.0
C      1  0.4549640000000  0.4498540000000  0.4878150000000 1.0
C      1  0.4549230000000  0.4638320000000  0.5340450000000 1.0
C      1  0.4615820000000  0.5105560000000  0.5463760000000 1.0
C      1  0.4643020000000  0.5529400000000  0.5163340000000 1.0
C      1  0.4720080000000  0.5323020000000  0.4638370000000 1.0
C      1  0.4196160000000  0.4864320000000  0.5330670000000 1.0
C      1  0.4254670000000  0.5258860000000  0.5359070000000 1.0
C      1  0.4364640000000  0.5317440000000  0.4979470000000 1.0
C      1  0.4336880000000  0.5217360000000  0.4594670000000 1.0
C      1  0.4365190000000  0.4827050000000  0.4745020000000 1.0
C      1  0.4115750000000  0.4551570000000  0.5102830000000 1.0
C      1  0.5808460000000  0.4910490000000  0.5347910000000 1.0
C      1  0.5763030000000  0.5310790000000  0.5323780000000 1.0
C      1  0.5642850000000  0.5320580000000  0.4942880000000 1.0
C      1  0.5659670000000  0.5168120000000  0.4574710000000 1.0
C      1  0.5627190000000  0.4796350000000  0.4776010000000 1.0
C      1  0.5869250000000  0.4567960000000  0.5159990000000 1.0
C      1  0.4076700000000  0.5294170000000  0.4796140000000 1.0
C      1  0.4086570000000  0.5001590000000  0.4653200000000 1.0
C      1  0.4052790000000  0.4753340000000  0.4853010000000 1.0
C      1  0.3915100000000  0.4829000000000  0.5148490000000 1.0
C      1  0.3956820000000  0.5111070000000  0.5307880000000 1.0
C      1  0.4054870000000  0.5361560000000  0.5112530000000 1.0
C      1  0.5923820000000  0.5261290000000  0.4760790000000 1.0
C      1  0.5905010000000  0.4953580000000  0.4656170000000 1.0
C      1  0.5940900000000  0.4730690000000  0.4884370000000 1.0
C      1  0.6082250000000  0.4840260000000  0.5166300000000 1.0
C      1  0.6053500000000  0.5143400000000  0.5287110000000 1.0
C      1  0.5959200000000  0.5370420000000  0.5062410000000 1.0
C      1  0.4497790000000  0.4569030000000  0.4575030000000 1.0
C      1  0.4397080000000  0.4517260000000  0.5122610000000 1.0
C      1  0.4432930000000  0.4883210000000  0.5474020000000 1.0
C      1  0.4508450000000  0.5374110000000  0.5400200000000 1.0
C      1  0.4592270000000  0.5498780000000  0.4828440000000 1.0
C      1  0.4561720000000  0.5148840000000  0.4432610000000 1.0
C      1  0.5473760000000  0.4528090000000  0.4646980000000 1.0
C      1  0.5587630000000  0.4549200000000  0.5189470000000 1.0
C      1  0.5577010000000  0.4957840000000  0.5492320000000 1.0
C      1  0.5514450000000  0.5443400000000  0.5352680000000 1.0
C      1  0.5418580000000  0.5487690000000  0.4771040000000 1.0
C      1  0.5430590000000  0.5086500000000  0.4425530000000 1.0
C      1  0.4832870000000  0.4698430000000  0.5249120000000 1.0
C      1  0.4857660000000  0.5020900000000  0.5284970000000 1.0
C      1  0.4672860000000  0.5201050000000  0.5080170000000 1.0
C      1  0.4853220000000  0.5113450000000  0.4827560000000 1.0
C      1  0.4707950000000  0.4847110000000  0.4766490000000 1.0
C      1  0.4842120000000  0.4610720000000  0.4932030000000 1.0
C      1  0.5162030000000  0.4764170000000  0.5304910000000 1.0
C      1  0.5155490000000  0.5094970000000  0.5300170000000 1.0
C      1  0.5332080000000  0.5234090000000  0.5065430000000 1.0
C      1  0.5150450000000  0.5117030000000  0.4827570000000 1.0
C      1  0.5288560000000  0.4843640000000  0.4803860000000 1.0
C      1  0.5141650000000  0.4643270000000  0.5003210000000 1.0
END
