TITL C-1154823-9327-409 -0.00191995983507608 125000 -334.279211825186 0 0 60 (C1) n - 1
REM
REM in /home/nfs/bkarasulu/CARBON/AIRSS/Generating-Clusters/AIREBO/Higher-Symm/Only-C60
REM
REM
REM
REM
REM
REM ./C.cell (28575a23ae977d3b5fae324c64b13b57)
REM
REM compiler GCC version 9.2.1 20190827 (Red Hat 9.2.1-1)
REM options -cpp -mtune=generic -march=x86-64 -g -O0 -fpre-include=/usr/include/finclude/math-vector-fortran.h
REM seed -1822581368 771707930 -309170319 213026515 177751776 1193688330 1550603665 993970211 1366731185 1174001699 1009341451 2001555937 -1131435280 -1730398428 -1843405564 1377971986 -227136398 1784902752 -601078200 1573002855 -1950502237 -226077653 -793641365 -539951385 -801257693 1739885788 658152538 1987111936 -1214373914 703680263 -879916503 -1053068514 -391762847
REM
CELL 1.54180   50.00000   50.00000   50.00000   90.00000   90.00000   90.00000
LATT -1
SFAC C  
C      1  0.4787310000000  0.4673930000000  0.5183530000000 1.0
C      1  0.4742470000000  0.4794050000000  0.4875270000000 1.0
C      1  0.4779270000000  0.5124000000000  0.4815300000000 1.0
C      1  0.4818510000000  0.5222350000000  0.5110860000000 1.0
C      1  0.4758030000000  0.4983140000000  0.5284300000000 1.0
C      1  0.5549850000000  0.5223740000000  0.5006140000000 1.0
C      1  0.5576890000000  0.5082290000000  0.5257310000000 1.0
C      1  0.5582930000000  0.4794540000000  0.5199300000000 1.0
C      1  0.5654100000000  0.4759700000000  0.4916360000000 1.0
C      1  0.5606430000000  0.5040530000000  0.4792970000000 1.0
C      1  0.5205510000000  0.4968010000000  0.5597040000000 1.0
C      1  0.5135680000000  0.4395390000000  0.5047250000000 1.0
C      1  0.5150230000000  0.4719810000000  0.4427790000000 1.0
C      1  0.5182090000000  0.5451030000000  0.4520620000000 1.0
C      1  0.5142300000000  0.5603760000000  0.5385130000000 1.0
C      1  0.5239940000000  0.5365560000000  0.5580580000000 1.0
C      1  0.5235000000000  0.4652910000000  0.5528190000000 1.0
C      1  0.5219750000000  0.4485060000000  0.4748900000000 1.0
C      1  0.5154530000000  0.5028750000000  0.4327390000000 1.0
C      1  0.5198640000000  0.5549640000000  0.4811010000000 1.0
C      1  0.4916690000000  0.4470120000000  0.4629650000000 1.0
C      1  0.4885250000000  0.5133110000000  0.4316700000000 1.0
C      1  0.4942230000000  0.5653900000000  0.4888960000000 1.0
C      1  0.4951280000000  0.5308400000000  0.5619910000000 1.0
C      1  0.4979730000000  0.4549700000000  0.5621770000000 1.0
C      1  0.4870550000000  0.5397660000000  0.4452560000000 1.0
C      1  0.4881500000000  0.5632490000000  0.5174950000000 1.0
C      1  0.4875180000000  0.5011200000000  0.5665170000000 1.0
C      1  0.4845760000000  0.4278030000000  0.5030410000000 1.0
C      1  0.4833980000000  0.4663220000000  0.4411270000000 1.0
C      1  0.4747840000000  0.5554940000000  0.4685970000000 1.0
C      1  0.4776140000000  0.5452360000000  0.5435230000000 1.0
C      1  0.4769860000000  0.4748200000000  0.5607650000000 1.0
C      1  0.4720510000000  0.4390680000000  0.4814510000000 1.0
C      1  0.4697480000000  0.4901290000000  0.4338330000000 1.0
C      1  0.4525620000000  0.5374090000000  0.5064770000000 1.0
C      1  0.4480430000000  0.5023380000000  0.5443350000000 1.0
C      1  0.4360380000000  0.4566470000000  0.5144780000000 1.0
C      1  0.4337920000000  0.4715580000000  0.4609610000000 1.0
C      1  0.4489440000000  0.5172090000000  0.4640730000000 1.0
C      1  0.5122180000000  0.5317120000000  0.5203000000000 1.0
C      1  0.5093040000000  0.4986200000000  0.5276510000000 1.0
C      1  0.5096830000000  0.4733340000000  0.5048960000000 1.0
C      1  0.5040320000000  0.4837190000000  0.4729000000000 1.0
C      1  0.5093880000000  0.5171170000000  0.4693030000000 1.0
C      1  0.5345040000000  0.4655160000000  0.5267880000000 1.0
C      1  0.5413690000000  0.4698490000000  0.4727890000000 1.0
C      1  0.5371900000000  0.5005980000000  0.4587930000000 1.0
C      1  0.5319260000000  0.5379430000000  0.4987110000000 1.0
C      1  0.5444130000000  0.5173940000000  0.5482190000000 1.0
C      1  0.5302990000000  0.4961770000000  0.5885910000000 1.0
C      1  0.5322120000000  0.4232340000000  0.5174530000000 1.0
C      1  0.5293540000000  0.4561840000000  0.4236970000000 1.0
C      1  0.5361540000000  0.5557420000000  0.4342490000000 1.0
C      1  0.5263040000000  0.5846090000000  0.5443810000000 1.0
C      1  0.4459010000000  0.4943290000000  0.4486210000000 1.0
C      1  0.4516970000000  0.5424090000000  0.4792070000000 1.0
C      1  0.4525800000000  0.5315120000000  0.5365460000000 1.0
C      1  0.4520850000000  0.4688790000000  0.5397710000000 1.0
C      1  0.4486640000000  0.4596130000000  0.4859840000000 1.0
END
