TITL C-1154802-8274-575 -0.00167096118864266 125000 -326.849190627377 0 0 60 (C1) n - 1
REM
REM in /home/nfs/bkarasulu/CARBON/AIRSS/Generating-Clusters/AIREBO/Higher-Symm/Only-C60
REM
REM
REM
REM
REM
REM ./C.cell (28575a23ae977d3b5fae324c64b13b57)
REM
REM compiler GCC version 9.2.1 20190827 (Red Hat 9.2.1-1)
REM options -cpp -mtune=generic -march=x86-64 -g -O0 -fpre-include=/usr/include/finclude/math-vector-fortran.h
REM seed -578815273 -1269558750 1655360155 1036898645 1154059667 1151836005 -335603349 -300878441 1697499669 1379384566 -1753672725 -1774599353 -1262766110 -242841394 1893586010 2060136553 305350308 -1396515480 123760695 -577659752 -1027924136 1485442947 1638854398 -1038641565 522044384 191192339 -1254829392 -910760431 1138908337 -146436512 -1361357215 -6180015 -748882209
REM
CELL 1.54180   50.00000   50.00000   50.00000   90.00000   90.00000   90.00000
LATT -1
SFAC C  
C      1  0.4872870000000  0.5494060000000  0.4778870000000 1.0
C      1  0.5540280000000  0.4856250000000  0.4912800000000 1.0
C      1  0.4845830000000  0.4900750000000  0.5449840000000 1.0
C      1  0.4868060000000  0.4566560000000  0.5132630000000 1.0
C      1  0.5167360000000  0.5473810000000  0.5174290000000 1.0
C      1  0.5259260000000  0.4709050000000  0.4881230000000 1.0
C      1  0.5420990000000  0.5290740000000  0.5146700000000 1.0
C      1  0.4681140000000  0.4847580000000  0.5157170000000 1.0
C      1  0.4564440000000  0.5082960000000  0.4855860000000 1.0
C      1  0.4845790000000  0.5164500000000  0.4709230000000 1.0
C      1  0.5114130000000  0.4872930000000  0.4657090000000 1.0
C      1  0.5166540000000  0.5123460000000  0.5519390000000 1.0
C      1  0.5148200000000  0.5579930000000  0.4866880000000 1.0
C      1  0.4474140000000  0.4786980000000  0.4862900000000 1.0
C      1  0.5174320000000  0.4825890000000  0.5406910000000 1.0
C      1  0.5146880000000  0.4626570000000  0.5147910000000 1.0
C      1  0.4864200000000  0.5424070000000  0.5100640000000 1.0
C      1  0.4738620000000  0.4588260000000  0.4859520000000 1.0
C      1  0.4679050000000  0.5165790000000  0.5135530000000 1.0
C      1  0.5671990000000  0.4777360000000  0.5164400000000 1.0
C      1  0.5452850000000  0.5163520000000  0.4881720000000 1.0
C      1  0.5177550000000  0.5167790000000  0.4702300000000 1.0
C      1  0.4808150000000  0.4833990000000  0.4648480000000 1.0
C      1  0.4847290000000  0.5174210000000  0.5616860000000 1.0
C      1  0.5230790000000  0.5388720000000  0.4475910000000 1.0
C      1  0.5385200000000  0.4417150000000  0.5213220000000 1.0
C      1  0.4462390000000  0.5242690000000  0.5356010000000 1.0
C      1  0.5249180000000  0.4512280000000  0.5514900000000 1.0
C      1  0.4689520000000  0.5451400000000  0.5499040000000 1.0
C      1  0.4721610000000  0.4561250000000  0.4464750000000 1.0
C      1  0.5430990000000  0.5552680000000  0.4696480000000 1.0
C      1  0.4492130000000  0.4428690000000  0.4689590000000 1.0
C      1  0.4558490000000  0.5537590000000  0.5197360000000 1.0
C      1  0.4438350000000  0.4733200000000  0.4541410000000 1.0
C      1  0.5539210000000  0.5257700000000  0.4566500000000 1.0
C      1  0.5568630000000  0.4597640000000  0.5435490000000 1.0
C      1  0.4731000000000  0.5403400000000  0.4438190000000 1.0
C      1  0.4560110000000  0.4478010000000  0.5246320000000 1.0
C      1  0.5540020000000  0.5195480000000  0.5398630000000 1.0
C      1  0.4749950000000  0.4585690000000  0.5512730000000 1.0
C      1  0.5328360000000  0.5422370000000  0.5534680000000 1.0
C      1  0.5229110000000  0.4609360000000  0.4497060000000 1.0
C      1  0.4559630000000  0.5518440000000  0.4708430000000 1.0
C      1  0.5432300000000  0.4464580000000  0.4728300000000 1.0
C      1  0.5422300000000  0.5656140000000  0.5306100000000 1.0
C      1  0.5524490000000  0.4760320000000  0.4587820000000 1.0
C      1  0.4475910000000  0.5218570000000  0.4566130000000 1.0
C      1  0.4461310000000  0.4745840000000  0.5431150000000 1.0
C      1  0.5011010000000  0.5472920000000  0.5603530000000 1.0
C      1  0.4979920000000  0.4437240000000  0.5611560000000 1.0
C      1  0.4993340000000  0.5453910000000  0.4329740000000 1.0
C      1  0.4421700000000  0.5617360000000  0.4949610000000 1.0
C      1  0.5497580000000  0.4311510000000  0.4971450000000 1.0
C      1  0.4357340000000  0.5010840000000  0.5489230000000 1.0
C      1  0.5558580000000  0.4931650000000  0.5416520000000 1.0
C      1  0.5623830000000  0.5000600000000  0.4452100000000 1.0
C      1  0.4995430000000  0.4478100000000  0.4379690000000 1.0
C      1  0.4366160000000  0.4983660000000  0.4420200000000 1.0
C      1  0.4441400000000  0.4361650000000  0.4999260000000 1.0
C      1  0.5442790000000  0.5704360000000  0.5001730000000 1.0
END
