TITL C-1154810-7815-459 0.00264908757854377 125000 -343.602614252587 0 0 60 (C1) n - 1
REM
REM in /home/nfs/bkarasulu/CARBON/AIRSS/Generating-Clusters/AIREBO/Higher-Symm/Only-C60
REM
REM
REM
REM
REM
REM ./C.cell (28575a23ae977d3b5fae324c64b13b57)
REM
REM compiler GCC version 9.2.1 20190827 (Red Hat 9.2.1-1)
REM options -cpp -mtune=generic -march=x86-64 -g -O0 -fpre-include=/usr/include/finclude/math-vector-fortran.h
REM seed 352024795 565475685 -857507633 -249248637 583674370 115055266 1513472545 -2111153067 1490054391 839551921 152685593 1441378292 -2100924839 -381806428 849885987 1637568773 1884911213 -1998471132 -66021540 -1335638843 -973838139 -783395625 -2033515445 -2088018047 1325291250 -1010348811 -851679620 -724142075 841432027 1634417846 -1265059340 -822677830 -937171098
REM
CELL 1.54180   50.00000   50.00000   50.00000   90.00000   90.00000   90.00000
LATT -1
SFAC C  
C      1  0.5138200000000  0.4720650000000  0.5017560000000 1.0
C      1  0.5047150000000  0.5239790000000  0.4972880000000 1.0
C      1  0.4563250000000  0.4849970000000  0.4311280000000 1.0
C      1  0.4601490000000  0.5177500000000  0.5683560000000 1.0
C      1  0.5222320000000  0.4772910000000  0.6076240000000 1.0
C      1  0.5211110000000  0.5144320000000  0.3914510000000 1.0
C      1  0.4526000000000  0.5250820000000  0.5940690000000 1.0
C      1  0.4446080000000  0.4807670000000  0.4063390000000 1.0
C      1  0.5144080000000  0.4232570000000  0.5011790000000 1.0
C      1  0.5108460000000  0.5741560000000  0.4994120000000 1.0
C      1  0.5417050000000  0.4190660000000  0.4996220000000 1.0
C      1  0.5377450000000  0.5751240000000  0.5041400000000 1.0
C      1  0.4962540000000  0.4524680000000  0.5473820000000 1.0
C      1  0.4950930000000  0.5486910000000  0.4505130000000 1.0
C      1  0.4729680000000  0.4929270000000  0.5646470000000 1.0
C      1  0.4703580000000  0.5089490000000  0.4358310000000 1.0
C      1  0.5695300000000  0.5030660000000  0.5591150000000 1.0
C      1  0.5647150000000  0.4941660000000  0.4453810000000 1.0
C      1  0.4835760000000  0.4287220000000  0.5020120000000 1.0
C      1  0.4804100000000  0.5724060000000  0.4950610000000 1.0
C      1  0.4478030000000  0.5331110000000  0.6185520000000 1.0
C      1  0.4357580000000  0.4756450000000  0.3822070000000 1.0
C      1  0.5009390000000  0.4291510000000  0.5623770000000 1.0
C      1  0.5029850000000  0.5719000000000  0.4369270000000 1.0
C      1  0.4546130000000  0.5664540000000  0.5026460000000 1.0
C      1  0.4577900000000  0.4350100000000  0.4950100000000 1.0
C      1  0.5577480000000  0.4398810000000  0.4900240000000 1.0
C      1  0.5491480000000  0.5515710000000  0.5139780000000 1.0
C      1  0.5614850000000  0.4935590000000  0.4939490000000 1.0
C      1  0.5562950000000  0.5122420000000  0.5126770000000 1.0
C      1  0.4518850000000  0.5536190000000  0.5275400000000 1.0
C      1  0.4530820000000  0.4466520000000  0.4700090000000 1.0
C      1  0.5735450000000  0.5455220000000  0.5265660000000 1.0
C      1  0.5776700000000  0.4538410000000  0.4726280000000 1.0
C      1  0.4544080000000  0.5351720000000  0.5470940000000 1.0
C      1  0.4534590000000  0.4659580000000  0.4513240000000 1.0
C      1  0.4666250000000  0.4666270000000  0.5508730000000 1.0
C      1  0.4644100000000  0.5372360000000  0.4452840000000 1.0
C      1  0.5434350000000  0.4679680000000  0.4908880000000 1.0
C      1  0.5277620000000  0.5270060000000  0.5174230000000 1.0
C      1  0.4368570000000  0.5622000000000  0.4811100000000 1.0
C      1  0.4402460000000  0.4394390000000  0.5166100000000 1.0
C      1  0.5181940000000  0.5239040000000  0.5438900000000 1.0
C      1  0.5227020000000  0.4704480000000  0.4658550000000 1.0
C      1  0.5427940000000  0.5020740000000  0.4319020000000 1.0
C      1  0.5465070000000  0.4949250000000  0.5706720000000 1.0
C      1  0.4507110000000  0.5092140000000  0.5107480000000 1.0
C      1  0.4790800000000  0.4881470000000  0.4725020000000 1.0
C      1  0.4451500000000  0.4534260000000  0.5395950000000 1.0
C      1  0.4436520000000  0.5513710000000  0.4568510000000 1.0
C      1  0.5736840000000  0.4820670000000  0.4689690000000 1.0
C      1  0.5748280000000  0.5174230000000  0.5359420000000 1.0
C      1  0.4999870000000  0.5491750000000  0.4802380000000 1.0
C      1  0.5032590000000  0.4498920000000  0.5184180000000 1.0
C      1  0.5009860000000  0.4802280000000  0.5650330000000 1.0
C      1  0.4983830000000  0.5211860000000  0.4326990000000 1.0
C      1  0.4752870000000  0.5165570000000  0.5104580000000 1.0
C      1  0.4993690000000  0.4939260000000  0.4882870000000 1.0
C      1  0.5233700000000  0.4840860000000  0.5814880000000 1.0
C      1  0.5209470000000  0.5128260000000  0.4184500000000 1.0
END
