TITL C-1154810-7815-608 3.01168410154937e-06 125000 -321.194230575017 0 0 60 (C1) n - 1
REM
REM in /home/nfs/bkarasulu/CARBON/AIRSS/Generating-Clusters/AIREBO/Higher-Symm/Only-C60
REM
REM
REM
REM
REM
REM ./C.cell (28575a23ae977d3b5fae324c64b13b57)
REM
REM compiler GCC version 9.2.1 20190827 (Red Hat 9.2.1-1)
REM options -cpp -mtune=generic -march=x86-64 -g -O0 -fpre-include=/usr/include/finclude/math-vector-fortran.h
REM seed -1864809281 972845404 -699604698 -614465867 2001025659 1879153159 1766052516 997142964 979752763 1997042605 -625701821 -1727173858 1838270491 -591720244 464761960 373700130 1844871311 -1738122239 263937055 -1205837500 -1343302587 101210449 602603504 -2010021760 1324908738 1896859450 -799279022 2045384865 -515179166 99609346 1445054465 1120793567 -1990261805
REM
CELL 1.54180   50.00000   50.00000   50.00000   90.00000   90.00000   90.00000
LATT -1
SFAC C  
C      1  0.4835000000000  0.4665310000000  0.5256390000000 1.0
C      1  0.5399310000000  0.4845600000000  0.4667350000000 1.0
C      1  0.4712400000000  0.5490560000000  0.4841580000000 1.0
C      1  0.4843170000000  0.5335700000000  0.4579190000000 1.0
C      1  0.5143360000000  0.5304390000000  0.5423300000000 1.0
C      1  0.5102600000000  0.4696630000000  0.4617990000000 1.0
C      1  0.5407980000000  0.5154940000000  0.5288450000000 1.0
C      1  0.4592660000000  0.5199380000000  0.4739580000000 1.0
C      1  0.4665590000000  0.4909110000000  0.5152230000000 1.0
C      1  0.4765410000000  0.4417110000000  0.5150310000000 1.0
C      1  0.5323740000000  0.4580940000000  0.4840790000000 1.0
C      1  0.5287430000000  0.5434120000000  0.5156700000000 1.0
C      1  0.5109510000000  0.4694800000000  0.5378040000000 1.0
C      1  0.4662040000000  0.4905420000000  0.4848130000000 1.0
C      1  0.5292430000000  0.5435660000000  0.4846430000000 1.0
C      1  0.5150930000000  0.5311150000000  0.4576580000000 1.0
C      1  0.4835630000000  0.5338830000000  0.5419310000000 1.0
C      1  0.4832300000000  0.4660950000000  0.4747660000000 1.0
C      1  0.4587160000000  0.5200010000000  0.5257430000000 1.0
C      1  0.5408590000000  0.5154080000000  0.4713490000000 1.0
C      1  0.5404050000000  0.4845080000000  0.5323830000000 1.0
C      1  0.5325570000000  0.4580790000000  0.5150150000000 1.0
C      1  0.4768180000000  0.4413830000000  0.4859670000000 1.0
C      1  0.4706110000000  0.5491930000000  0.5155850000000 1.0
C      1  0.5068240000000  0.4651000000000  0.5681590000000 1.0
C      1  0.5720610000000  0.5215640000000  0.4666770000000 1.0
C      1  0.4669210000000  0.5798270000000  0.5226680000000 1.0
C      1  0.5221840000000  0.5353750000000  0.4268600000000 1.0
C      1  0.4755410000000  0.5389010000000  0.5720640000000 1.0
C      1  0.4571860000000  0.4658170000000  0.4388260000000 1.0
C      1  0.5682450000000  0.4783340000000  0.5464760000000 1.0
C      1  0.4455900000000  0.4779150000000  0.4609440000000 1.0
C      1  0.4282120000000  0.5191110000000  0.5324430000000 1.0
C      1  0.4719210000000  0.4140630000000  0.4776890000000 1.0
C      1  0.5430940000000  0.4291070000000  0.5224060000000 1.0
C      1  0.5367990000000  0.5736900000000  0.4775270000000 1.0
C      1  0.4592060000000  0.4713110000000  0.5638060000000 1.0
C      1  0.4289180000000  0.5202070000000  0.4667050000000 1.0
C      1  0.5356530000000  0.5735860000000  0.5232860000000 1.0
C      1  0.4764500000000  0.5384670000000  0.4276810000000 1.0
C      1  0.5210120000000  0.5333160000000  0.5734690000000 1.0
C      1  0.5051940000000  0.4664150000000  0.4314110000000 1.0
C      1  0.4469830000000  0.4778100000000  0.5396770000000 1.0
C      1  0.5674080000000  0.4785110000000  0.4519240000000 1.0
C      1  0.5717320000000  0.5222570000000  0.5341660000000 1.0
C      1  0.5427620000000  0.4291590000000  0.4764450000000 1.0
C      1  0.4713920000000  0.4145700000000  0.5237780000000 1.0
C      1  0.4681450000000  0.5797480000000  0.4768360000000 1.0
C      1  0.4224870000000  0.4927480000000  0.5397710000000 1.0
C      1  0.5847370000000  0.5001190000000  0.4543210000000 1.0
C      1  0.5482400000000  0.4142980000000  0.4993700000000 1.0
C      1  0.4991900000000  0.5392280000000  0.4116720000000 1.0
C      1  0.4810430000000  0.4614230000000  0.5766800000000 1.0
C      1  0.4658120000000  0.5953960000000  0.4996800000000 1.0
C      1  0.4221650000000  0.4941020000000  0.4596980000000 1.0
C      1  0.4686420000000  0.3978230000000  0.5008790000000 1.0
C      1  0.4792180000000  0.4665700000000  0.4227670000000 1.0
C      1  0.5849820000000  0.5004870000000  0.5452620000000 1.0
C      1  0.5399040000000  0.5889420000000  0.5005330000000 1.0
C      1  0.4980300000000  0.5380690000000  0.5883980000000 1.0
END
