TITL C-1154804-8633-384 9.19779523296993 125000 -338.836374064607 0 0 60 (C1) n - 1
REM
REM in /home/nfs/bkarasulu/CARBON/AIRSS/Generating-Clusters/AIREBO/Higher-Symm/Only-C60
REM
REM
REM
REM
REM
REM ./C.cell (28575a23ae977d3b5fae324c64b13b57)
REM
REM compiler GCC version 9.2.1 20190827 (Red Hat 9.2.1-1)
REM options -cpp -mtune=generic -march=x86-64 -g -O0 -fpre-include=/usr/include/finclude/math-vector-fortran.h
REM seed -809493664 219447556 -1865706559 -1408999118 -1360746667 1638120017 20390431 1502998531 1650856231 -1086241335 212774949 1972519223 -1637886525 -835329196 1812097259 -317255131 -1548832561 975459205 340613128 385590076 1020714751 -1026479754 -27508820 1536972493 -1184983695 1154714427 -540017541 1636469436 1911298299 -1562362235 -368887229 -36664264 -560656492
REM
CELL 1.54180   50.00000   50.00000   50.00000   90.00000   90.00000   90.00000
LATT -1
SFAC C  
C      1  0.4824350000000  0.5681900000000  0.4479120000000 1.0
C      1  0.5161580000000  0.4393510000000  0.4552400000000 1.0
C      1  0.5122990000000  0.5602600000000  0.4554560000000 1.0
C      1  0.4865320000000  0.4445170000000  0.4484340000000 1.0
C      1  0.4635170000000  0.5135110000000  0.4386730000000 1.0
C      1  0.5280910000000  0.4899050000000  0.4284770000000 1.0
C      1  0.5258390000000  0.5150020000000  0.4297600000000 1.0
C      1  0.4707740000000  0.4916430000000  0.4253930000000 1.0
C      1  0.5251560000000  0.4844020000000  0.4794380000000 1.0
C      1  0.4780920000000  0.5256320000000  0.4860100000000 1.0
C      1  0.4751600000000  0.4726320000000  0.4906860000000 1.0
C      1  0.5237000000000  0.5170010000000  0.4800980000000 1.0
C      1  0.4851410000000  0.4706060000000  0.4351390000000 1.0
C      1  0.5138400000000  0.5289580000000  0.4542310000000 1.0
C      1  0.5152070000000  0.4720960000000  0.4512300000000 1.0
C      1  0.4817410000000  0.5347920000000  0.4541610000000 1.0
C      1  0.5109380000000  0.5686860000000  0.5416870000000 1.0
C      1  0.4844160000000  0.4290830000000  0.5464850000000 1.0
C      1  0.4860110000000  0.5685360000000  0.5422130000000 1.0
C      1  0.5104960000000  0.4317380000000  0.5379610000000 1.0
C      1  0.5129950000000  0.5183180000000  0.5387970000000 1.0
C      1  0.4810390000000  0.4760450000000  0.5470180000000 1.0
C      1  0.4856050000000  0.5289410000000  0.5474960000000 1.0
C      1  0.5130090000000  0.4848720000000  0.5427290000000 1.0
C      1  0.5687850000000  0.4844210000000  0.5300860000000 1.0
C      1  0.4295570000000  0.5087950000000  0.5243740000000 1.0
C      1  0.4297180000000  0.4837910000000  0.5247490000000 1.0
C      1  0.5680750000000  0.5095280000000  0.5309920000000 1.0
C      1  0.4794680000000  0.5186030000000  0.5156890000000 1.0
C      1  0.5152970000000  0.4776560000000  0.5095370000000 1.0
C      1  0.5210570000000  0.5264130000000  0.5092700000000 1.0
C      1  0.4841290000000  0.4880810000000  0.5158700000000 1.0
C      1  0.5323500000000  0.5518520000000  0.5288040000000 1.0
C      1  0.4676360000000  0.4498720000000  0.5422720000000 1.0
C      1  0.4657840000000  0.5470140000000  0.5295650000000 1.0
C      1  0.5258520000000  0.4506550000000  0.5273110000000 1.0
C      1  0.4583560000000  0.5596650000000  0.4926990000000 1.0
C      1  0.5438060000000  0.4364910000000  0.4948360000000 1.0
C      1  0.5408090000000  0.5588950000000  0.4975360000000 1.0
C      1  0.4577130000000  0.4371050000000  0.4950980000000 1.0
C      1  0.5569250000000  0.4566050000000  0.5195600000000 1.0
C      1  0.4412800000000  0.5350150000000  0.5138240000000 1.0
C      1  0.4453690000000  0.4537040000000  0.5221810000000 1.0
C      1  0.5600250000000  0.5358070000000  0.5191360000000 1.0
C      1  0.4828310000000  0.5676760000000  0.4809400000000 1.0
C      1  0.5196730000000  0.4317020000000  0.4831870000000 1.0
C      1  0.5170400000000  0.5695510000000  0.4837500000000 1.0
C      1  0.4867320000000  0.4421340000000  0.4820410000000 1.0
C      1  0.5357590000000  0.4844890000000  0.5677620000000 1.0
C      1  0.4728770000000  0.5163300000000  0.5717860000000 1.0
C      1  0.4688870000000  0.4914680000000  0.5706210000000 1.0
C      1  0.5340020000000  0.5118470000000  0.5631720000000 1.0
C      1  0.5637670000000  0.5361410000000  0.4877350000000 1.0
C      1  0.4370130000000  0.4606940000000  0.4899720000000 1.0
C      1  0.4400370000000  0.5366800000000  0.4821940000000 1.0
C      1  0.5661140000000  0.4581860000000  0.4879310000000 1.0
C      1  0.5579370000000  0.4817440000000  0.4765450000000 1.0
C      1  0.4526230000000  0.5115830000000  0.4683950000000 1.0
C      1  0.4498300000000  0.4839410000000  0.4787260000000 1.0
C      1  0.5546930000000  0.5111520000000  0.4771270000000 1.0
END
