TITL C-1154816-9297-427 0.00099356126079332 125000 -333.853144952128 0 0 60 (C1) n - 1
REM
REM in /home/nfs/bkarasulu/CARBON/AIRSS/Generating-Clusters/AIREBO/Higher-Symm/Only-C60
REM
REM
REM
REM
REM
REM ./C.cell (28575a23ae977d3b5fae324c64b13b57)
REM
REM compiler GCC version 9.2.1 20190827 (Red Hat 9.2.1-1)
REM options -cpp -mtune=generic -march=x86-64 -g -O0 -fpre-include=/usr/include/finclude/math-vector-fortran.h
REM seed 1030413391 -868373405 207413345 -526718700 -1420395444 -1257589212 -296576470 1061748025 -1132796140 -615639671 2055661326 -1565175583 -1053850203 -161140991 59347639 -173192947 -1940962123 382308332 -1551502600 -172574710 -518436027 -246059257 -625866626 -1776718770 -1608737369 1986953525 -380894651 -859921834 1681569657 283512859 354944329 -525090753 -859673891
REM
CELL 1.54180   50.00000   50.00000   50.00000   90.00000   90.00000   90.00000
LATT -1
SFAC C  
C      1  0.4924940000000  0.4664140000000  0.4764070000000 1.0
C      1  0.4873830000000  0.5132630000000  0.4611500000000 1.0
C      1  0.4918840000000  0.5378440000000  0.4980580000000 1.0
C      1  0.4897790000000  0.5121310000000  0.5380880000000 1.0
C      1  0.4933560000000  0.4683060000000  0.5226880000000 1.0
C      1  0.5119380000000  0.5339020000000  0.4716870000000 1.0
C      1  0.5085180000000  0.4875270000000  0.4615740000000 1.0
C      1  0.5136270000000  0.4562860000000  0.5006700000000 1.0
C      1  0.5131380000000  0.4877850000000  0.5423260000000 1.0
C      1  0.5098420000000  0.5333820000000  0.5233880000000 1.0
C      1  0.5670730000000  0.4604740000000  0.4983920000000 1.0
C      1  0.5640990000000  0.4867650000000  0.4595620000000 1.0
C      1  0.5647940000000  0.5315440000000  0.4744870000000 1.0
C      1  0.5645540000000  0.5332760000000  0.5215370000000 1.0
C      1  0.5673010000000  0.4886720000000  0.5362670000000 1.0
C      1  0.4359560000000  0.5391060000000  0.4987640000000 1.0
C      1  0.4335770000000  0.5086390000000  0.4627450000000 1.0
C      1  0.4364530000000  0.4639220000000  0.4770240000000 1.0
C      1  0.4363540000000  0.4666450000000  0.5241770000000 1.0
C      1  0.4360570000000  0.5120220000000  0.5371470000000 1.0
C      1  0.5187300000000  0.5634450000000  0.5363930000000 1.0
C      1  0.5197780000000  0.5086690000000  0.5694930000000 1.0
C      1  0.5115310000000  0.4327760000000  0.5251480000000 1.0
C      1  0.4967090000000  0.4437840000000  0.4438640000000 1.0
C      1  0.5188880000000  0.5523920000000  0.4444610000000 1.0
C      1  0.4746660000000  0.4399290000000  0.5240440000000 1.0
C      1  0.4869350000000  0.4998690000000  0.5696800000000 1.0
C      1  0.4899980000000  0.5695490000000  0.5220450000000 1.0
C      1  0.4831030000000  0.5422780000000  0.4452870000000 1.0
C      1  0.5052940000000  0.4655820000000  0.4284940000000 1.0
C      1  0.4919290000000  0.5687360000000  0.4900460000000 1.0
C      1  0.4967540000000  0.5330860000000  0.5711300000000 1.0
C      1  0.4934060000000  0.4419230000000  0.5524860000000 1.0
C      1  0.4941920000000  0.4342630000000  0.4736120000000 1.0
C      1  0.5068570000000  0.5248320000000  0.4283140000000 1.0
C      1  0.4911550000000  0.4233250000000  0.4993370000000 1.0
C      1  0.4965530000000  0.4674650000000  0.5639690000000 1.0
C      1  0.4928290000000  0.5540250000000  0.5530420000000 1.0
C      1  0.4942760000000  0.5684170000000  0.4621750000000 1.0
C      1  0.5065940000000  0.4970500000000  0.4301340000000 1.0
C      1  0.4641580000000  0.4775370000000  0.5154080000000 1.0
C      1  0.4648940000000  0.4760150000000  0.4842500000000 1.0
C      1  0.4619180000000  0.5054630000000  0.4745560000000 1.0
C      1  0.4644480000000  0.5252740000000  0.4986350000000 1.0
C      1  0.4640020000000  0.5074440000000  0.5239110000000 1.0
C      1  0.5363270000000  0.5209920000000  0.5140370000000 1.0
C      1  0.5367950000000  0.5205660000000  0.4826950000000 1.0
C      1  0.5360930000000  0.4909630000000  0.4735580000000 1.0
C      1  0.5384140000000  0.4727940000000  0.4994010000000 1.0
C      1  0.5384410000000  0.4916090000000  0.5245340000000 1.0
C      1  0.4249250000000  0.5352270000000  0.5248610000000 1.0
C      1  0.4248100000000  0.4861150000000  0.5416170000000 1.0
C      1  0.4254160000000  0.4534250000000  0.5013030000000 1.0
C      1  0.4234320000000  0.4822300000000  0.4593330000000 1.0
C      1  0.4230370000000  0.5326600000000  0.4740250000000 1.0
C      1  0.5792700000000  0.4660090000000  0.5236360000000 1.0
C      1  0.5772670000000  0.5152050000000  0.5396440000000 1.0
C      1  0.5757350000000  0.5441490000000  0.4975830000000 1.0
C      1  0.5755960000000  0.5127420000000  0.4558870000000 1.0
C      1  0.5766720000000  0.4642790000000  0.4718380000000 1.0
END
