TITL C-1154824-75-7 0.000257823103088392 125000 -312.83956212882 0 0 60 (C1) n - 1
REM
REM in /home/nfs/bkarasulu/CARBON/AIRSS/Generating-Clusters/AIREBO/Higher-Symm/Only-C60
REM
REM
REM
REM
REM
REM ./C.cell (28575a23ae977d3b5fae324c64b13b57)
REM
REM compiler GCC version 9.2.1 20190827 (Red Hat 9.2.1-1)
REM options -cpp -mtune=generic -march=x86-64 -g -O0 -fpre-include=/usr/include/finclude/math-vector-fortran.h
REM seed 74390980 1489961974 -152266066 -1360193465 1603571214 1713513526 1753808023 -637480271 -1112107532 2122361299 -175541233 1204642951 901977409 -653095967 -298706762 -685221761 1753849204 541612000 -1266682027 -2040123781 1338208709 -598710979 -812957614 -149844878 -758179120 -437350291 -1966116975 -1794794377 679363108 -1578204786 1419353089 231200579 -2029025695
REM
CELL 1.54180   50.00000   50.00000   50.00000   90.00000   90.00000   90.00000
LATT -1
SFAC C  
C      1  0.5548650000000  0.4703990000000  0.4986800000000 1.0
C      1  0.5376770000000  0.4707820000000  0.5473860000000 1.0
C      1  0.4855000000000  0.4690050000000  0.5555230000000 1.0
C      1  0.4402590000000  0.4796880000000  0.5422780000000 1.0
C      1  0.4494840000000  0.4665640000000  0.4773510000000 1.0
C      1  0.4854260000000  0.4536440000000  0.4461400000000 1.0
C      1  0.5344430000000  0.4725580000000  0.4508620000000 1.0
C      1  0.4530020000000  0.4526750000000  0.4517990000000 1.0
C      1  0.5138260000000  0.4596180000000  0.4305640000000 1.0
C      1  0.5638850000000  0.4668880000000  0.4671720000000 1.0
C      1  0.5645450000000  0.4685360000000  0.5295920000000 1.0
C      1  0.5146000000000  0.4633490000000  0.5690380000000 1.0
C      1  0.4553930000000  0.4683090000000  0.5626780000000 1.0
C      1  0.4443300000000  0.4733780000000  0.5103680000000 1.0
C      1  0.5274700000000  0.5794340000000  0.5226060000000 1.0
C      1  0.5101900000000  0.5579250000000  0.5372580000000 1.0
C      1  0.4799930000000  0.5657410000000  0.5317860000000 1.0
C      1  0.4700280000000  0.5565440000000  0.5084570000000 1.0
C      1  0.4838830000000  0.5625230000000  0.4857390000000 1.0
C      1  0.5039630000000  0.5814470000000  0.4823740000000 1.0
C      1  0.5274370000000  0.5740920000000  0.4957370000000 1.0
C      1  0.5329680000000  0.4937600000000  0.4987550000000 1.0
C      1  0.5223740000000  0.4933850000000  0.5310770000000 1.0
C      1  0.4897770000000  0.4954580000000  0.5373080000000 1.0
C      1  0.4595130000000  0.5005240000000  0.5242700000000 1.0
C      1  0.4666440000000  0.4918630000000  0.4725380000000 1.0
C      1  0.4958300000000  0.4840370000000  0.4561030000000 1.0
C      1  0.5240840000000  0.4992390000000  0.4674490000000 1.0
C      1  0.4565290000000  0.5253350000000  0.5084390000000 1.0
C      1  0.4592030000000  0.5201110000000  0.4776170000000 1.0
C      1  0.4886230000000  0.5358700000000  0.4707780000000 1.0
C      1  0.5210190000000  0.5295430000000  0.4658370000000 1.0
C      1  0.5344210000000  0.5449370000000  0.4916520000000 1.0
C      1  0.5312540000000  0.5229890000000  0.5169030000000 1.0
C      1  0.4994540000000  0.5269200000000  0.5282890000000 1.0
C      1  0.5645240000000  0.5404410000000  0.5031920000000 1.0
C      1  0.5350160000000  0.5370010000000  0.5476610000000 1.0
C      1  0.4787490000000  0.5330050000000  0.5545740000000 1.0
C      1  0.4332910000000  0.5471120000000  0.5195470000000 1.0
C      1  0.4519590000000  0.5495770000000  0.4629310000000 1.0
C      1  0.4999360000000  0.5546490000000  0.4264760000000 1.0
C      1  0.5473130000000  0.5457050000000  0.4539060000000 1.0
C      1  0.5267810000000  0.5496240000000  0.4317870000000 1.0
C      1  0.5692330000000  0.5450230000000  0.4723090000000 1.0
C      1  0.5643830000000  0.5403970000000  0.5306920000000 1.0
C      1  0.5073390000000  0.5317670000000  0.5670500000000 1.0
C      1  0.4520170000000  0.5391590000000  0.5455840000000 1.0
C      1  0.4307860000000  0.5466640000000  0.4867680000000 1.0
C      1  0.4775170000000  0.5465780000000  0.4416660000000 1.0
C      1  0.4831610000000  0.4366580000000  0.4755080000000 1.0
C      1  0.5372780000000  0.4465370000000  0.4720730000000 1.0
C      1  0.5299660000000  0.4478090000000  0.5044660000000 1.0
C      1  0.5230170000000  0.4460550000000  0.5329980000000 1.0
C      1  0.4959070000000  0.4433120000000  0.5398990000000 1.0
C      1  0.4788650000000  0.4299880000000  0.5230800000000 1.0
C      1  0.4616470000000  0.4474510000000  0.5016910000000 1.0
C      1  0.4935610000000  0.5152820000000  0.4973870000000 1.0
C      1  0.4816270000000  0.4133820000000  0.4983100000000 1.0
C      1  0.5065860000000  0.4564820000000  0.4830090000000 1.0
C      1  0.4943050000000  0.4847220000000  0.4893390000000 1.0
END
