TITL C-1154826-9507-691 0.00215899833478866 125000 -319.380961046631 0 0 60 (C1) n - 1
REM
REM in /home/nfs/bkarasulu/CARBON/AIRSS/Generating-Clusters/AIREBO/Higher-Symm/Only-C60
REM
REM
REM
REM
REM
REM ./C.cell (28575a23ae977d3b5fae324c64b13b57)
REM
REM compiler GCC version 9.2.1 20190827 (Red Hat 9.2.1-1)
REM options -cpp -mtune=generic -march=x86-64 -g -O0 -fpre-include=/usr/include/finclude/math-vector-fortran.h
REM seed 21906165 -993230773 -1672010986 1181963082 -1268053251 339874501 -1384985261 1422873626 434966595 -466404979 -1036918928 -1115875342 -2126254427 -54477818 -625138053 1037963292 -1406326745 -1251482959 1927222961 930063052 329813893 2030253209 -71239752 2074025767 -670096865 2118484842 1759340237 62721626 -1864129740 2017432279 400284430 947441192 804095080
REM
CELL 1.54180   50.00000   50.00000   50.00000   90.00000   90.00000   90.00000
LATT -1
SFAC C  
C      1  0.5492520000000  0.5526450000000  0.4886060000000 1.0
C      1  0.5488140000000  0.4476600000000  0.4888960000000 1.0
C      1  0.4705910000000  0.5146380000000  0.4984520000000 1.0
C      1  0.4703080000000  0.4844930000000  0.5017420000000 1.0
C      1  0.5064880000000  0.5232140000000  0.4650280000000 1.0
C      1  0.5059860000000  0.4773730000000  0.4660510000000 1.0
C      1  0.5230680000000  0.4862530000000  0.5279480000000 1.0
C      1  0.5231860000000  0.5140970000000  0.5278510000000 1.0
C      1  0.4641680000000  0.4719140000000  0.5509230000000 1.0
C      1  0.4649160000000  0.5268870000000  0.5500430000000 1.0
C      1  0.5327910000000  0.5150040000000  0.4366960000000 1.0
C      1  0.5323400000000  0.4857900000000  0.4376480000000 1.0
C      1  0.5294120000000  0.4359550000000  0.5093340000000 1.0
C      1  0.5297190000000  0.5644350000000  0.5089400000000 1.0
C      1  0.4382550000000  0.5138830000000  0.4751300000000 1.0
C      1  0.4381700000000  0.4863770000000  0.4763360000000 1.0
C      1  0.4547070000000  0.4681130000000  0.4533100000000 1.0
C      1  0.4529050000000  0.5336120000000  0.4517310000000 1.0
C      1  0.4665920000000  0.5671320000000  0.5092090000000 1.0
C      1  0.4667050000000  0.4320710000000  0.5094800000000 1.0
C      1  0.4486630000000  0.5133700000000  0.5318410000000 1.0
C      1  0.4465240000000  0.4855080000000  0.5336620000000 1.0
C      1  0.5572010000000  0.4857690000000  0.5487210000000 1.0
C      1  0.5572450000000  0.5144340000000  0.5487320000000 1.0
C      1  0.4604760000000  0.4513920000000  0.4821980000000 1.0
C      1  0.4598490000000  0.5489550000000  0.4812710000000 1.0
C      1  0.5112670000000  0.4476960000000  0.4756730000000 1.0
C      1  0.5117230000000  0.5525140000000  0.4753140000000 1.0
C      1  0.4846910000000  0.5383730000000  0.5107410000000 1.0
C      1  0.4848540000000  0.4606830000000  0.5124720000000 1.0
C      1  0.5704650000000  0.5258190000000  0.5262520000000 1.0
C      1  0.5705770000000  0.4743570000000  0.5263800000000 1.0
C      1  0.5295450000000  0.4742280000000  0.5548780000000 1.0
C      1  0.5295360000000  0.5259150000000  0.5549310000000 1.0
C      1  0.4747140000000  0.4447030000000  0.5407290000000 1.0
C      1  0.4754470000000  0.5534990000000  0.5397660000000 1.0
C      1  0.5357680000000  0.4844940000000  0.4808420000000 1.0
C      1  0.5360020000000  0.5159490000000  0.4802790000000 1.0
C      1  0.4995470000000  0.4310320000000  0.5202940000000 1.0
C      1  0.4995850000000  0.5677340000000  0.5192510000000 1.0
C      1  0.4766860000000  0.4684110000000  0.4286360000000 1.0
C      1  0.4764970000000  0.5320200000000  0.4278840000000 1.0
C      1  0.5622590000000  0.4725300000000  0.4999520000000 1.0
C      1  0.5624550000000  0.5277020000000  0.4997080000000 1.0
C      1  0.4776590000000  0.4857470000000  0.4711930000000 1.0
C      1  0.4773510000000  0.5159750000000  0.4673320000000 1.0
C      1  0.5409260000000  0.4597360000000  0.4581060000000 1.0
C      1  0.5415000000000  0.5407790000000  0.4577010000000 1.0
C      1  0.5021820000000  0.5248770000000  0.4332570000000 1.0
C      1  0.5023370000000  0.4756990000000  0.4343230000000 1.0
C      1  0.4409890000000  0.5303890000000  0.5040790000000 1.0
C      1  0.4401330000000  0.4694540000000  0.5048180000000 1.0
C      1  0.4825490000000  0.5137210000000  0.5673100000000 1.0
C      1  0.4824020000000  0.4853560000000  0.5675190000000 1.0
C      1  0.5075240000000  0.5268250000000  0.5724880000000 1.0
C      1  0.5075250000000  0.4724200000000  0.5723010000000 1.0
C      1  0.5169220000000  0.4670570000000  0.5031400000000 1.0
C      1  0.5173650000000  0.5332530000000  0.5028540000000 1.0
C      1  0.4862580000000  0.4338670000000  0.4749770000000 1.0
C      1  0.4864270000000  0.5662140000000  0.4748410000000 1.0
END
