TITL C-1154829-9094-340 -0.000306796677303658 125000 -295.324675572734 0 0 60 (C1) n - 1
REM
REM in /home/nfs/bkarasulu/CARBON/AIRSS/Generating-Clusters/AIREBO/Higher-Symm/Only-C60
REM
REM
REM
REM
REM
REM ./C.cell (28575a23ae977d3b5fae324c64b13b57)
REM
REM compiler GCC version 9.2.1 20190827 (Red Hat 9.2.1-1)
REM options -cpp -mtune=generic -march=x86-64 -g -O0 -fpre-include=/usr/include/finclude/math-vector-fortran.h
REM seed 418470084 -1875394299 -1595094568 473729564 743704524 -310229678 1783691710 863821074 808731957 -1097752103 -1977405726 -1646873204 -2022474378 -2028640393 -1918505068 -1909242557 1097095964 650172803 -1415368547 1003748672 -1058544233 1775297866 639112676 1340495335 152650127 110344665 -1884217586 -1947227431 1486328851 -843091011 1820579780 734733751 -645149577
REM
CELL 1.54180   50.00000   50.00000   50.00000   90.00000   90.00000   90.00000
LATT -1
SFAC C  
C      1  0.5296330000000  0.4647090000000  0.5435520000000 1.0
C      1  0.5268570000000  0.5145210000000  0.5549310000000 1.0
C      1  0.5255640000000  0.5550470000000  0.5241720000000 1.0
C      1  0.5264740000000  0.5534180000000  0.4715520000000 1.0
C      1  0.5274110000000  0.5092070000000  0.4378680000000 1.0
C      1  0.5216150000000  0.4561560000000  0.4484520000000 1.0
C      1  0.5209180000000  0.4409440000000  0.4973850000000 1.0
C      1  0.5683710000000  0.5282490000000  0.4648830000000 1.0
C      1  0.5554290000000  0.5058230000000  0.4481670000000 1.0
C      1  0.5495890000000  0.4536130000000  0.4607730000000 1.0
C      1  0.5820550000000  0.4549340000000  0.5313910000000 1.0
C      1  0.5578850000000  0.4771120000000  0.5609460000000 1.0
C      1  0.5579940000000  0.5301730000000  0.5582770000000 1.0
C      1  0.5543170000000  0.5706750000000  0.5127810000000 1.0
C      1  0.4856410000000  0.5388060000000  0.4438120000000 1.0
C      1  0.4895230000000  0.4823390000000  0.4182420000000 1.0
C      1  0.4790650000000  0.4337260000000  0.4642640000000 1.0
C      1  0.4848110000000  0.4412020000000  0.5340570000000 1.0
C      1  0.4854770000000  0.4866330000000  0.5679790000000 1.0
C      1  0.4848210000000  0.5459540000000  0.5564330000000 1.0
C      1  0.4798370000000  0.5654640000000  0.4944060000000 1.0
C      1  0.5101500000000  0.4788050000000  0.5204050000000 1.0
C      1  0.5046250000000  0.5067560000000  0.5311340000000 1.0
C      1  0.5082800000000  0.5300660000000  0.5123930000000 1.0
C      1  0.5037900000000  0.5315680000000  0.4799160000000 1.0
C      1  0.5014640000000  0.5052060000000  0.4585980000000 1.0
C      1  0.5047000000000  0.4762710000000  0.4682230000000 1.0
C      1  0.4964210000000  0.4629270000000  0.4962180000000 1.0
C      1  0.5086380000000  0.5670240000000  0.4972140000000 1.0
C      1  0.5145410000000  0.5394910000000  0.4427420000000 1.0
C      1  0.5141480000000  0.4811430000000  0.4293820000000 1.0
C      1  0.5056200000000  0.4363070000000  0.4681000000000 1.0
C      1  0.5120820000000  0.4395410000000  0.5289010000000 1.0
C      1  0.5141990000000  0.4849930000000  0.5660760000000 1.0
C      1  0.5118910000000  0.5450360000000  0.5536510000000 1.0
C      1  0.4650760000000  0.4758950000000  0.4937510000000 1.0
C      1  0.4666600000000  0.4692200000000  0.5270520000000 1.0
C      1  0.4736120000000  0.4978250000000  0.5393450000000 1.0
C      1  0.4616220000000  0.5155230000000  0.5128670000000 1.0
C      1  0.4627290000000  0.5376860000000  0.4870380000000 1.0
C      1  0.4701120000000  0.5150860000000  0.4626110000000 1.0
C      1  0.4601380000000  0.4826170000000  0.4607810000000 1.0
C      1  0.5493210000000  0.5307940000000  0.5262020000000 1.0
C      1  0.5495980000000  0.5433050000000  0.4945740000000 1.0
C      1  0.5501400000000  0.5101140000000  0.4872100000000 1.0
C      1  0.5595040000000  0.4822690000000  0.4715690000000 1.0
C      1  0.5479380000000  0.4594290000000  0.4942360000000 1.0
C      1  0.5560020000000  0.4676980000000  0.5222800000000 1.0
C      1  0.5499220000000  0.4982260000000  0.5359780000000 1.0
C      1  0.4692140000000  0.4795920000000  0.5886810000000 1.0
C      1  0.4660910000000  0.5305440000000  0.5447760000000 1.0
C      1  0.4647160000000  0.5880260000000  0.4993320000000 1.0
C      1  0.4619210000000  0.5533720000000  0.4568740000000 1.0
C      1  0.4659150000000  0.4900200000000  0.4299520000000 1.0
C      1  0.4567500000000  0.4498210000000  0.4647250000000 1.0
C      1  0.4537200000000  0.4400060000000  0.5386760000000 1.0
C      1  0.4871160000000  0.5010100000000  0.4959250000000 1.0
C      1  0.4373540000000  0.4934400000000  0.5039560000000 1.0
C      1  0.5206620000000  0.5059870000000  0.4933360000000 1.0
C      1  0.4119000000000  0.4913140000000  0.5041290000000 1.0
END
