TITL C-1154826-9507-194 0.0016274560779312 125000 -328.324052546793 0 0 60 (C1) n - 1
REM
REM in /home/nfs/bkarasulu/CARBON/AIRSS/Generating-Clusters/AIREBO/Higher-Symm/Only-C60
REM
REM
REM
REM
REM
REM ./C.cell (28575a23ae977d3b5fae324c64b13b57)
REM
REM compiler GCC version 9.2.1 20190827 (Red Hat 9.2.1-1)
REM options -cpp -mtune=generic -march=x86-64 -g -O0 -fpre-include=/usr/include/finclude/math-vector-fortran.h
REM seed 736282885 -1920421923 -516859791 313990601 -2056781907 -1438870252 973848971 1923658949 -1128899596 -1291921795 -193171847 -1558821468 -422470874 -1271856623 1078067960 1619156719 1688384906 -957742282 -1112289418 525572626 -1905499991 -740525349 -1807719374 -422541549 -1012117429 -1348607980 1497526954 2133845790 1866248912 755802314 739690296 -1830177036 1675010524
REM
CELL 1.54180   50.00000   50.00000   50.00000   90.00000   90.00000   90.00000
LATT -1
SFAC C  
C      1  0.4941510000000  0.4923330000000  0.4540050000000 1.0
C      1  0.5464010000000  0.5487320000000  0.5596020000000 1.0
C      1  0.5550470000000  0.4503620000000  0.4576600000000 1.0
C      1  0.4968050000000  0.4920510000000  0.4214120000000 1.0
C      1  0.4703360000000  0.5482800000000  0.5086600000000 1.0
C      1  0.5179050000000  0.4574520000000  0.5480260000000 1.0
C      1  0.5242900000000  0.4944700000000  0.4641870000000 1.0
C      1  0.5363350000000  0.4709100000000  0.4439790000000 1.0
C      1  0.4327570000000  0.5246250000000  0.5378890000000 1.0
C      1  0.4507620000000  0.4867780000000  0.4699320000000 1.0
C      1  0.4675490000000  0.4845030000000  0.5591330000000 1.0
C      1  0.4863790000000  0.4661320000000  0.5375370000000 1.0
C      1  0.5184720000000  0.5512370000000  0.5642520000000 1.0
C      1  0.5027180000000  0.4608590000000  0.4636080000000 1.0
C      1  0.5273920000000  0.5242790000000  0.4378240000000 1.0
C      1  0.4888930000000  0.5588370000000  0.4607210000000 1.0
C      1  0.4614000000000  0.5108830000000  0.5300430000000 1.0
C      1  0.5028150000000  0.5552180000000  0.5160450000000 1.0
C      1  0.5416190000000  0.4692290000000  0.5025650000000 1.0
C      1  0.5616320000000  0.5178000000000  0.4902230000000 1.0
C      1  0.5061770000000  0.4332130000000  0.5272640000000 1.0
C      1  0.4568550000000  0.4304710000000  0.5103830000000 1.0
C      1  0.5116460000000  0.5162050000000  0.4164010000000 1.0
C      1  0.4898700000000  0.5298060000000  0.4880120000000 1.0
C      1  0.5504440000000  0.5019550000000  0.4446750000000 1.0
C      1  0.4908270000000  0.4817920000000  0.5102300000000 1.0
C      1  0.5052890000000  0.5286040000000  0.5757690000000 1.0
C      1  0.4499580000000  0.5179570000000  0.4600490000000 1.0
C      1  0.5036230000000  0.5658280000000  0.5449440000000 1.0
C      1  0.5221010000000  0.4920340000000  0.5099220000000 1.0
C      1  0.5281300000000  0.4508580000000  0.4775590000000 1.0
C      1  0.4318000000000  0.5033480000000  0.4924040000000 1.0
C      1  0.5276680000000  0.5172940000000  0.4886780000000 1.0
C      1  0.4370710000000  0.4769070000000  0.5065980000000 1.0
C      1  0.5778750000000  0.4652290000000  0.4672840000000 1.0
C      1  0.4768690000000  0.4350420000000  0.5275850000000 1.0
C      1  0.4786790000000  0.5145280000000  0.4633890000000 1.0
C      1  0.5547330000000  0.5290800000000  0.5408400000000 1.0
C      1  0.4621170000000  0.5618660000000  0.4672020000000 1.0
C      1  0.4723240000000  0.5615440000000  0.5401350000000 1.0
C      1  0.4946790000000  0.5031520000000  0.5574490000000 1.0
C      1  0.4884010000000  0.5130810000000  0.5136910000000 1.0
C      1  0.4778620000000  0.4708570000000  0.4835450000000 1.0
C      1  0.5470360000000  0.5027480000000  0.5477490000000 1.0
C      1  0.5082450000000  0.4642930000000  0.4298180000000 1.0
C      1  0.4843640000000  0.5309540000000  0.5419190000000 1.0
C      1  0.5129950000000  0.5350260000000  0.4636250000000 1.0
C      1  0.4507310000000  0.4814470000000  0.5297380000000 1.0
C      1  0.4384910000000  0.5024840000000  0.5612160000000 1.0
C      1  0.4384050000000  0.4569600000000  0.4592340000000 1.0
C      1  0.5263160000000  0.5472030000000  0.5052410000000 1.0
C      1  0.5732300000000  0.4994390000000  0.4672260000000 1.0
C      1  0.4497730000000  0.4531140000000  0.4909080000000 1.0
C      1  0.5181850000000  0.4896140000000  0.5434280000000 1.0
C      1  0.5423450000000  0.4486330000000  0.5276110000000 1.0
C      1  0.5689290000000  0.4790560000000  0.4941000000000 1.0
C      1  0.4397780000000  0.5336020000000  0.5058040000000 1.0
C      1  0.5256840000000  0.4326990000000  0.5037840000000 1.0
C      1  0.4435550000000  0.5412770000000  0.4742230000000 1.0
C      1  0.5532790000000  0.5358300000000  0.5130630000000 1.0
END
