TITL C-1154825-9328-222 2.78177336109306 125000 -322.223739364555 0 0 60 (C1) n - 1
REM
REM in /home/nfs/bkarasulu/CARBON/AIRSS/Generating-Clusters/AIREBO/Higher-Symm/Only-C60
REM
REM
REM
REM
REM
REM ./C.cell (28575a23ae977d3b5fae324c64b13b57)
REM
REM compiler GCC version 9.2.1 20190827 (Red Hat 9.2.1-1)
REM options -cpp -mtune=generic -march=x86-64 -g -O0 -fpre-include=/usr/include/finclude/math-vector-fortran.h
REM seed -262662236 169120736 1040979477 714679374 -927461902 898483308 -793530758 108717999 -1493830734 -884505146 1669244531 -1597661209 -1180222200 265273002 -284664760 2102818011 210469054 753903405 -658449890 -393543456 1142341235 655121350 1125036193 -467453221 757240305 -1624956126 -585378747 2136260622 1260407923 -1800640573 1652760320 -1510335689 -1028482258
REM
CELL 1.54180   50.00000   50.00000   50.00000   90.00000   90.00000   90.00000
LATT -1
SFAC C  
C      1  0.5240860000000  0.4885740000000  0.5664580000000 1.0
C      1  0.4692080000000  0.4990940000000  0.5703640000000 1.0
C      1  0.4995080000000  0.5366980000000  0.5783120000000 1.0
C      1  0.5294430000000  0.5097820000000  0.4306180000000 1.0
C      1  0.4740330000000  0.5172090000000  0.4262490000000 1.0
C      1  0.4920620000000  0.4633220000000  0.4303860000000 1.0
C      1  0.4438040000000  0.5367760000000  0.4739400000000 1.0
C      1  0.5661260000000  0.5327660000000  0.4782750000000 1.0
C      1  0.5090860000000  0.4322170000000  0.4852080000000 1.0
C      1  0.4543790000000  0.4523890000000  0.5354510000000 1.0
C      1  0.5460030000000  0.4592830000000  0.5218420000000 1.0
C      1  0.5173310000000  0.5655370000000  0.5298930000000 1.0
C      1  0.4673920000000  0.4854890000000  0.4337040000000 1.0
C      1  0.5034270000000  0.5283880000000  0.4347620000000 1.0
C      1  0.5208340000000  0.4785750000000  0.4306160000000 1.0
C      1  0.4731570000000  0.5273850000000  0.5802250000000 1.0
C      1  0.4941820000000  0.4780330000000  0.5713420000000 1.0
C      1  0.5282850000000  0.5199350000000  0.5698590000000 1.0
C      1  0.5036460000000  0.5611520000000  0.4333020000000 1.0
C      1  0.5523730000000  0.4770970000000  0.4296470000000 1.0
C      1  0.4540080000000  0.4567110000000  0.4403120000000 1.0
C      1  0.4885040000000  0.4481750000000  0.5558660000000 1.0
C      1  0.5557950000000  0.5306080000000  0.5592370000000 1.0
C      1  0.4505810000000  0.5434210000000  0.5747020000000 1.0
C      1  0.5680400000000  0.5290160000000  0.5346910000000 1.0
C      1  0.4613910000000  0.4350370000000  0.5147050000000 1.0
C      1  0.4379780000000  0.5476310000000  0.5507250000000 1.0
C      1  0.5631500000000  0.4897150000000  0.4512960000000 1.0
C      1  0.4903410000000  0.5567970000000  0.4595140000000 1.0
C      1  0.4673670000000  0.4409310000000  0.4580020000000 1.0
C      1  0.4918850000000  0.4827390000000  0.5058520000000 1.0
C      1  0.4718900000000  0.5169280000000  0.5113060000000 1.0
C      1  0.5139080000000  0.5059830000000  0.5172860000000 1.0
C      1  0.4896640000000  0.5186770000000  0.4884720000000 1.0
C      1  0.4696740000000  0.4841200000000  0.4886410000000 1.0
C      1  0.5254800000000  0.4958530000000  0.4869580000000 1.0
C      1  0.5195460000000  0.5571740000000  0.5030590000000 1.0
C      1  0.5451490000000  0.4715380000000  0.4920330000000 1.0
C      1  0.4446660000000  0.4916340000000  0.4966940000000 1.0
C      1  0.5265630000000  0.4445570000000  0.5016610000000 1.0
C      1  0.5329970000000  0.5282370000000  0.5000640000000 1.0
C      1  0.4417260000000  0.5233700000000  0.5031780000000 1.0
C      1  0.5079790000000  0.4807390000000  0.4620230000000 1.0
C      1  0.4802710000000  0.5001720000000  0.4615360000000 1.0
C      1  0.5147650000000  0.5199460000000  0.4654800000000 1.0
C      1  0.5082790000000  0.5178920000000  0.5443740000000 1.0
C      1  0.4800720000000  0.5027790000000  0.5383520000000 1.0
C      1  0.4997910000000  0.4747950000000  0.5379570000000 1.0
C      1  0.4700830000000  0.5323750000000  0.4564310000000 1.0
C      1  0.5479830000000  0.5167440000000  0.4584050000000 1.0
C      1  0.4993790000000  0.4482010000000  0.4602000000000 1.0
C      1  0.4602360000000  0.4752310000000  0.5478490000000 1.0
C      1  0.5335930000000  0.4732660000000  0.5415160000000 1.0
C      1  0.5086220000000  0.5497840000000  0.5507860000000 1.0
C      1  0.4596550000000  0.4281040000000  0.4821510000000 1.0
C      1  0.5035350000000  0.5680250000000  0.4822040000000 1.0
C      1  0.5688620000000  0.4749270000000  0.4734810000000 1.0
C      1  0.4288640000000  0.5380260000000  0.5270830000000 1.0
C      1  0.4861830000000  0.4201720000000  0.4981730000000 1.0
C      1  0.5631800000000  0.5302660000000  0.5072930000000 1.0
END
