TITL C-1154824-75-576 0.00151467910512365 125000 -327.017578553005 0 0 60 (C1) n - 1
REM
REM in /home/nfs/bkarasulu/CARBON/AIRSS/Generating-Clusters/AIREBO/Higher-Symm/Only-C60
REM
REM
REM
REM
REM
REM ./C.cell (28575a23ae977d3b5fae324c64b13b57)
REM
REM compiler GCC version 9.2.1 20190827 (Red Hat 9.2.1-1)
REM options -cpp -mtune=generic -march=x86-64 -g -O0 -fpre-include=/usr/include/finclude/math-vector-fortran.h
REM seed -897501819 1569630223 -378280396 -1490952502 350815091 325593645 172598014 558228657 -734469691 -637135161 822632145 -953193384 1632932925 -682158449 -1635143576 1784170392 1415025368 1750224040 -1826258947 252054308 340345799 -1355566741 62204702 1343005847 1120760717 -1407376457 -110423758 529557801 1474836849 163770450 1629785864 -726010076 -162814580
REM
CELL 1.54180   50.00000   50.00000   50.00000   90.00000   90.00000   90.00000
LATT -1
SFAC C  
C      1  0.5400290000000  0.4439260000000  0.5362790000000 1.0
C      1  0.5606580000000  0.5097610000000  0.5597360000000 1.0
C      1  0.5414160000000  0.5718230000000  0.5149310000000 1.0
C      1  0.5448830000000  0.5331200000000  0.4463060000000 1.0
C      1  0.5494960000000  0.4584520000000  0.4564930000000 1.0
C      1  0.5517820000000  0.5112350000000  0.4359950000000 1.0
C      1  0.5519530000000  0.4461950000000  0.4779810000000 1.0
C      1  0.5333090000000  0.4645930000000  0.5535800000000 1.0
C      1  0.5607150000000  0.5352640000000  0.5490910000000 1.0
C      1  0.5258220000000  0.5761960000000  0.4958940000000 1.0
C      1  0.4907800000000  0.4609820000000  0.4489960000000 1.0
C      1  0.4827290000000  0.4495940000000  0.5162960000000 1.0
C      1  0.4821320000000  0.4873390000000  0.5704050000000 1.0
C      1  0.4872070000000  0.5580240000000  0.5297830000000 1.0
C      1  0.4939690000000  0.5332870000000  0.4403270000000 1.0
C      1  0.5372840000000  0.4849750000000  0.4426810000000 1.0
C      1  0.5342240000000  0.4473690000000  0.5056130000000 1.0
C      1  0.5462510000000  0.4889140000000  0.5478400000000 1.0
C      1  0.5395590000000  0.5445220000000  0.5278760000000 1.0
C      1  0.5167410000000  0.5406560000000  0.4600250000000 1.0
C      1  0.4903750000000  0.4352590000000  0.4377090000000 1.0
C      1  0.4811860000000  0.4305960000000  0.5397060000000 1.0
C      1  0.4877630000000  0.4998950000000  0.5940880000000 1.0
C      1  0.4940700000000  0.5848450000000  0.5262030000000 1.0
C      1  0.5005870000000  0.5385910000000  0.4133390000000 1.0
C      1  0.4335630000000  0.4896920000000  0.5701430000000 1.0
C      1  0.4415920000000  0.5364870000000  0.5325890000000 1.0
C      1  0.4547310000000  0.5449610000000  0.4699110000000 1.0
C      1  0.4419850000000  0.4688650000000  0.4406330000000 1.0
C      1  0.4294080000000  0.4576590000000  0.4889320000000 1.0
C      1  0.5055200000000  0.5098170000000  0.5246120000000 1.0
C      1  0.4912070000000  0.5370290000000  0.5044590000000 1.0
C      1  0.4877180000000  0.5038690000000  0.4460410000000 1.0
C      1  0.5082920000000  0.4630390000000  0.4743000000000 1.0
C      1  0.4892560000000  0.4825520000000  0.5314030000000 1.0
C      1  0.4654340000000  0.5250460000000  0.4915600000000 1.0
C      1  0.4685700000000  0.4995920000000  0.4722920000000 1.0
C      1  0.4505150000000  0.4839840000000  0.4933700000000 1.0
C      1  0.4580500000000  0.4886810000000  0.5260430000000 1.0
C      1  0.4490600000000  0.5169600000000  0.5156320000000 1.0
C      1  0.5012380000000  0.4150460000000  0.4874240000000 1.0
C      1  0.4914180000000  0.4390490000000  0.5613920000000 1.0
C      1  0.5115350000000  0.5379700000000  0.5702190000000 1.0
C      1  0.4837360000000  0.5754270000000  0.4726390000000 1.0
C      1  0.5050280000000  0.4805430000000  0.4021460000000 1.0
C      1  0.5077490000000  0.4828240000000  0.4323260000000 1.0
C      1  0.5045630000000  0.4414260000000  0.4969200000000 1.0
C      1  0.5033080000000  0.4673170000000  0.5583950000000 1.0
C      1  0.5101520000000  0.5384080000000  0.5395990000000 1.0
C      1  0.5041640000000  0.5580600000000  0.4827040000000 1.0
C      1  0.4575250000000  0.4534440000000  0.5036180000000 1.0
C      1  0.4577700000000  0.4880460000000  0.5573490000000 1.0
C      1  0.4600340000000  0.5532270000000  0.5437390000000 1.0
C      1  0.4675110000000  0.5480450000000  0.4484780000000 1.0
C      1  0.4637510000000  0.4732280000000  0.4542620000000 1.0
C      1  0.5377490000000  0.5232830000000  0.5053050000000 1.0
C      1  0.5292630000000  0.5186910000000  0.4801820000000 1.0
C      1  0.5281700000000  0.4879690000000  0.4730360000000 1.0
C      1  0.5398140000000  0.4773430000000  0.4997080000000 1.0
C      1  0.5356990000000  0.4970080000000  0.5214660000000 1.0
END
