TITL C-1154804-8633-57 -0.00231957193661925 125000 -340.839194306166 0 0 60 (C1) n - 1
REM
REM in /home/nfs/bkarasulu/CARBON/AIRSS/Generating-Clusters/AIREBO/Higher-Symm/Only-C60
REM
REM
REM
REM
REM
REM ./C.cell (28575a23ae977d3b5fae324c64b13b57)
REM
REM compiler GCC version 9.2.1 20190827 (Red Hat 9.2.1-1)
REM options -cpp -mtune=generic -march=x86-64 -g -O0 -fpre-include=/usr/include/finclude/math-vector-fortran.h
REM seed -2104918017 -1483899520 1935127800 -1968484262 -1858906753 -1060889710 -1475288374 -923328308 -211672054 1716054089 -924737886 -1057906181 -897654019 -890693455 -972041577 1976320943 -2028759083 -1791518305 14571377 -1098012029 1650100131 -257276829 -1779293396 264998168 1264958184 511148492 -942888220 -1191101067 344853666 -811844756 151019601 1181216751 214939076
REM
CELL 1.54180   50.00000   50.00000   50.00000   90.00000   90.00000   90.00000
LATT -1
SFAC C  
C      1  0.5427850000000  0.5359060000000  0.5546740000000 1.0
C      1  0.4925460000000  0.5360540000000  0.5733340000000 1.0
C      1  0.4483910000000  0.5224270000000  0.5294350000000 1.0
C      1  0.4428280000000  0.5207410000000  0.4753500000000 1.0
C      1  0.4795240000000  0.5219170000000  0.4495630000000 1.0
C      1  0.5276320000000  0.5244860000000  0.4384060000000 1.0
C      1  0.5635150000000  0.5201960000000  0.5101840000000 1.0
C      1  0.5312170000000  0.5488960000000  0.4518440000000 1.0
C      1  0.5615870000000  0.5466710000000  0.4992310000000 1.0
C      1  0.5391290000000  0.5616420000000  0.5429330000000 1.0
C      1  0.4900280000000  0.5599530000000  0.5577420000000 1.0
C      1  0.4481090000000  0.5516050000000  0.5275580000000 1.0
C      1  0.4409930000000  0.5498160000000  0.4778620000000 1.0
C      1  0.4804630000000  0.5520210000000  0.4511680000000 1.0
C      1  0.4744430000000  0.5030190000000  0.4795800000000 1.0
C      1  0.5069780000000  0.5052890000000  0.4757220000000 1.0
C      1  0.5305470000000  0.4965070000000  0.4541040000000 1.0
C      1  0.5338240000000  0.5080720000000  0.5145510000000 1.0
C      1  0.5246430000000  0.5129000000000  0.5440980000000 1.0
C      1  0.4976280000000  0.4992320000000  0.5285780000000 1.0
C      1  0.4742750000000  0.5082220000000  0.5131860000000 1.0
C      1  0.5229220000000  0.4269850000000  0.5215650000000 1.0
C      1  0.4940190000000  0.4165580000000  0.5292580000000 1.0
C      1  0.4730680000000  0.4282360000000  0.5162450000000 1.0
C      1  0.4662710000000  0.4184520000000  0.4904750000000 1.0
C      1  0.4840370000000  0.4254410000000  0.4693520000000 1.0
C      1  0.5097720000000  0.4154170000000  0.4724980000000 1.0
C      1  0.5300840000000  0.4038460000000  0.4972310000000 1.0
C      1  0.5251450000000  0.4553330000000  0.5340070000000 1.0
C      1  0.4974180000000  0.4684080000000  0.5362670000000 1.0
C      1  0.4725200000000  0.4585160000000  0.5187000000000 1.0
C      1  0.4700130000000  0.4700830000000  0.4868250000000 1.0
C      1  0.4823950000000  0.4551080000000  0.4623680000000 1.0
C      1  0.5097170000000  0.4697240000000  0.4566560000000 1.0
C      1  0.5466370000000  0.4818210000000  0.4979450000000 1.0
C      1  0.5689050000000  0.4950690000000  0.5282550000000 1.0
C      1  0.5018530000000  0.5103490000000  0.5664660000000 1.0
C      1  0.4396250000000  0.4930040000000  0.5403140000000 1.0
C      1  0.4414540000000  0.5046320000000  0.5020900000000 1.0
C      1  0.4546990000000  0.4988330000000  0.4522050000000 1.0
C      1  0.5015010000000  0.5121080000000  0.4315560000000 1.0
C      1  0.5608080000000  0.4904510000000  0.4550360000000 1.0
C      1  0.4482200000000  0.4704180000000  0.5346500000000 1.0
C      1  0.4411870000000  0.4762330000000  0.4957330000000 1.0
C      1  0.4582360000000  0.4707350000000  0.4454850000000 1.0
C      1  0.5028940000000  0.4846790000000  0.4279960000000 1.0
C      1  0.5696900000000  0.4863500000000  0.4784670000000 1.0
C      1  0.5471490000000  0.4723710000000  0.5286150000000 1.0
C      1  0.4919560000000  0.4846210000000  0.5652700000000 1.0
C      1  0.4560930000000  0.5634640000000  0.4586330000000 1.0
C      1  0.5065320000000  0.5635470000000  0.4516050000000 1.0
C      1  0.5520900000000  0.5512520000000  0.4719630000000 1.0
C      1  0.5550960000000  0.5659910000000  0.5196550000000 1.0
C      1  0.5144340000000  0.5731450000000  0.5511000000000 1.0
C      1  0.4650480000000  0.5643440000000  0.5455920000000 1.0
C      1  0.4362060000000  0.5601250000000  0.5035980000000 1.0
C      1  0.5066990000000  0.5481250000000  0.5008080000000 1.0
C      1  0.5149040000000  0.5220250000000  0.4970140000000 1.0
C      1  0.5285590000000  0.4361740000000  0.4894720000000 1.0
C      1  0.5292660000000  0.4635050000000  0.4809040000000 1.0
END
