TITL C-1154825-9328-532 -0.000862714022315277 125000 -346.545116775185 0 0 60 (C1) n - 1
REM
REM in /home/nfs/bkarasulu/CARBON/AIRSS/Generating-Clusters/AIREBO/Higher-Symm/Only-C60
REM
REM
REM
REM
REM
REM ./C.cell (28575a23ae977d3b5fae324c64b13b57)
REM
REM compiler GCC version 9.2.1 20190827 (Red Hat 9.2.1-1)
REM options -cpp -mtune=generic -march=x86-64 -g -O0 -fpre-include=/usr/include/finclude/math-vector-fortran.h
REM seed 206970414 -1074666503 1468157751 1893784677 -1078835021 -331597201 2055977784 -1898873036 541787763 944301143 1934748820 -1647918682 -903910087 -1877182950 -533970051 -396811733 -849475602 -1776979357 -763493307 905363002 -1200215501 -2053407517 1979669927 1524575023 -746663198 1968274967 168389962 149353727 883063807 -1580154461 1281302817 810695395 1770121827
REM
CELL 1.54180   50.00000   50.00000   50.00000   90.00000   90.00000   90.00000
LATT -1
SFAC C  
C      1  0.4621020000000  0.4287810000000  0.4967120000000 1.0
C      1  0.4542930000000  0.5578280000000  0.5010440000000 1.0
C      1  0.5235080000000  0.5120770000000  0.4348830000000 1.0
C      1  0.5223490000000  0.4852300000000  0.4348290000000 1.0
C      1  0.5127740000000  0.4687980000000  0.5599510000000 1.0
C      1  0.5141530000000  0.5295680000000  0.5635570000000 1.0
C      1  0.4650270000000  0.4889990000000  0.4261930000000 1.0
C      1  0.4698270000000  0.5147830000000  0.4193390000000 1.0
C      1  0.4652500000000  0.5511430000000  0.5315710000000 1.0
C      1  0.4678500000000  0.4489230000000  0.5227670000000 1.0
C      1  0.5024780000000  0.5259810000000  0.4534590000000 1.0
C      1  0.5033680000000  0.4726820000000  0.4581120000000 1.0
C      1  0.4602500000000  0.5233740000000  0.5505480000000 1.0
C      1  0.4637560000000  0.4908090000000  0.5449380000000 1.0
C      1  0.5356260000000  0.4643170000000  0.4657370000000 1.0
C      1  0.5349620000000  0.5362540000000  0.4643000000000 1.0
C      1  0.4865630000000  0.5720510000000  0.5389160000000 1.0
C      1  0.4858790000000  0.4266960000000  0.5402500000000 1.0
C      1  0.5055180000000  0.5707540000000  0.4924660000000 1.0
C      1  0.5124730000000  0.4295160000000  0.4943660000000 1.0
C      1  0.5370580000000  0.4847340000000  0.5104500000000 1.0
C      1  0.5488550000000  0.5229380000000  0.5106840000000 1.0
C      1  0.4905650000000  0.5141640000000  0.5610560000000 1.0
C      1  0.4954630000000  0.4872690000000  0.5441350000000 1.0
C      1  0.4594070000000  0.4389070000000  0.4455180000000 1.0
C      1  0.4631890000000  0.5558270000000  0.4455260000000 1.0
C      1  0.4603530000000  0.4742330000000  0.4805640000000 1.0
C      1  0.4563940000000  0.5236410000000  0.4806920000000 1.0
C      1  0.5448860000000  0.5323020000000  0.4320140000000 1.0
C      1  0.5449910000000  0.4659110000000  0.4330850000000 1.0
C      1  0.4959690000000  0.5869180000000  0.5155080000000 1.0
C      1  0.4882040000000  0.4175440000000  0.5094040000000 1.0
C      1  0.5503950000000  0.4542230000000  0.5315980000000 1.0
C      1  0.5862110000000  0.5331100000000  0.5456720000000 1.0
C      1  0.5557690000000  0.4870270000000  0.5367850000000 1.0
C      1  0.5637810000000  0.5191400000000  0.5385360000000 1.0
C      1  0.5335080000000  0.4358260000000  0.4789050000000 1.0
C      1  0.5266050000000  0.5643940000000  0.4767610000000 1.0
C      1  0.4878430000000  0.5166360000000  0.4798810000000 1.0
C      1  0.4920510000000  0.4837350000000  0.4880270000000 1.0
C      1  0.5460430000000  0.4875110000000  0.4830820000000 1.0
C      1  0.5508300000000  0.5163660000000  0.4826610000000 1.0
C      1  0.5085220000000  0.4398800000000  0.5516220000000 1.0
C      1  0.5094230000000  0.5538450000000  0.5480780000000 1.0
C      1  0.4973700000000  0.4563110000000  0.5074360000000 1.0
C      1  0.4851510000000  0.5457290000000  0.4973740000000 1.0
C      1  0.5061190000000  0.5425910000000  0.5205810000000 1.0
C      1  0.5240200000000  0.4488340000000  0.5272360000000 1.0
C      1  0.4798990000000  0.5354960000000  0.4353120000000 1.0
C      1  0.4732830000000  0.4689180000000  0.4473920000000 1.0
C      1  0.4435330000000  0.4849300000000  0.5029410000000 1.0
C      1  0.4417400000000  0.5129600000000  0.5021790000000 1.0
C      1  0.4395420000000  0.5296880000000  0.5249870000000 1.0
C      1  0.4512210000000  0.4732230000000  0.5272070000000 1.0
C      1  0.5216050000000  0.5210120000000  0.5165170000000 1.0
C      1  0.5073940000000  0.4938760000000  0.5166270000000 1.0
C      1  0.5384070000000  0.5138540000000  0.5605630000000 1.0
C      1  0.5368920000000  0.4827870000000  0.5645060000000 1.0
C      1  0.4518830000000  0.5513830000000  0.4707540000000 1.0
C      1  0.4576170000000  0.4437630000000  0.4742020000000 1.0
END
