TITL C-1154801-8518-120 -2255.18536394712 125000 -318.127798096827 0 0 60 (C1) n - 1
REM
REM in /home/nfs/bkarasulu/CARBON/AIRSS/Generating-Clusters/AIREBO/Higher-Symm/Only-C60
REM
REM
REM
REM
REM
REM ./C.cell (28575a23ae977d3b5fae324c64b13b57)
REM
REM compiler GCC version 9.2.1 20190827 (Red Hat 9.2.1-1)
REM options -cpp -mtune=generic -march=x86-64 -g -O0 -fpre-include=/usr/include/finclude/math-vector-fortran.h
REM seed 551903930 -490033293 -694260744 705033309 -1466010305 -856155686 -1999376762 1483336245 -2008271792 -977782722 367816388 1516985875 201674513 767291773 -490968222 -924497453 -1903989273 -584682989 551044141 1763372201 -1815976670 -734365839 -1579795784 58049029 -708948383 -890748702 -911923461 911826920 -1690832474 -1839667640 -1362880545 898501318 459601776
REM
CELL 1.54180   50.00000   50.00000   50.00000   90.00000   90.00000   90.00000
LATT -1
SFAC C  
C      1  0.4127020000000  0.4581640000000  0.4589820000000 1.0
C      1  0.5707390000000  0.4601230000000  0.4626980000000 1.0
C      1  0.5046200000000  0.5937260000000  0.4536130000000 1.0
C      1  0.5485660000000  0.4655440000000  0.5175430000000 1.0
C      1  0.5052870000000  0.5570490000000  0.5181530000000 1.0
C      1  0.4466700000000  0.4756090000000  0.5160760000000 1.0
C      1  0.5288180000000  0.4375910000000  0.4568200000000 1.0
C      1  0.5292500000000  0.5487490000000  0.4545640000000 1.0
C      1  0.4283060000000  0.5151800000000  0.4557130000000 1.0
C      1  0.4968530000000  0.4295110000000  0.4627440000000 1.0
C      1  0.5567500000000  0.5329910000000  0.4623100000000 1.0
C      1  0.4395650000000  0.5460430000000  0.4624200000000 1.0
C      1  0.4709420000000  0.4659410000000  0.4976010000000 1.0
C      1  0.5460040000000  0.4906620000000  0.4974220000000 1.0
C      1  0.4839670000000  0.5430030000000  0.4987170000000 1.0
C      1  0.5704790000000  0.5129180000000  0.5195940000000 1.0
C      1  0.4542690000000  0.5556720000000  0.5220690000000 1.0
C      1  0.4775320000000  0.4331130000000  0.5191870000000 1.0
C      1  0.5325780000000  0.4997460000000  0.5694320000000 1.0
C      1  0.4808100000000  0.5267260000000  0.5717450000000 1.0
C      1  0.4793080000000  0.4761990000000  0.5691360000000 1.0
C      1  0.5400900000000  0.4756500000000  0.5574130000000 1.0
C      1  0.5042000000000  0.5431200000000  0.5624690000000 1.0
C      1  0.4546820000000  0.4790960000000  0.5558070000000 1.0
C      1  0.5193690000000  0.5773460000000  0.5049330000000 1.0
C      1  0.4203960000000  0.4773430000000  0.5059240000000 1.0
C      1  0.5587290000000  0.4401850000000  0.5110250000000 1.0
C      1  0.4359160000000  0.4684610000000  0.4619890000000 1.0
C      1  0.5879580000000  0.4415080000000  0.4598110000000 1.0
C      1  0.5103230000000  0.5700160000000  0.4623020000000 1.0
C      1  0.4575420000000  0.5252520000000  0.5106850000000 1.0
C      1  0.5001930000000  0.4548240000000  0.5108990000000 1.0
C      1  0.5399630000000  0.5206660000000  0.5122510000000 1.0
C      1  0.4815270000000  0.4538980000000  0.4496480000000 1.0
C      1  0.5556210000000  0.5064450000000  0.4472220000000 1.0
C      1  0.4687800000000  0.5450910000000  0.4497320000000 1.0
C      1  0.5225560000000  0.5348850000000  0.5321250000000 1.0
C      1  0.4557670000000  0.5029840000000  0.5316320000000 1.0
C      1  0.5195090000000  0.4644810000000  0.5327590000000 1.0
C      1  0.5100840000000  0.4619410000000  0.4440760000000 1.0
C      1  0.5271630000000  0.5185530000000  0.4399470000000 1.0
C      1  0.4575850000000  0.5174140000000  0.4416380000000 1.0
C      1  0.4521010000000  0.5204090000000  0.4809110000000 1.0
C      1  0.5113930000000  0.4528080000000  0.4827960000000 1.0
C      1  0.5324310000000  0.5254140000000  0.4831000000000 1.0
C      1  0.5020380000000  0.4644850000000  0.5602390000000 1.0
C      1  0.5303400000000  0.5254930000000  0.5622770000000 1.0
C      1  0.4609180000000  0.5180720000000  0.5599000000000 1.0
C      1  0.4767390000000  0.5675940000000  0.5306120000000 1.0
C      1  0.4535080000000  0.4432960000000  0.5255100000000 1.0
C      1  0.5736810000000  0.4869700000000  0.5261810000000 1.0
C      1  0.4742190000000  0.5007310000000  0.4643390000000 1.0
C      1  0.5209530000000  0.4816740000000  0.4675850000000 1.0
C      1  0.5061540000000  0.5122980000000  0.4659530000000 1.0
C      1  0.4412510000000  0.4551230000000  0.5498610000000 1.0
C      1  0.5675930000000  0.4730770000000  0.5518030000000 1.0
C      1  0.4934270000000  0.5701850000000  0.5540230000000 1.0
C      1  0.4662540000000  0.4718390000000  0.4680850000000 1.0
C      1  0.5526110000000  0.4838380000000  0.4671050000000 1.0
C      1  0.4924160000000  0.5432750000000  0.4688910000000 1.0
END
