TITL C-1154830-9999-290 0.000196459840324302 125000 -372.224399055786 0 0 60 (C1) n - 1
REM
REM in /home/nfs/bkarasulu/CARBON/AIRSS/Generating-Clusters/AIREBO/Higher-Symm/Only-C60
REM
REM
REM
REM
REM
REM ./C.cell (28575a23ae977d3b5fae324c64b13b57)
REM
REM compiler GCC version 9.2.1 20190827 (Red Hat 9.2.1-1)
REM options -cpp -mtune=generic -march=x86-64 -g -O0 -fpre-include=/usr/include/finclude/math-vector-fortran.h
REM seed 1947802154 1940972172 1682953743 1594276423 -1705805850 -1866079048 -761244735 2040117724 -419346315 -285382297 -1514845869 209092983 -1435391393 800049091 -1276260907 2077601350 134447021 496740179 -370279574 -164829856 -628328529 -1740410613 -111668382 -1586064517 1886528169 591831890 -2144671118 -487423818 -1927551885 1253302548 -315285846 -1451283195 -1263896786
REM
CELL 1.54180   50.00000   50.00000   50.00000   90.00000   90.00000   90.00000
LATT -1
SFAC C  
C      1  0.5503410000000  0.5036200000000  0.4765940000000 1.0
C      1  0.4771780000000  0.5574460000000  0.5079270000000 1.0
C      1  0.5057890000000  0.4762470000000  0.5432470000000 1.0
C      1  0.4462440000000  0.4851270000000  0.4771270000000 1.0
C      1  0.4616330000000  0.5019440000000  0.5214620000000 1.0
C      1  0.5591810000000  0.4883550000000  0.5223640000000 1.0
C      1  0.5242180000000  0.4383890000000  0.5151460000000 1.0
C      1  0.5195320000000  0.5683220000000  0.4896940000000 1.0
C      1  0.4752920000000  0.4529430000000  0.5020450000000 1.0
C      1  0.4882820000000  0.5217290000000  0.5612770000000 1.0
C      1  0.5044520000000  0.4854320000000  0.4363830000000 1.0
C      1  0.5159830000000  0.5271700000000  0.4435450000000 1.0
C      1  0.4924600000000  0.5630540000000  0.4854900000000 1.0
C      1  0.5582910000000  0.4831780000000  0.4935180000000 1.0
C      1  0.4813840000000  0.4948350000000  0.5483430000000 1.0
C      1  0.4851950000000  0.4425670000000  0.4753450000000 1.0
C      1  0.4985480000000  0.4509550000000  0.5248130000000 1.0
C      1  0.4872130000000  0.5678720000000  0.5320390000000 1.0
C      1  0.4557230000000  0.5321410000000  0.5121440000000 1.0
C      1  0.5575790000000  0.5297980000000  0.4836140000000 1.0
C      1  0.4629140000000  0.4810670000000  0.4988860000000 1.0
C      1  0.5310590000000  0.4929610000000  0.5376010000000 1.0
C      1  0.4778780000000  0.4891640000000  0.4336910000000 1.0
C      1  0.5326460000000  0.4985990000000  0.4501380000000 1.0
C      1  0.5191440000000  0.4613410000000  0.4453310000000 1.0
C      1  0.4486720000000  0.5107340000000  0.4659210000000 1.0
C      1  0.4499130000000  0.4408610000000  0.5199940000000 1.0
C      1  0.4885000000000  0.5332900000000  0.4477180000000 1.0
C      1  0.4677820000000  0.4479330000000  0.5649230000000 1.0
C      1  0.5128870000000  0.5346080000000  0.5543050000000 1.0
C      1  0.5657200000000  0.4557790000000  0.4564980000000 1.0
C      1  0.5581560000000  0.5210140000000  0.5311240000000 1.0
C      1  0.4437930000000  0.4833730000000  0.5414410000000 1.0
C      1  0.5307590000000  0.5575210000000  0.5139540000000 1.0
C      1  0.5321350000000  0.4432360000000  0.4888310000000 1.0
C      1  0.4509850000000  0.5566770000000  0.4669700000000 1.0
C      1  0.4686940000000  0.5129490000000  0.4454330000000 1.0
C      1  0.5121680000000  0.4465540000000  0.4688230000000 1.0
C      1  0.4313940000000  0.4608140000000  0.5288230000000 1.0
C      1  0.5475400000000  0.4693350000000  0.4399170000000 1.0
C      1  0.4607160000000  0.4755760000000  0.5649100000000 1.0
C      1  0.5354310000000  0.5183580000000  0.5524560000000 1.0
C      1  0.4792510000000  0.5567290000000  0.4615170000000 1.0
C      1  0.5132110000000  0.5574570000000  0.5371120000000 1.0
C      1  0.4731030000000  0.4375850000000  0.5387730000000 1.0
C      1  0.5519570000000  0.5386670000000  0.5102820000000 1.0
C      1  0.4441230000000  0.5333940000000  0.4819970000000 1.0
C      1  0.5568970000000  0.4569850000000  0.4835180000000 1.0
C      1  0.4667550000000  0.5667850000000  0.5522760000000 1.0
C      1  0.4657080000000  0.5380580000000  0.5659000000000 1.0
C      1  0.5593190000000  0.4653380000000  0.5436370000000 1.0
C      1  0.5310830000000  0.4595140000000  0.5586920000000 1.0
C      1  0.5334720000000  0.5494360000000  0.4427630000000 1.0
C      1  0.4460480000000  0.5445590000000  0.5405520000000 1.0
C      1  0.4418700000000  0.4637380000000  0.4587820000000 1.0
C      1  0.5583930000000  0.5493930000000  0.4631300000000 1.0
C      1  0.5427150000000  0.4388270000000  0.5366370000000 1.0
C      1  0.5357630000000  0.5716420000000  0.4665680000000 1.0
C      1  0.4659850000000  0.4427620000000  0.4550050000000 1.0
C      1  0.4609420000000  0.4662650000000  0.4330560000000 1.0
END
