TITL C-1154828-9214-339 -120.866027751819 125000 -325.197412812916 0 0 60 (C2) n - 1
REM
REM in /home/nfs/bkarasulu/CARBON/AIRSS/Generating-Clusters/AIREBO/Higher-Symm/Only-C60
REM
REM
REM
REM
REM
REM ./C.cell (28575a23ae977d3b5fae324c64b13b57)
REM
REM compiler GCC version 9.2.1 20190827 (Red Hat 9.2.1-1)
REM options -cpp -mtune=generic -march=x86-64 -g -O0 -fpre-include=/usr/include/finclude/math-vector-fortran.h
REM seed 2061603936 -559402277 -259212545 -1526814743 657056382 -1649280765 -476902837 -1437884526 -175968984 -1907678208 -648523855 326782547 1771878706 -1943917467 -1732372222 -1003243 -557288542 -1477871946 973525097 1315658472 -965256473 -1441228613 944234521 -1496783045 2124609348 -308058630 324393175 1829877394 -232050585 641539421 -763539338 1972401575 348420871
REM
CELL 1.54180   50.00000   50.00000   50.00000   90.00000   90.00000   90.00000
LATT -1
SFAC C  
C      1  0.4270440000000  0.5252650000000  0.5084690000000 1.0
C      1  0.4110910000000  0.5184700000000  0.4852230000000 1.0
C      1  0.4235510000000  0.4960340000000  0.4717420000000 1.0
C      1  0.4270450000000  0.4747300000000  0.4915340000000 1.0
C      1  0.4110930000000  0.4815230000000  0.5147810000000 1.0
C      1  0.4235520000000  0.5039600000000  0.5282620000000 1.0
C      1  0.5311930000000  0.5191700000000  0.4864200000000 1.0
C      1  0.5277510000000  0.5007160000000  0.4586180000000 1.0
C      1  0.5228870000000  0.4804610000000  0.4821230000000 1.0
C      1  0.5311950000000  0.4808320000000  0.5135780000000 1.0
C      1  0.5277530000000  0.4992860000000  0.5413800000000 1.0
C      1  0.5228870000000  0.5195410000000  0.5178760000000 1.0
C      1  0.4951880000000  0.5550130000000  0.5307420000000 1.0
C      1  0.5040180000000  0.5593270000000  0.4712870000000 1.0
C      1  0.4871630000000  0.4985660000000  0.4336150000000 1.0
C      1  0.4951910000000  0.4449870000000  0.4692580000000 1.0
C      1  0.5040240000000  0.4406740000000  0.5287130000000 1.0
C      1  0.4871650000000  0.5014330000000  0.5663850000000 1.0
C      1  0.5759930000000  0.5103320000000  0.4732110000000 1.0
C      1  0.5699440000000  0.4768450000000  0.4748710000000 1.0
C      1  0.5670810000000  0.4652810000000  0.5058100000000 1.0
C      1  0.5759960000000  0.4896720000000  0.5267870000000 1.0
C      1  0.5699430000000  0.5231620000000  0.5251260000000 1.0
C      1  0.5670780000000  0.5347240000000  0.4941870000000 1.0
C      1  0.5439190000000  0.4562210000000  0.4829850000000 1.0
C      1  0.5520630000000  0.4668020000000  0.5362800000000 1.0
C      1  0.5564720000000  0.5046250000000  0.5497960000000 1.0
C      1  0.5439160000000  0.5437830000000  0.5170130000000 1.0
C      1  0.5520580000000  0.5332010000000  0.4637180000000 1.0
C      1  0.5564700000000  0.4953790000000  0.4502010000000 1.0
C      1  0.5070660000000  0.5250880000000  0.4347680000000 1.0
C      1  0.4949750000000  0.4489350000000  0.4387650000000 1.0
C      1  0.5169360000000  0.4221170000000  0.5078250000000 1.0
C      1  0.5070710000000  0.4749130000000  0.5652320000000 1.0
C      1  0.4949740000000  0.5510640000000  0.5612360000000 1.0
C      1  0.5169300000000  0.5778840000000  0.4921740000000 1.0
C      1  0.5014670000000  0.4693650000000  0.5137360000000 1.0
C      1  0.4946380000000  0.4960670000000  0.5336470000000 1.0
C      1  0.4911120000000  0.5252040000000  0.5164360000000 1.0
C      1  0.5014640000000  0.5306350000000  0.4862640000000 1.0
C      1  0.4946360000000  0.5039320000000  0.4663540000000 1.0
C      1  0.4911130000000  0.4747950000000  0.4835650000000 1.0
C      1  0.5215090000000  0.4345920000000  0.4832610000000 1.0
C      1  0.5218080000000  0.4601440000000  0.5468780000000 1.0
C      1  0.4972650000000  0.5296540000000  0.5740350000000 1.0
C      1  0.5215040000000  0.5654100000000  0.5167380000000 1.0
C      1  0.5218030000000  0.5398580000000  0.4531210000000 1.0
C      1  0.4972640000000  0.4703460000000  0.4259650000000 1.0
C      1  0.4562240000000  0.5001180000000  0.4318580000000 1.0
C      1  0.4657560000000  0.4443760000000  0.4862650000000 1.0
C      1  0.4726080000000  0.4483370000000  0.5317200000000 1.0
C      1  0.4562270000000  0.4998780000000  0.5681440000000 1.0
C      1  0.4657530000000  0.5556210000000  0.5137360000000 1.0
C      1  0.4726030000000  0.5516610000000  0.4682810000000 1.0
C      1  0.4654140000000  0.5200910000000  0.4728890000000 1.0
C      1  0.4451490000000  0.5048370000000  0.4561890000000 1.0
C      1  0.4527200000000  0.4642940000000  0.4996780000000 1.0
C      1  0.4654170000000  0.4799070000000  0.5271120000000 1.0
C      1  0.4451520000000  0.4951590000000  0.5438130000000 1.0
C      1  0.4527170000000  0.5357020000000  0.5003240000000 1.0
END
