TITL C-1154826-9507-496 -0.00174525923284018 125000 -339.45900575443 0 0 60 (C1) n - 1
REM
REM in /home/nfs/bkarasulu/CARBON/AIRSS/Generating-Clusters/AIREBO/Higher-Symm/Only-C60
REM
REM
REM
REM
REM
REM ./C.cell (28575a23ae977d3b5fae324c64b13b57)
REM
REM compiler GCC version 9.2.1 20190827 (Red Hat 9.2.1-1)
REM options -cpp -mtune=generic -march=x86-64 -g -O0 -fpre-include=/usr/include/finclude/math-vector-fortran.h
REM seed -270430745 1152643237 1065646337 -1007312915 -964461805 1559464766 -455904070 -1813055151 640186268 -319528396 765340167 780680859 28425613 -122294851 660492122 -1487089489 466260807 -1486442828 -71359 -1879978232 171391506 543758790 -2585967 -1531479225 1887947993 1562726324 819494924 1428770802 1693115655 1307083182 -1420916822 -996120 1567566868
REM
CELL 1.54180   50.00000   50.00000   50.00000   90.00000   90.00000   90.00000
LATT -1
SFAC C  
C      1  0.5299600000000  0.5040640000000  0.5066120000000 1.0
C      1  0.4872810000000  0.4738010000000  0.5087100000000 1.0
C      1  0.4782270000000  0.5026530000000  0.4934690000000 1.0
C      1  0.5133710000000  0.4837320000000  0.4920340000000 1.0
C      1  0.4689060000000  0.5168000000000  0.5528650000000 1.0
C      1  0.5308120000000  0.4775330000000  0.5571950000000 1.0
C      1  0.5314200000000  0.5223330000000  0.4403690000000 1.0
C      1  0.4708870000000  0.4800940000000  0.4453210000000 1.0
C      1  0.5061670000000  0.5767680000000  0.4816220000000 1.0
C      1  0.4988790000000  0.4242730000000  0.4880090000000 1.0
C      1  0.4986370000000  0.5742530000000  0.5083520000000 1.0
C      1  0.5059150000000  0.4221410000000  0.5150650000000 1.0
C      1  0.4849930000000  0.4343040000000  0.5603600000000 1.0
C      1  0.5143480000000  0.5610830000000  0.5558710000000 1.0
C      1  0.5185850000000  0.4383450000000  0.4437710000000 1.0
C      1  0.4864490000000  0.5635120000000  0.4374960000000 1.0
C      1  0.4718090000000  0.5488180000000  0.5417980000000 1.0
C      1  0.5303980000000  0.4466260000000  0.5537470000000 1.0
C      1  0.5322450000000  0.5537580000000  0.4424970000000 1.0
C      1  0.4730180000000  0.4498070000000  0.4506480000000 1.0
C      1  0.5203160000000  0.5338600000000  0.5596400000000 1.0
C      1  0.4743630000000  0.4612720000000  0.5708540000000 1.0
C      1  0.4777740000000  0.5370050000000  0.4383740000000 1.0
C      1  0.5285350000000  0.4644510000000  0.4318240000000 1.0
C      1  0.4098960000000  0.5409730000000  0.5208080000000 1.0
C      1  0.5851360000000  0.4520430000000  0.5213260000000 1.0
C      1  0.5723020000000  0.5564020000000  0.4781370000000 1.0
C      1  0.4099050000000  0.4692670000000  0.4811240000000 1.0
C      1  0.4944100000000  0.5652890000000  0.5356360000000 1.0
C      1  0.5079160000000  0.4315790000000  0.5429590000000 1.0
C      1  0.5098030000000  0.5687950000000  0.4536170000000 1.0
C      1  0.4958350000000  0.4351070000000  0.4610340000000 1.0
C      1  0.4269860000000  0.4778400000000  0.5000730000000 1.0
C      1  0.5583040000000  0.5404770000000  0.4946280000000 1.0
C      1  0.5670550000000  0.4652150000000  0.5063150000000 1.0
C      1  0.4326180000000  0.5361640000000  0.5072080000000 1.0
C      1  0.4635110000000  0.5064300000000  0.4391900000000 1.0
C      1  0.5396470000000  0.4955550000000  0.4357330000000 1.0
C      1  0.5366870000000  0.5042240000000  0.5620540000000 1.0
C      1  0.4620440000000  0.4921700000000  0.5635600000000 1.0
C      1  0.5651750000000  0.5365290000000  0.5217540000000 1.0
C      1  0.4277110000000  0.4670230000000  0.5260430000000 1.0
C      1  0.4334390000000  0.5352910000000  0.4793680000000 1.0
C      1  0.5705230000000  0.4682890000000  0.4784060000000 1.0
C      1  0.4480510000000  0.4716340000000  0.5436370000000 1.0
C      1  0.5495140000000  0.5200880000000  0.5374330000000 1.0
C      1  0.5538430000000  0.4780930000000  0.4589230000000 1.0
C      1  0.4527680000000  0.5229610000000  0.4649820000000 1.0
C      1  0.4867830000000  0.5226290000000  0.4673130000000 1.0
C      1  0.5216150000000  0.4730340000000  0.4633470000000 1.0
C      1  0.5161570000000  0.5175860000000  0.5305750000000 1.0
C      1  0.4807160000000  0.4674300000000  0.5385640000000 1.0
C      1  0.5128380000000  0.4739060000000  0.5306800000000 1.0
C      1  0.4859640000000  0.5162810000000  0.5236670000000 1.0
C      1  0.4894020000000  0.4809430000000  0.4694480000000 1.0
C      1  0.5177170000000  0.5260260000000  0.4671260000000 1.0
C      1  0.4570770000000  0.5337680000000  0.5189550000000 1.0
C      1  0.5436620000000  0.4754600000000  0.5164070000000 1.0
C      1  0.5360260000000  0.5256470000000  0.4876930000000 1.0
C      1  0.4456680000000  0.4985670000000  0.4957760000000 1.0
END
