TITL C-1154804-8633-471 -0.000699066556915876 125000 -311.975228342713 0 0 60 (C1) n - 1
REM
REM in /home/nfs/bkarasulu/CARBON/AIRSS/Generating-Clusters/AIREBO/Higher-Symm/Only-C60
REM
REM
REM
REM
REM
REM ./C.cell (28575a23ae977d3b5fae324c64b13b57)
REM
REM compiler GCC version 9.2.1 20190827 (Red Hat 9.2.1-1)
REM options -cpp -mtune=generic -march=x86-64 -g -O0 -fpre-include=/usr/include/finclude/math-vector-fortran.h
REM seed 1685080157 -1274657836 1653536410 -1621732935 -783827274 408191136 -556327609 -1996292821 -1254264888 863907217 1196637815 -699281356 2100209726 1552820374 1630861356 -1219495978 185892652 -74467446 1155554661 373393147 -1219606016 -1593547160 -32577513 -232491436 -157695182 -1516252265 1967878092 620698455 918864546 -2014089224 1011334232 -1926159456 1437614565
REM
CELL 1.54180   50.00000   50.00000   50.00000   90.00000   90.00000   90.00000
LATT -1
SFAC C  
C      1  0.4417390000000  0.5169680000000  0.4714430000000 1.0
C      1  0.5056740000000  0.5396650000000  0.4384600000000 1.0
C      1  0.4691230000000  0.4602370000000  0.4481070000000 1.0
C      1  0.4592150000000  0.5396470000000  0.4704590000000 1.0
C      1  0.4899020000000  0.5263520000000  0.5465900000000 1.0
C      1  0.4594910000000  0.5663120000000  0.5410470000000 1.0
C      1  0.5456970000000  0.5632090000000  0.4861080000000 1.0
C      1  0.5398140000000  0.4394650000000  0.4987860000000 1.0
C      1  0.4406140000000  0.5123550000000  0.5548270000000 1.0
C      1  0.4529060000000  0.4843930000000  0.5662640000000 1.0
C      1  0.4782720000000  0.5398710000000  0.5184920000000 1.0
C      1  0.4856510000000  0.4941950000000  0.4640580000000 1.0
C      1  0.5444100000000  0.4428590000000  0.4714930000000 1.0
C      1  0.5243030000000  0.5715560000000  0.4718590000000 1.0
C      1  0.5616320000000  0.5359690000000  0.4987820000000 1.0
C      1  0.5036290000000  0.4599070000000  0.5551590000000 1.0
C      1  0.5560030000000  0.5178520000000  0.5261230000000 1.0
C      1  0.4520600000000  0.4641010000000  0.5203200000000 1.0
C      1  0.4722720000000  0.4532430000000  0.4795500000000 1.0
C      1  0.4939640000000  0.4761700000000  0.4921930000000 1.0
C      1  0.5685880000000  0.4731640000000  0.5130100000000 1.0
C      1  0.4722770000000  0.4498290000000  0.5334750000000 1.0
C      1  0.4864990000000  0.5408010000000  0.4893310000000 1.0
C      1  0.4774440000000  0.4983260000000  0.5496380000000 1.0
C      1  0.4903500000000  0.5662500000000  0.5356160000000 1.0
C      1  0.4467360000000  0.4584000000000  0.4942620000000 1.0
C      1  0.4552240000000  0.4966020000000  0.4571620000000 1.0
C      1  0.5111960000000  0.4832280000000  0.4223230000000 1.0
C      1  0.5205290000000  0.5227410000000  0.5464380000000 1.0
C      1  0.5295050000000  0.5007070000000  0.5237290000000 1.0
C      1  0.4460170000000  0.5425600000000  0.5257040000000 1.0
C      1  0.4818540000000  0.5260660000000  0.4527880000000 1.0
C      1  0.5768630000000  0.4772880000000  0.4812970000000 1.0
C      1  0.4293700000000  0.4765020000000  0.4800830000000 1.0
C      1  0.5168190000000  0.5473070000000  0.5257120000000 1.0
C      1  0.4936900000000  0.4607570000000  0.4353400000000 1.0
C      1  0.4943090000000  0.4343320000000  0.4651870000000 1.0
C      1  0.5352450000000  0.4677370000000  0.5171310000000 1.0
C      1  0.5202590000000  0.4522190000000  0.4557220000000 1.0
C      1  0.4394900000000  0.4717010000000  0.4495810000000 1.0
C      1  0.5256460000000  0.5139830000000  0.4739210000000 1.0
C      1  0.5769260000000  0.5018240000000  0.5129210000000 1.0
C      1  0.5108230000000  0.5219690000000  0.5038300000000 1.0
C      1  0.5517680000000  0.4984200000000  0.4821390000000 1.0
C      1  0.4344340000000  0.5121840000000  0.5213370000000 1.0
C      1  0.4250270000000  0.5052040000000  0.4923790000000 1.0
C      1  0.5026110000000  0.4590110000000  0.5210710000000 1.0
C      1  0.4730940000000  0.4608260000000  0.5623470000000 1.0
C      1  0.5269340000000  0.4764970000000  0.4867670000000 1.0
C      1  0.5168670000000  0.4860630000000  0.4557320000000 1.0
C      1  0.5250020000000  0.4554040000000  0.5712840000000 1.0
C      1  0.5693540000000  0.4531900000000  0.4654160000000 1.0
C      1  0.4848020000000  0.5011040000000  0.5104420000000 1.0
C      1  0.4599320000000  0.5320620000000  0.5616180000000 1.0
C      1  0.5435860000000  0.5585130000000  0.5169110000000 1.0
C      1  0.5356970000000  0.5237420000000  0.5722830000000 1.0
C      1  0.5290300000000  0.5258950000000  0.4438100000000 1.0
C      1  0.4995360000000  0.5565030000000  0.4644830000000 1.0
C      1  0.4582480000000  0.4928860000000  0.5247550000000 1.0
C      1  0.5820490000000  0.5138720000000  0.4829050000000 1.0
END
