TITL C-1154827-9204-447 -0.00515905070982061 125000 -322.671898862187 0 0 60 (C1) n - 1
REM
REM in /home/nfs/bkarasulu/CARBON/AIRSS/Generating-Clusters/AIREBO/Higher-Symm/Only-C60
REM
REM
REM
REM
REM
REM ./C.cell (28575a23ae977d3b5fae324c64b13b57)
REM
REM compiler GCC version 9.2.1 20190827 (Red Hat 9.2.1-1)
REM options -cpp -mtune=generic -march=x86-64 -g -O0 -fpre-include=/usr/include/finclude/math-vector-fortran.h
REM seed 2009492149 1209378124 -1002916730 1880424301 670962355 -263046706 521180230 -842892398 -1354748047 -621588156 481311491 -2032863750 -669346419 1135355736 1247675369 -1272964359 -2121472808 -614789983 -193602462 -790419271 -39789720 -1488228740 1551282548 1595373498 109565143 -728850479 2068394168 265393714 1894577993 -116254342 -257049804 -961107459 908915432
REM
CELL 1.54180   50.00000   50.00000   50.00000   90.00000   90.00000   90.00000
LATT -1
SFAC C  
C      1  0.5573130000000  0.4843350000000  0.5386410000000 1.0
C      1  0.4681820000000  0.4612840000000  0.5418260000000 1.0
C      1  0.4548340000000  0.5599040000000  0.5117280000000 1.0
C      1  0.5402360000000  0.5326550000000  0.4799520000000 1.0
C      1  0.4991400000000  0.4841390000000  0.5526930000000 1.0
C      1  0.5262020000000  0.4785790000000  0.4947280000000 1.0
C      1  0.4367600000000  0.5034890000000  0.4779760000000 1.0
C      1  0.5002200000000  0.4270670000000  0.5207830000000 1.0
C      1  0.4590650000000  0.5113470000000  0.5671120000000 1.0
C      1  0.5077520000000  0.5292900000000  0.4430750000000 1.0
C      1  0.4405940000000  0.4790630000000  0.4992140000000 1.0
C      1  0.5080540000000  0.5154050000000  0.5626970000000 1.0
C      1  0.4754960000000  0.4807570000000  0.4702910000000 1.0
C      1  0.5219430000000  0.5589640000000  0.4816070000000 1.0
C      1  0.4651010000000  0.5085780000000  0.4603070000000 1.0
C      1  0.5405210000000  0.5239110000000  0.5128080000000 1.0
C      1  0.5768370000000  0.5045270000000  0.4557790000000 1.0
C      1  0.5008690000000  0.4791660000000  0.4357190000000 1.0
C      1  0.4422060000000  0.5313790000000  0.4922260000000 1.0
C      1  0.5071200000000  0.4304630000000  0.4706680000000 1.0
C      1  0.4966980000000  0.5544020000000  0.4631620000000 1.0
C      1  0.4605990000000  0.4348570000000  0.4896140000000 1.0
C      1  0.5568110000000  0.5108240000000  0.4363290000000 1.0
C      1  0.5496560000000  0.4409550000000  0.5118030000000 1.0
C      1  0.5134350000000  0.5171420000000  0.5232370000000 1.0
C      1  0.5213780000000  0.5389890000000  0.5444880000000 1.0
C      1  0.5353270000000  0.5258900000000  0.4470930000000 1.0
C      1  0.4934160000000  0.4773500000000  0.4980670000000 1.0
C      1  0.5739400000000  0.4945320000000  0.4870580000000 1.0
C      1  0.5321750000000  0.4913260000000  0.5563910000000 1.0
C      1  0.4870570000000  0.4956790000000  0.5233120000000 1.0
C      1  0.5723040000000  0.5255020000000  0.4795100000000 1.0
C      1  0.5669550000000  0.4538580000000  0.5284650000000 1.0
C      1  0.5328870000000  0.4606790000000  0.4692200000000 1.0
C      1  0.5559280000000  0.4842500000000  0.5050480000000 1.0
C      1  0.5320470000000  0.5616780000000  0.5315440000000 1.0
C      1  0.4884000000000  0.4178070000000  0.4968600000000 1.0
C      1  0.4994880000000  0.4529080000000  0.5421040000000 1.0
C      1  0.4837770000000  0.4521030000000  0.4781290000000 1.0
C      1  0.5162180000000  0.5660210000000  0.5078940000000 1.0
C      1  0.4700300000000  0.5524900000000  0.5412640000000 1.0
C      1  0.5207440000000  0.4524670000000  0.5158320000000 1.0
C      1  0.4784000000000  0.5319840000000  0.5597290000000 1.0
C      1  0.5379880000000  0.4347860000000  0.4843900000000 1.0
C      1  0.4691580000000  0.5497480000000  0.4825940000000 1.0
C      1  0.4738440000000  0.4874310000000  0.5748590000000 1.0
C      1  0.4410450000000  0.5062480000000  0.5457200000000 1.0
C      1  0.4385530000000  0.4519060000000  0.4941800000000 1.0
C      1  0.4756340000000  0.5251020000000  0.5130600000000 1.0
C      1  0.5112400000000  0.4572170000000  0.4498330000000 1.0
C      1  0.5609200000000  0.5157790000000  0.5288660000000 1.0
C      1  0.4910030000000  0.5553230000000  0.5156980000000 1.0
C      1  0.4130490000000  0.5018820000000  0.4630920000000 1.0
C      1  0.4919660000000  0.5061930000000  0.4399940000000 1.0
C      1  0.4557540000000  0.5352560000000  0.4431530000000 1.0
C      1  0.4709960000000  0.5554480000000  0.4430880000000 1.0
C      1  0.5159250000000  0.5092650000000  0.4841860000000 1.0
C      1  0.4872570000000  0.5209610000000  0.4829340000000 1.0
C      1  0.4448590000000  0.5240230000000  0.5229190000000 1.0
C      1  0.4546960000000  0.4854390000000  0.5254490000000 1.0
END
