TITL C-1154802-8274-332 0.000680559203874789 125000 -303.239043816536 0 0 60 (C1) n - 1
REM
REM in /home/nfs/bkarasulu/CARBON/AIRSS/Generating-Clusters/AIREBO/Higher-Symm/Only-C60
REM
REM
REM
REM
REM
REM ./C.cell (28575a23ae977d3b5fae324c64b13b57)
REM
REM compiler GCC version 9.2.1 20190827 (Red Hat 9.2.1-1)
REM options -cpp -mtune=generic -march=x86-64 -g -O0 -fpre-include=/usr/include/finclude/math-vector-fortran.h
REM seed -1509163515 103359019 1149048120 2108232501 -205331595 -735378975 1087501725 -2046317304 -1951345219 718822602 1879265798 -1100572651 -320336878 1040428695 354838048 1629699406 616664752 1635084918 1852117030 1243961343 -220356755 1950438366 -1880497470 -913674486 -2039787341 -1075411019 -1866593879 51760463 -1810043432 -2009256347 -1355591788 652327590 -938325108
REM
CELL 1.54180   50.00000   50.00000   50.00000   90.00000   90.00000   90.00000
LATT -1
SFAC C  
C      1  0.5006100000000  0.5318270000000  0.5038380000000 1.0
C      1  0.4417940000000  0.4969320000000  0.4730850000000 1.0
C      1  0.5206770000000  0.5208840000000  0.4301860000000 1.0
C      1  0.5771240000000  0.4912170000000  0.5095110000000 1.0
C      1  0.4929080000000  0.4863460000000  0.5247130000000 1.0
C      1  0.4717300000000  0.5230810000000  0.5437160000000 1.0
C      1  0.5495460000000  0.5072720000000  0.5631780000000 1.0
C      1  0.4811840000000  0.4303420000000  0.5108490000000 1.0
C      1  0.4925410000000  0.5007610000000  0.4925770000000 1.0
C      1  0.4810840000000  0.4863450000000  0.4135060000000 1.0
C      1  0.4665900000000  0.5477080000000  0.4901130000000 1.0
C      1  0.4996390000000  0.5512660000000  0.5317280000000 1.0
C      1  0.4418940000000  0.4912190000000  0.5351200000000 1.0
C      1  0.5487650000000  0.5365690000000  0.5184210000000 1.0
C      1  0.4258450000000  0.4463600000000  0.4840290000000 1.0
C      1  0.5214420000000  0.5721420000000  0.4841400000000 1.0
C      1  0.4597690000000  0.4624790000000  0.5386480000000 1.0
C      1  0.4615830000000  0.5145460000000  0.4896470000000 1.0
C      1  0.4481010000000  0.5543740000000  0.5364530000000 1.0
C      1  0.4420740000000  0.5257980000000  0.4499810000000 1.0
C      1  0.5341260000000  0.5301880000000  0.4573080000000 1.0
C      1  0.5722680000000  0.4918100000000  0.4813940000000 1.0
C      1  0.4957920000000  0.4384920000000  0.4556970000000 1.0
C      1  0.5123030000000  0.4607110000000  0.5358890000000 1.0
C      1  0.5494960000000  0.5621290000000  0.4981790000000 1.0
C      1  0.5433890000000  0.5561970000000  0.4673580000000 1.0
C      1  0.5334940000000  0.4746710000000  0.4507280000000 1.0
C      1  0.5036390000000  0.5010900000000  0.4291180000000 1.0
C      1  0.5205720000000  0.4860680000000  0.4801250000000 1.0
C      1  0.5319030000000  0.4825600000000  0.5187070000000 1.0
C      1  0.4461720000000  0.4939360000000  0.4407490000000 1.0
C      1  0.5121010000000  0.4618300000000  0.5691300000000 1.0
C      1  0.4823680000000  0.4446630000000  0.5342430000000 1.0
C      1  0.5467290000000  0.4780310000000  0.5497100000000 1.0
C      1  0.5437630000000  0.4478880000000  0.5341140000000 1.0
C      1  0.4973120000000  0.5594590000000  0.4870710000000 1.0
C      1  0.4743620000000  0.4750000000000  0.4798010000000 1.0
C      1  0.4862940000000  0.4973460000000  0.5562160000000 1.0
C      1  0.5225230000000  0.4583580000000  0.4967120000000 1.0
C      1  0.4514800000000  0.5470720000000  0.4615930000000 1.0
C      1  0.5234280000000  0.4498230000000  0.4638080000000 1.0
C      1  0.5769740000000  0.5180770000000  0.5204900000000 1.0
C      1  0.5313400000000  0.5502170000000  0.5442360000000 1.0
C      1  0.5687660000000  0.4694290000000  0.5259080000000 1.0
C      1  0.5294240000000  0.5214270000000  0.4960300000000 1.0
C      1  0.4967550000000  0.4800090000000  0.5782020000000 1.0
C      1  0.4414610000000  0.4664200000000  0.4805560000000 1.0
C      1  0.5322250000000  0.5115430000000  0.5344490000000 1.0
C      1  0.4783150000000  0.4844940000000  0.4473630000000 1.0
C      1  0.4510450000000  0.4626310000000  0.4283950000000 1.0
C      1  0.4383270000000  0.5271420000000  0.5486050000000 1.0
C      1  0.4700990000000  0.5563820000000  0.5202440000000 1.0
C      1  0.4521680000000  0.5188390000000  0.5181560000000 1.0
C      1  0.5457460000000  0.5051290000000  0.4734190000000 1.0
C      1  0.4774060000000  0.4514350000000  0.4394640000000 1.0
C      1  0.5031550000000  0.5191750000000  0.4660270000000 1.0
C      1  0.5379530000000  0.5345670000000  0.5666530000000 1.0
C      1  0.4634830000000  0.4810900000000  0.5114360000000 1.0
C      1  0.5050560000000  0.5203290000000  0.5418250000000 1.0
C      1  0.4918890000000  0.4468760000000  0.4874520000000 1.0
END
