TITL C-1154830-9999-245 -0.00481527689905538 125000 -325.561776383036 0 0 60 (C1) n - 1
REM
REM in /home/nfs/bkarasulu/CARBON/AIRSS/Generating-Clusters/AIREBO/Higher-Symm/Only-C60
REM
REM
REM
REM
REM
REM ./C.cell (28575a23ae977d3b5fae324c64b13b57)
REM
REM compiler GCC version 9.2.1 20190827 (Red Hat 9.2.1-1)
REM options -cpp -mtune=generic -march=x86-64 -g -O0 -fpre-include=/usr/include/finclude/math-vector-fortran.h
REM seed -187502507 -1376834230 1161042679 -878537033 850845453 -1345242641 -1172963283 -87610192 -1513319678 1744036523 -842492009 -2134363504 -379566122 706939448 2086757559 -1734466824 893252274 1850733441 -1423468080 303383558 -1265537630 -455643560 1875145936 2044667869 924674368 27654865 1539477881 -1695748410 1827168893 -1924764098 1666325809 -421968905 927602772
REM
CELL 1.54180   50.00000   50.00000   50.00000   90.00000   90.00000   90.00000
LATT -1
SFAC C  
C      1  0.5557130000000  0.5037500000000  0.5447150000000 1.0
C      1  0.4495990000000  0.5008880000000  0.5369130000000 1.0
C      1  0.4839920000000  0.4914450000000  0.5188990000000 1.0
C      1  0.5107680000000  0.5043910000000  0.5141750000000 1.0
C      1  0.4639970000000  0.5565360000000  0.4362000000000 1.0
C      1  0.5321510000000  0.5571500000000  0.4590580000000 1.0
C      1  0.4867680000000  0.5210780000000  0.5663540000000 1.0
C      1  0.5147870000000  0.5234800000000  0.5621280000000 1.0
C      1  0.4478090000000  0.5363650000000  0.4466110000000 1.0
C      1  0.5363940000000  0.5062860000000  0.4601950000000 1.0
C      1  0.5226870000000  0.4558110000000  0.4410250000000 1.0
C      1  0.4691640000000  0.4650970000000  0.4568340000000 1.0
C      1  0.5119940000000  0.4369340000000  0.4667180000000 1.0
C      1  0.4833540000000  0.4435670000000  0.4768910000000 1.0
C      1  0.5290800000000  0.4763840000000  0.4746330000000 1.0
C      1  0.4678590000000  0.5119620000000  0.4556610000000 1.0
C      1  0.5638130000000  0.4819100000000  0.5122330000000 1.0
C      1  0.4410190000000  0.4620960000000  0.5057310000000 1.0
C      1  0.4326930000000  0.4402970000000  0.4883010000000 1.0
C      1  0.5563110000000  0.4657030000000  0.4858920000000 1.0
C      1  0.4844760000000  0.4613850000000  0.5058320000000 1.0
C      1  0.5162460000000  0.4544140000000  0.4960680000000 1.0
C      1  0.4805740000000  0.5369160000000  0.4749560000000 1.0
C      1  0.5054630000000  0.5182880000000  0.4865720000000 1.0
C      1  0.5429270000000  0.4341570000000  0.4553960000000 1.0
C      1  0.4538560000000  0.4371980000000  0.4640180000000 1.0
C      1  0.5154260000000  0.5342090000000  0.5236400000000 1.0
C      1  0.4839570000000  0.5304890000000  0.5280170000000 1.0
C      1  0.4933270000000  0.5556850000000  0.4496290000000 1.0
C      1  0.5149250000000  0.5298540000000  0.4564420000000 1.0
C      1  0.4938630000000  0.5743140000000  0.4775290000000 1.0
C      1  0.5228220000000  0.5708800000000  0.4810500000000 1.0
C      1  0.4423590000000  0.5198640000000  0.4760700000000 1.0
C      1  0.5581790000000  0.5185230000000  0.4783770000000 1.0
C      1  0.4575630000000  0.5220340000000  0.5205690000000 1.0
C      1  0.5652450000000  0.5159700000000  0.5204410000000 1.0
C      1  0.5772680000000  0.4992730000000  0.4862730000000 1.0
C      1  0.4333910000000  0.4918270000000  0.4910070000000 1.0
C      1  0.4761230000000  0.4956840000000  0.5517410000000 1.0
C      1  0.5260310000000  0.5017440000000  0.5444510000000 1.0
C      1  0.4841630000000  0.5699830000000  0.5291850000000 1.0
C      1  0.5130830000000  0.5727740000000  0.5323010000000 1.0
C      1  0.5633940000000  0.4433920000000  0.4722700000000 1.0
C      1  0.4255380000000  0.4187150000000  0.4658390000000 1.0
C      1  0.5119710000000  0.4856100000000  0.4480790000000 1.0
C      1  0.4823470000000  0.4877590000000  0.4508520000000 1.0
C      1  0.5315250000000  0.5589750000000  0.5072910000000 1.0
C      1  0.4729720000000  0.5612310000000  0.4983430000000 1.0
C      1  0.4491050000000  0.5379550000000  0.4993390000000 1.0
C      1  0.5533230000000  0.5348260000000  0.5021610000000 1.0
C      1  0.4539760000000  0.4271350000000  0.5420660000000 1.0
C      1  0.5334850000000  0.4458460000000  0.5167510000000 1.0
C      1  0.4882180000000  0.4655200000000  0.5482890000000 1.0
C      1  0.5167310000000  0.4689940000000  0.5446190000000 1.0
C      1  0.5241090000000  0.5510190000000  0.5531720000000 1.0
C      1  0.4753980000000  0.5491170000000  0.5533870000000 1.0
C      1  0.5496590000000  0.4650980000000  0.5369730000000 1.0
C      1  0.4625650000000  0.4521630000000  0.5301490000000 1.0
C      1  0.5691520000000  0.4816870000000  0.5586590000000 1.0
C      1  0.4353130000000  0.4783600000000  0.5330290000000 1.0
END
