TITL C-1154826-9507-144 0.00274903390687223 125000 -309.900040996314 0 0 60 (C1) n - 1
REM
REM in /home/nfs/bkarasulu/CARBON/AIRSS/Generating-Clusters/AIREBO/Higher-Symm/Only-C60
REM
REM
REM
REM
REM
REM ./C.cell (28575a23ae977d3b5fae324c64b13b57)
REM
REM compiler GCC version 9.2.1 20190827 (Red Hat 9.2.1-1)
REM options -cpp -mtune=generic -march=x86-64 -g -O0 -fpre-include=/usr/include/finclude/math-vector-fortran.h
REM seed -337504720 -361603435 -770050200 -1675717182 -1258033986 1881714658 -603527349 -412290896 -1520887662 -125874699 -822397833 21089077 -226458403 -1485547675 43978716 308014800 -1765280385 122620866 1235565423 -1551095069 1694784521 -530499600 525347172 -737705831 -1334824991 2007523749 647799252 1556751847 -949733113 -1811638884 -547416999 1036805214 132635085
REM
CELL 1.54180   50.00000   50.00000   50.00000   90.00000   90.00000   90.00000
LATT -1
SFAC C  
C      1  0.4756440000000  0.5178750000000  0.4935960000000 1.0
C      1  0.4951710000000  0.5264740000000  0.5184050000000 1.0
C      1  0.5285020000000  0.5150360000000  0.5000400000000 1.0
C      1  0.5061370000000  0.5227970000000  0.4804000000000 1.0
C      1  0.4756990000000  0.4855730000000  0.4946740000000 1.0
C      1  0.4976600000000  0.4801760000000  0.5192230000000 1.0
C      1  0.5278820000000  0.4841850000000  0.5041230000000 1.0
C      1  0.5050830000000  0.4780810000000  0.4803710000000 1.0
C      1  0.5733570000000  0.4531190000000  0.4975780000000 1.0
C      1  0.4951880000000  0.4637420000000  0.4360780000000 1.0
C      1  0.4292130000000  0.4540630000000  0.5040380000000 1.0
C      1  0.5048790000000  0.4646320000000  0.5646150000000 1.0
C      1  0.5703730000000  0.5457480000000  0.5007700000000 1.0
C      1  0.4976130000000  0.5332030000000  0.4332590000000 1.0
C      1  0.4258610000000  0.5465580000000  0.5072750000000 1.0
C      1  0.5062400000000  0.5374590000000  0.5667450000000 1.0
C      1  0.5191740000000  0.5121360000000  0.5606700000000 1.0
C      1  0.5811250000000  0.5141090000000  0.4937680000000 1.0
C      1  0.4795740000000  0.5136700000000  0.4391680000000 1.0
C      1  0.4207390000000  0.5128660000000  0.5062620000000 1.0
C      1  0.5228050000000  0.4848410000000  0.5595510000000 1.0
C      1  0.5816380000000  0.4859220000000  0.4932280000000 1.0
C      1  0.4790380000000  0.4851880000000  0.4410200000000 1.0
C      1  0.4212320000000  0.4871720000000  0.5055110000000 1.0
C      1  0.4513400000000  0.4757130000000  0.5152720000000 1.0
C      1  0.5385910000000  0.4779490000000  0.5357900000000 1.0
C      1  0.5516320000000  0.4730980000000  0.4836800000000 1.0
C      1  0.4620950000000  0.4809150000000  0.4652310000000 1.0
C      1  0.4506660000000  0.5254980000000  0.5146920000000 1.0
C      1  0.5239000000000  0.5247780000000  0.5323660000000 1.0
C      1  0.5518680000000  0.5253210000000  0.4834290000000 1.0
C      1  0.4624940000000  0.5207880000000  0.4623740000000 1.0
C      1  0.4621590000000  0.5278360000000  0.5438940000000 1.0
C      1  0.5556150000000  0.5288990000000  0.5258000000000 1.0
C      1  0.5425600000000  0.5233090000000  0.4544720000000 1.0
C      1  0.4380870000000  0.5346740000000  0.4778540000000 1.0
C      1  0.4614910000000  0.4705840000000  0.5455640000000 1.0
C      1  0.5675630000000  0.4655790000000  0.5272880000000 1.0
C      1  0.5406080000000  0.4667980000000  0.4525800000000 1.0
C      1  0.4342040000000  0.4676040000000  0.4732910000000 1.0
C      1  0.4824240000000  0.4362060000000  0.5094850000000 1.0
C      1  0.5139880000000  0.4347390000000  0.5247500000000 1.0
C      1  0.5189670000000  0.4350090000000  0.4909130000000 1.0
C      1  0.4871630000000  0.4337750000000  0.4759010000000 1.0
C      1  0.4743110000000  0.5712130000000  0.5197270000000 1.0
C      1  0.5077340000000  0.5650280000000  0.5186530000000 1.0
C      1  0.5146340000000  0.5613510000000  0.4847920000000 1.0
C      1  0.4845790000000  0.5741940000000  0.4874980000000 1.0
C      1  0.4584980000000  0.4476590000000  0.4879800000000 1.0
C      1  0.4897470000000  0.4554790000000  0.5365350000000 1.0
C      1  0.5432710000000  0.4462630000000  0.5118700000000 1.0
C      1  0.5119350000000  0.4532170000000  0.4630590000000 1.0
C      1  0.4546090000000  0.5595560000000  0.4945760000000 1.0
C      1  0.4887980000000  0.5488720000000  0.5418430000000 1.0
C      1  0.5380880000000  0.5532650000000  0.5083720000000 1.0
C      1  0.5164070000000  0.5417920000000  0.4570140000000 1.0
C      1  0.5417090000000  0.4958980000000  0.4527360000000 1.0
C      1  0.4354850000000  0.5015590000000  0.4699300000000 1.0
C      1  0.4616870000000  0.4996300000000  0.5454430000000 1.0
C      1  0.5612630000000  0.4989540000000  0.5249800000000 1.0
END
