TITL C-1154802-8274-227 0.082491429598029 125000 -346.551250399627 0 0 60 (C1) n - 1
REM
REM in /home/nfs/bkarasulu/CARBON/AIRSS/Generating-Clusters/AIREBO/Higher-Symm/Only-C60
REM
REM
REM
REM
REM
REM ./C.cell (28575a23ae977d3b5fae324c64b13b57)
REM
REM compiler GCC version 9.2.1 20190827 (Red Hat 9.2.1-1)
REM options -cpp -mtune=generic -march=x86-64 -g -O0 -fpre-include=/usr/include/finclude/math-vector-fortran.h
REM seed -982132973 614162259 1640828632 -720229770 857275345 -1754976713 1467076738 1563778585 -1392680401 812514468 1695403154 1983241594 -1458838860 1515445127 -1640203736 -475461799 -152875259 1889443566 -654919939 411372173 -1788835865 -494369373 70573709 145452063 1671204028 -2074602360 1980614334 252281528 1785234201 -1191737047 18660964 754389624 -1921713165
REM
CELL 1.54180   50.00000   50.00000   50.00000   90.00000   90.00000   90.00000
LATT -1
SFAC C  
C      1  0.5760210000000  0.4948880000000  0.4487520000000 1.0
C      1  0.5143580000000  0.4901210000000  0.4707900000000 1.0
C      1  0.5365490000000  0.4339810000000  0.4760140000000 1.0
C      1  0.5492720000000  0.4380010000000  0.5316720000000 1.0
C      1  0.5976480000000  0.4779740000000  0.5238220000000 1.0
C      1  0.5750560000000  0.5172020000000  0.5576820000000 1.0
C      1  0.5141590000000  0.5037950000000  0.5369160000000 1.0
C      1  0.5198320000000  0.5644150000000  0.5337090000000 1.0
C      1  0.5254980000000  0.5632390000000  0.4767320000000 1.0
C      1  0.5850020000000  0.5424170000000  0.4779980000000 1.0
C      1  0.6466850000000  0.4763670000000  0.5073780000000 1.0
C      1  0.6038510000000  0.5474690000000  0.5882380000000 1.0
C      1  0.4725730000000  0.4728260000000  0.5313900000000 1.0
C      1  0.5017130000000  0.6022720000000  0.5639840000000 1.0
C      1  0.4928860000000  0.5892800000000  0.4461520000000 1.0
C      1  0.6313080000000  0.5634030000000  0.4877330000000 1.0
C      1  0.6139260000000  0.4747990000000  0.4198360000000 1.0
C      1  0.4656240000000  0.5079740000000  0.4758230000000 1.0
C      1  0.5267130000000  0.3914760000000  0.4481750000000 1.0
C      1  0.5306690000000  0.4038430000000  0.5657840000000 1.0
C      1  0.5355070000000  0.4665480000000  0.4787600000000 1.0
C      1  0.5520470000000  0.4494820000000  0.5008130000000 1.0
C      1  0.5681600000000  0.4639950000000  0.5248110000000 1.0
C      1  0.5711320000000  0.4953090000000  0.5332320000000 1.0
C      1  0.5452790000000  0.5107670000000  0.5452780000000 1.0
C      1  0.5271290000000  0.5328240000000  0.5295760000000 1.0
C      1  0.5360080000000  0.5540950000000  0.5067370000000 1.0
C      1  0.5524790000000  0.5448950000000  0.4804360000000 1.0
C      1  0.5655910000000  0.5165350000000  0.4713930000000 1.0
C      1  0.5460400000000  0.4923990000000  0.4619900000000 1.0
C      1  0.3540480000000  0.5381570000000  0.4691970000000 1.0
C      1  0.3572570000000  0.5593560000000  0.4858320000000 1.0
C      1  0.3727860000000  0.5668640000000  0.5067720000000 1.0
C      1  0.3989350000000  0.5680270000000  0.5137760000000 1.0
C      1  0.4216000000000  0.5532110000000  0.5143640000000 1.0
C      1  0.4329420000000  0.5314650000000  0.5031110000000 1.0
C      1  0.4395950000000  0.5154600000000  0.4812150000000 1.0
C      1  0.4179800000000  0.5067440000000  0.4657610000000 1.0
C      1  0.3949510000000  0.5126500000000  0.4530660000000 1.0
C      1  0.3692300000000  0.5208510000000  0.4548170000000 1.0
C      1  0.4251480000000  0.4638840000000  0.5376810000000 1.0
C      1  0.3995920000000  0.4725560000000  0.5365590000000 1.0
C      1  0.3775610000000  0.4725890000000  0.5208830000000 1.0
C      1  0.3634520000000  0.4589530000000  0.5022500000000 1.0
C      1  0.3669330000000  0.4469970000000  0.4780950000000 1.0
C      1  0.3880620000000  0.4373880000000  0.4639590000000 1.0
C      1  0.4133200000000  0.4284550000000  0.4679710000000 1.0
C      1  0.4366700000000  0.4345250000000  0.4801630000000 1.0
C      1  0.4485370000000  0.4409760000000  0.5035460000000 1.0
C      1  0.4495100000000  0.4591110000000  0.5248420000000 1.0
C      1  0.4901340000000  0.4982430000000  0.4721780000000 1.0
C      1  0.5327600000000  0.4131670000000  0.4615880000000 1.0
C      1  0.5410880000000  0.4203700000000  0.5483130000000 1.0
C      1  0.6222550000000  0.4768330000000  0.5168570000000 1.0
C      1  0.5893430000000  0.5330400000000  0.5718590000000 1.0
C      1  0.4932730000000  0.4891060000000  0.5352970000000 1.0
C      1  0.5120250000000  0.5832270000000  0.5492230000000 1.0
C      1  0.5101280000000  0.5771400000000  0.4617170000000 1.0
C      1  0.6078110000000  0.5524010000000  0.4840240000000 1.0
C      1  0.5943590000000  0.4856620000000  0.4334770000000 1.0
END
