TITL C-1154816-9297-475 -0.0020258950734078 125000 -338.731483364682 0 0 60 (C2) n - 1
REM
REM in /home/nfs/bkarasulu/CARBON/AIRSS/Generating-Clusters/AIREBO/Higher-Symm/Only-C60
REM
REM
REM
REM
REM
REM ./C.cell (28575a23ae977d3b5fae324c64b13b57)
REM
REM compiler GCC version 9.2.1 20190827 (Red Hat 9.2.1-1)
REM options -cpp -mtune=generic -march=x86-64 -g -O0 -fpre-include=/usr/include/finclude/math-vector-fortran.h
REM seed -1585213635 461249180 -725793882 467936519 -1499792552 747678258 1751727805 -648449901 -1573587022 -1311725468 2015535541 -232526946 -1933472811 2089577794 700073048 -1909952017 803916915 1195604839 1639090437 1291262906 -548881948 1762618065 130754984 758931451 -2117722625 1125596762 423700963 -950965912 -1398137779 774917626 1081201669 229416546 -1986610095
REM
CELL 1.54180   50.00000   50.00000   50.00000   90.00000   90.00000   90.00000
LATT -1
SFAC C  
C      1  0.4408110000000  0.4822190000000  0.4595130000000 1.0
C      1  0.5413700000000  0.4810060000000  0.4406410000000 1.0
C      1  0.5590520000000  0.4826290000000  0.5406570000000 1.0
C      1  0.4586810000000  0.4809560000000  0.5595110000000 1.0
C      1  0.5628330000000  0.5082590000000  0.4535840000000 1.0
C      1  0.4560940000000  0.5107530000000  0.4396820000000 1.0
C      1  0.4372380000000  0.5081960000000  0.5465110000000 1.0
C      1  0.5440900000000  0.5103700000000  0.5600860000000 1.0
C      1  0.5147760000000  0.5597230000000  0.5219370000000 1.0
C      1  0.4836080000000  0.5644430000000  0.5113310000000 1.0
C      1  0.4851330000000  0.5598550000000  0.4780740000000 1.0
C      1  0.5163240000000  0.5646240000000  0.4886720000000 1.0
C      1  0.4833200000000  0.4383340000000  0.5167910000000 1.0
C      1  0.5141180000000  0.4387770000000  0.5140650000000 1.0
C      1  0.5166990000000  0.4383800000000  0.4833030000000 1.0
C      1  0.4858830000000  0.4387220000000  0.4860070000000 1.0
C      1  0.4634240000000  0.5447930000000  0.5245550000000 1.0
C      1  0.4785620000000  0.5580100000000  0.4481500000000 1.0
C      1  0.5365810000000  0.5450720000000  0.4753360000000 1.0
C      1  0.5218660000000  0.5577930000000  0.5517440000000 1.0
C      1  0.5258090000000  0.4620050000000  0.5249900000000 1.0
C      1  0.5258350000000  0.4632000000000  0.4728920000000 1.0
C      1  0.4740600000000  0.4618840000000  0.4750600000000 1.0
C      1  0.4741560000000  0.4631530000000  0.5272220000000 1.0
C      1  0.4440820000000  0.4669370000000  0.4861460000000 1.0
C      1  0.5135610000000  0.4677420000000  0.4430630000000 1.0
C      1  0.5557570000000  0.4672100000000  0.5141450000000 1.0
C      1  0.4864200000000  0.4676290000000  0.5570850000000 1.0
C      1  0.5608870000000  0.5255820000000  0.4785760000000 1.0
C      1  0.4817950000000  0.5291070000000  0.4362660000000 1.0
C      1  0.4391310000000  0.5253230000000  0.5214260000000 1.0
C      1  0.5187140000000  0.5289090000000  0.5637080000000 1.0
C      1  0.4629940000000  0.5114900000000  0.5677950000000 1.0
C      1  0.4357670000000  0.5128500000000  0.4649630000000 1.0
C      1  0.5372520000000  0.5115170000000  0.4321530000000 1.0
C      1  0.5645110000000  0.5135940000000  0.5340940000000 1.0
C      1  0.5374160000000  0.4790430000000  0.5651250000000 1.0
C      1  0.5649500000000  0.4770390000000  0.4626080000000 1.0
C      1  0.4618460000000  0.4797390000000  0.4353780000000 1.0
C      1  0.4350220000000  0.4769270000000  0.5376860000000 1.0
C      1  0.4282540000000  0.5236030000000  0.4895650000000 1.0
C      1  0.5130170000000  0.5215220000000  0.4266450000000 1.0
C      1  0.5714670000000  0.5238620000000  0.5104900000000 1.0
C      1  0.4873340000000  0.5213320000000  0.5731680000000 1.0
C      1  0.5720060000000  0.4642390000000  0.4850250000000 1.0
C      1  0.4843800000000  0.4656220000000  0.4264210000000 1.0
C      1  0.4279920000000  0.4640760000000  0.5153020000000 1.0
C      1  0.5157130000000  0.4655620000000  0.5734610000000 1.0
C      1  0.5184400000000  0.5293410000000  0.5071830000000 1.0
C      1  0.4911340000000  0.5276800000000  0.5250110000000 1.0
C      1  0.4814510000000  0.5293040000000  0.4925340000000 1.0
C      1  0.5089010000000  0.5279500000000  0.4747000000000 1.0
C      1  0.4634980000000  0.4809650000000  0.5085860000000 1.0
C      1  0.5089350000000  0.4804000000000  0.5370910000000 1.0
C      1  0.5364340000000  0.4810800000000  0.4914790000000 1.0
C      1  0.4908530000000  0.4803120000000  0.4628960000000 1.0
C      1  0.4619870000000  0.5091560000000  0.5052660000000 1.0
C      1  0.5379220000000  0.5092720000000  0.4944950000000 1.0
C      1  0.4903900000000  0.5081390000000  0.4597980000000 1.0
C      1  0.5094600000000  0.5082430000000  0.5403540000000 1.0
END
