TITL C-1154825-9328-352 9.41148914753235e-05 125000 -327.328107296623 0 0 60 (C1) n - 1
REM
REM in /home/nfs/bkarasulu/CARBON/AIRSS/Generating-Clusters/AIREBO/Higher-Symm/Only-C60
REM
REM
REM
REM
REM
REM ./C.cell (28575a23ae977d3b5fae324c64b13b57)
REM
REM compiler GCC version 9.2.1 20190827 (Red Hat 9.2.1-1)
REM options -cpp -mtune=generic -march=x86-64 -g -O0 -fpre-include=/usr/include/finclude/math-vector-fortran.h
REM seed -1001816076 25737670 820584241 -1042615878 -960357408 -1961133993 986795584 -61908903 -950024960 769971588 1103975584 -248581773 514920046 675313631 1198370607 567554365 -162240422 -1648782834 689975164 109913768 -74206976 -414905901 -1495609183 -1223621936 239859018 438832685 -977607774 1440397961 -961954436 2034455482 -1441506230 1932963931 -1633729358
REM
CELL 1.54180   50.00000   50.00000   50.00000   90.00000   90.00000   90.00000
LATT -1
SFAC C  
C      1  0.4508030000000  0.5237080000000  0.5167420000000 1.0
C      1  0.4661050000000  0.5185860000000  0.4612220000000 1.0
C      1  0.5233410000000  0.5227470000000  0.4475560000000 1.0
C      1  0.5529490000000  0.5297720000000  0.5002230000000 1.0
C      1  0.5016000000000  0.5241010000000  0.5529630000000 1.0
C      1  0.4823060000000  0.4994100000000  0.4841860000000 1.0
C      1  0.5103110000000  0.4997170000000  0.4836020000000 1.0
C      1  0.5222660000000  0.5181180000000  0.5077170000000 1.0
C      1  0.4987510000000  0.5025710000000  0.5267300000000 1.0
C      1  0.4754350000000  0.5025610000000  0.5106410000000 1.0
C      1  0.5423310000000  0.4542210000000  0.5303980000000 1.0
C      1  0.4837750000000  0.4488020000000  0.5509040000000 1.0
C      1  0.4477150000000  0.4462000000000  0.5006130000000 1.0
C      1  0.4837570000000  0.4446470000000  0.4500500000000 1.0
C      1  0.5415690000000  0.4517380000000  0.4691080000000 1.0
C      1  0.4548830000000  0.4582680000000  0.5460500000000 1.0
C      1  0.4418450000000  0.4539970000000  0.4715380000000 1.0
C      1  0.5078510000000  0.4578520000000  0.4360500000000 1.0
C      1  0.5624780000000  0.4634530000000  0.4881080000000 1.0
C      1  0.5292010000000  0.4630620000000  0.5566840000000 1.0
C      1  0.5787050000000  0.5396300000000  0.4946640000000 1.0
C      1  0.5063110000000  0.5406300000000  0.5750840000000 1.0
C      1  0.4292770000000  0.5402530000000  0.5240110000000 1.0
C      1  0.4443490000000  0.5327520000000  0.4507690000000 1.0
C      1  0.5330910000000  0.5301910000000  0.4237430000000 1.0
C      1  0.4948960000000  0.4941330000000  0.5651620000000 1.0
C      1  0.4380250000000  0.4921760000000  0.5173980000000 1.0
C      1  0.4647830000000  0.4886410000000  0.4501270000000 1.0
C      1  0.5235950000000  0.4967780000000  0.4588250000000 1.0
C      1  0.5566140000000  0.5002370000000  0.5152550000000 1.0
C      1  0.5213740000000  0.5857250000000  0.5505650000000 1.0
C      1  0.4618490000000  0.5798900000000  0.5396030000000 1.0
C      1  0.4605750000000  0.6052600000000  0.4838680000000 1.0
C      1  0.5167650000000  0.6104010000000  0.4631650000000 1.0
C      1  0.5534430000000  0.5906720000000  0.5043190000000 1.0
C      1  0.4944690000000  0.4292550000000  0.5256300000000 1.0
C      1  0.4758270000000  0.4271990000000  0.5019180000000 1.0
C      1  0.4928920000000  0.4267860000000  0.4769260000000 1.0
C      1  0.5217760000000  0.4297250000000  0.4851170000000 1.0
C      1  0.5227870000000  0.4311890000000  0.5152300000000 1.0
C      1  0.4860890000000  0.5382410000000  0.4763120000000 1.0
C      1  0.5128090000000  0.5410430000000  0.4678490000000 1.0
C      1  0.5314750000000  0.5506380000000  0.4865730000000 1.0
C      1  0.5037880000000  0.5414470000000  0.5241840000000 1.0
C      1  0.4770800000000  0.5421240000000  0.5054700000000 1.0
C      1  0.4610230000000  0.4627930000000  0.4546830000000 1.0
C      1  0.5273460000000  0.4701710000000  0.4505310000000 1.0
C      1  0.5560290000000  0.4736540000000  0.5124510000000 1.0
C      1  0.5031410000000  0.4690930000000  0.5604600000000 1.0
C      1  0.4443270000000  0.4663840000000  0.5223970000000 1.0
C      1  0.4826010000000  0.4106410000000  0.4506090000000 1.0
C      1  0.5440600000000  0.4181060000000  0.4644900000000 1.0
C      1  0.5501490000000  0.4210940000000  0.5295840000000 1.0
C      1  0.4886740000000  0.4153060000000  0.5544460000000 1.0
C      1  0.4471020000000  0.4127090000000  0.5066620000000 1.0
C      1  0.5286980000000  0.5779700000000  0.4997020000000 1.0
C      1  0.5128700000000  0.5714800000000  0.5254880000000 1.0
C      1  0.4805080000000  0.5728370000000  0.5166980000000 1.0
C      1  0.4829540000000  0.5934030000000  0.4941430000000 1.0
C      1  0.5085990000000  0.5958110000000  0.4848030000000 1.0
END
