TITL C-1154823-9327-435 0.00226240827227767 125000 -320.122849842578 0 0 60 (C1) n - 1
REM
REM in /home/nfs/bkarasulu/CARBON/AIRSS/Generating-Clusters/AIREBO/Higher-Symm/Only-C60
REM
REM
REM
REM
REM
REM ./C.cell (28575a23ae977d3b5fae324c64b13b57)
REM
REM compiler GCC version 9.2.1 20190827 (Red Hat 9.2.1-1)
REM options -cpp -mtune=generic -march=x86-64 -g -O0 -fpre-include=/usr/include/finclude/math-vector-fortran.h
REM seed 1688487945 222033907 -1473260568 -2070379595 -707118578 -1858524238 118665951 749736900 -407626191 -455033527 -966699546 -1540086138 -773444601 1765647987 -1618526715 -1053154822 -1113170921 -421056020 -71956418 1485997487 -1317929074 204870830 -363650490 -1073291348 -2050802390 -223018265 -1732150109 1417806902 1809707039 -2131437852 815123263 -1111303384 869622310
REM
CELL 1.54180   50.00000   50.00000   50.00000   90.00000   90.00000   90.00000
LATT -1
SFAC C  
C      1  0.4607900000000  0.4911110000000  0.5130020000000 1.0
C      1  0.5426070000000  0.5358160000000  0.5423200000000 1.0
C      1  0.5303120000000  0.5177400000000  0.4975920000000 1.0
C      1  0.5377490000000  0.4876660000000  0.4643830000000 1.0
C      1  0.5185240000000  0.4629550000000  0.5018480000000 1.0
C      1  0.4337460000000  0.4591210000000  0.4701120000000 1.0
C      1  0.4803390000000  0.4670910000000  0.5592110000000 1.0
C      1  0.5453410000000  0.4211920000000  0.5666920000000 1.0
C      1  0.5115180000000  0.4805210000000  0.4483200000000 1.0
C      1  0.4555140000000  0.5087210000000  0.5416040000000 1.0
C      1  0.4842670000000  0.5478750000000  0.4731250000000 1.0
C      1  0.4933330000000  0.5121940000000  0.5720030000000 1.0
C      1  0.4194020000000  0.4800020000000  0.4789310000000 1.0
C      1  0.4368350000000  0.5523020000000  0.4813430000000 1.0
C      1  0.5517100000000  0.4693630000000  0.4965740000000 1.0
C      1  0.5135790000000  0.5513340000000  0.4664240000000 1.0
C      1  0.4660240000000  0.4656760000000  0.4675410000000 1.0
C      1  0.5675490000000  0.5196710000000  0.5272390000000 1.0
C      1  0.4427870000000  0.5258940000000  0.4750900000000 1.0
C      1  0.5129050000000  0.4400530000000  0.5227490000000 1.0
C      1  0.4709480000000  0.4219220000000  0.4960140000000 1.0
C      1  0.5051450000000  0.5145200000000  0.4795880000000 1.0
C      1  0.5212070000000  0.5327940000000  0.4450640000000 1.0
C      1  0.4959330000000  0.5107190000000  0.4470790000000 1.0
C      1  0.5671940000000  0.4930560000000  0.4805140000000 1.0
C      1  0.4522750000000  0.5578960000000  0.5553890000000 1.0
C      1  0.4935990000000  0.4829030000000  0.5076920000000 1.0
C      1  0.5115000000000  0.5298050000000  0.5813790000000 1.0
C      1  0.5301750000000  0.5450900000000  0.5685040000000 1.0
C      1  0.5589440000000  0.5655430000000  0.4782090000000 1.0
C      1  0.4557830000000  0.5372380000000  0.4263590000000 1.0
C      1  0.4600200000000  0.5680940000000  0.4798230000000 1.0
C      1  0.4848840000000  0.4944410000000  0.4193460000000 1.0
C      1  0.5179980000000  0.4361160000000  0.5714700000000 1.0
C      1  0.5338550000000  0.4548160000000  0.4726040000000 1.0
C      1  0.4712390000000  0.5317920000000  0.5221970000000 1.0
C      1  0.5466900000000  0.5016650000000  0.5435930000000 1.0
C      1  0.4848400000000  0.4688600000000  0.4210110000000 1.0
C      1  0.5321240000000  0.5604970000000  0.4864960000000 1.0
C      1  0.5485520000000  0.4754240000000  0.5444970000000 1.0
C      1  0.4734630000000  0.4906650000000  0.4824680000000 1.0
C      1  0.5431800000000  0.5152290000000  0.4449200000000 1.0
C      1  0.4358490000000  0.5022490000000  0.4926280000000 1.0
C      1  0.4533580000000  0.4399900000000  0.4849670000000 1.0
C      1  0.4665970000000  0.5268250000000  0.4530910000000 1.0
C      1  0.4980320000000  0.4470530000000  0.5517960000000 1.0
C      1  0.4750020000000  0.4943970000000  0.5612180000000 1.0
C      1  0.5326110000000  0.5458300000000  0.5122840000000 1.0
C      1  0.5642850000000  0.5191470000000  0.4969160000000 1.0
C      1  0.4263220000000  0.5076320000000  0.5241950000000 1.0
C      1  0.5160540000000  0.4991750000000  0.5182820000000 1.0
C      1  0.4775710000000  0.5222540000000  0.4944550000000 1.0
C      1  0.5372940000000  0.4467870000000  0.5455850000000 1.0
C      1  0.5706090000000  0.5035640000000  0.4488380000000 1.0
C      1  0.5070340000000  0.4402120000000  0.4710750000000 1.0
C      1  0.5762340000000  0.5444350000000  0.4827070000000 1.0
C      1  0.4691140000000  0.5568360000000  0.5331330000000 1.0
C      1  0.4981870000000  0.4290920000000  0.4957960000000 1.0
C      1  0.4421740000000  0.5326330000000  0.5617630000000 1.0
C      1  0.4892980000000  0.4565070000000  0.4509510000000 1.0
END
