TITL C-1154803-8277-393 0.00177395031686938 125000 -347.078268596764 0 0 60 (C1) n - 1
REM
REM in /home/nfs/bkarasulu/CARBON/AIRSS/Generating-Clusters/AIREBO/Higher-Symm/Only-C60
REM
REM
REM
REM
REM
REM ./C.cell (28575a23ae977d3b5fae324c64b13b57)
REM
REM compiler GCC version 9.2.1 20190827 (Red Hat 9.2.1-1)
REM options -cpp -mtune=generic -march=x86-64 -g -O0 -fpre-include=/usr/include/finclude/math-vector-fortran.h
REM seed 643579803 1694697480 663320480 1692931395 536027076 -540822271 114166593 2091425881 -959359189 -874112308 -231342570 -470439774 -1825330573 92215097 -545547946 1791050069 -1404798083 1438011909 -1731211954 184067922 -543369379 -1766675220 -1070720217 -1171171103 -1605730012 -244185556 -2139404464 1498806828 365296653 -316711657 -1492775098 1594613041 1619694537
REM
CELL 1.54180   50.00000   50.00000   50.00000   90.00000   90.00000   90.00000
LATT -1
SFAC C  
C      1  0.4482430000000  0.4732260000000  0.5166270000000 1.0
C      1  0.4794760000000  0.5496320000000  0.4784760000000 1.0
C      1  0.5535860000000  0.5193670000000  0.5313160000000 1.0
C      1  0.5309920000000  0.4444770000000  0.4717930000000 1.0
C      1  0.4589430000000  0.4433880000000  0.5213180000000 1.0
C      1  0.4487800000000  0.5426490000000  0.4716400000000 1.0
C      1  0.5470960000000  0.5469060000000  0.5383320000000 1.0
C      1  0.5580850000000  0.4540510000000  0.4692450000000 1.0
C      1  0.5139570000000  0.4727070000000  0.5030830000000 1.0
C      1  0.4680320000000  0.4822220000000  0.4909960000000 1.0
C      1  0.4809120000000  0.5282600000000  0.5040370000000 1.0
C      1  0.5250030000000  0.5163330000000  0.4954680000000 1.0
C      1  0.4164860000000  0.4986250000000  0.4782500000000 1.0
C      1  0.5045390000000  0.5792460000000  0.5220340000000 1.0
C      1  0.5811240000000  0.4994860000000  0.4884650000000 1.0
C      1  0.5074350000000  0.4188470000000  0.5151830000000 1.0
C      1  0.4879340000000  0.4726410000000  0.5122640000000 1.0
C      1  0.4725660000000  0.5093890000000  0.4809890000000 1.0
C      1  0.5071820000000  0.5224300000000  0.5155230000000 1.0
C      1  0.5214030000000  0.4916580000000  0.4843580000000 1.0
C      1  0.4808900000000  0.4284420000000  0.5163050000000 1.0
C      1  0.4324520000000  0.5216210000000  0.4759980000000 1.0
C      1  0.5267190000000  0.5632420000000  0.5291730000000 1.0
C      1  0.5737780000000  0.4731320000000  0.4813480000000 1.0
C      1  0.5018500000000  0.6308030000000  0.5373230000000 1.0
C      1  0.5854300000000  0.5320340000000  0.4512100000000 1.0
C      1  0.5298580000000  0.4239070000000  0.5601450000000 1.0
C      1  0.3650040000000  0.4979350000000  0.4626970000000 1.0
C      1  0.4812920000000  0.4481260000000  0.4542150000000 1.0
C      1  0.4474310000000  0.5207500000000  0.5407440000000 1.0
C      1  0.5281040000000  0.5446760000000  0.4591880000000 1.0
C      1  0.5416430000000  0.4677690000000  0.5424250000000 1.0
C      1  0.5637390000000  0.5160640000000  0.5049570000000 1.0
C      1  0.5258020000000  0.4349040000000  0.4988580000000 1.0
C      1  0.4292440000000  0.4756260000000  0.4883940000000 1.0
C      1  0.4833280000000  0.5675140000000  0.5073750000000 1.0
C      1  0.5037600000000  0.6061050000000  0.5287630000000 1.0
C      1  0.5964930000000  0.5143600000000  0.4695520000000 1.0
C      1  0.5190710000000  0.4093790000000  0.5393800000000 1.0
C      1  0.3896850000000  0.4986270000000  0.4714900000000 1.0
C      1  0.4440250000000  0.5508790000000  0.5505890000000 1.0
C      1  0.5603390000000  0.5429020000000  0.4557980000000 1.0
C      1  0.5441220000000  0.4475110000000  0.5617820000000 1.0
C      1  0.4519050000000  0.4431260000000  0.4429780000000 1.0
C      1  0.4909820000000  0.5531250000000  0.4293940000000 1.0
C      1  0.5387230000000  0.5031740000000  0.5758870000000 1.0
C      1  0.5186460000000  0.4557130000000  0.4244540000000 1.0
C      1  0.4449700000000  0.4800630000000  0.5666800000000 1.0
C      1  0.5068570000000  0.5049770000000  0.5375700000000 1.0
C      1  0.5087590000000  0.4895120000000  0.4595220000000 1.0
C      1  0.4850590000000  0.4871340000000  0.5359490000000 1.0
C      1  0.4901230000000  0.5110250000000  0.4584770000000 1.0
C      1  0.4626180000000  0.5454810000000  0.5229540000000 1.0
C      1  0.5472050000000  0.5344260000000  0.4845260000000 1.0
C      1  0.5348140000000  0.4580820000000  0.5176100000000 1.0
C      1  0.4549710000000  0.4616890000000  0.4710520000000 1.0
C      1  0.4990150000000  0.5415750000000  0.4537860000000 1.0
C      1  0.5358220000000  0.4979750000000  0.5479570000000 1.0
C      1  0.5093140000000  0.4592150000000  0.4512120000000 1.0
C      1  0.4543840000000  0.4918580000000  0.5428850000000 1.0
END
