TITL C-1154804-8633-216 -0.000908690433463255 125000 -324.573822473185 0 0 60 (C1) n - 1
REM
REM in /home/nfs/bkarasulu/CARBON/AIRSS/Generating-Clusters/AIREBO/Higher-Symm/Only-C60
REM
REM
REM
REM
REM
REM ./C.cell (28575a23ae977d3b5fae324c64b13b57)
REM
REM compiler GCC version 9.2.1 20190827 (Red Hat 9.2.1-1)
REM options -cpp -mtune=generic -march=x86-64 -g -O0 -fpre-include=/usr/include/finclude/math-vector-fortran.h
REM seed -275552368 1694013075 -871262839 -1787081976 1881154081 -398614792 1726974607 -1706713569 1048316562 676769931 -802420839 -504267159 727012078 406577187 205496566 -2072029093 -1703351264 -419109474 591356214 664793999 -1159114919 -1386743956 484783807 -1503361318 -1000413969 415516021 1764714227 536341093 76566022 1001248576 1259380310 -1821713752 468844870
REM
CELL 1.54180   50.00000   50.00000   50.00000   90.00000   90.00000   90.00000
LATT -1
SFAC C  
C      1  0.5486690000000  0.4995340000000  0.5685710000000 1.0
C      1  0.5327420000000  0.4468520000000  0.4631040000000 1.0
C      1  0.5439690000000  0.5586650000000  0.4696060000000 1.0
C      1  0.4588390000000  0.4929020000000  0.5659310000000 1.0
C      1  0.4571070000000  0.4451610000000  0.4628820000000 1.0
C      1  0.4653910000000  0.5518800000000  0.4673110000000 1.0
C      1  0.5392290000000  0.5105950000000  0.4870430000000 1.0
C      1  0.5384440000000  0.5167380000000  0.5204890000000 1.0
C      1  0.5354080000000  0.4792280000000  0.4996400000000 1.0
C      1  0.4765470000000  0.5137780000000  0.4871220000000 1.0
C      1  0.4628650000000  0.5041630000000  0.5160150000000 1.0
C      1  0.4541000000000  0.4747670000000  0.5013160000000 1.0
C      1  0.4814200000000  0.5645960000000  0.5124220000000 1.0
C      1  0.4828290000000  0.4549540000000  0.5485820000000 1.0
C      1  0.4811610000000  0.4875810000000  0.4505520000000 1.0
C      1  0.5168340000000  0.5632640000000  0.5109330000000 1.0
C      1  0.5165580000000  0.4646390000000  0.5460210000000 1.0
C      1  0.5142630000000  0.4850830000000  0.4417630000000 1.0
C      1  0.5089230000000  0.5638480000000  0.5411910000000 1.0
C      1  0.5147830000000  0.4349560000000  0.5360410000000 1.0
C      1  0.5192970000000  0.5029080000000  0.4158890000000 1.0
C      1  0.4777730000000  0.5672460000000  0.5440610000000 1.0
C      1  0.4836790000000  0.4264180000000  0.5343290000000 1.0
C      1  0.4932400000000  0.5132610000000  0.4042790000000 1.0
C      1  0.5103590000000  0.4338950000000  0.5058610000000 1.0
C      1  0.5229050000000  0.5239430000000  0.4398560000000 1.0
C      1  0.5167950000000  0.5402040000000  0.5582220000000 1.0
C      1  0.4780760000000  0.4280860000000  0.5040230000000 1.0
C      1  0.4896870000000  0.5168040000000  0.4382000000000 1.0
C      1  0.4822230000000  0.5379080000000  0.5551020000000 1.0
C      1  0.4848940000000  0.4857120000000  0.5341960000000 1.0
C      1  0.4809890000000  0.4718290000000  0.4806790000000 1.0
C      1  0.4909090000000  0.5338410000000  0.5035480000000 1.0
C      1  0.5168980000000  0.4968100000000  0.5349880000000 1.0
C      1  0.5116660000000  0.4837400000000  0.4756980000000 1.0
C      1  0.5175120000000  0.5366290000000  0.4898070000000 1.0
C      1  0.5567320000000  0.4777480000000  0.5233780000000 1.0
C      1  0.5562550000000  0.4899050000000  0.4660940000000 1.0
C      1  0.5591230000000  0.5407850000000  0.5110650000000 1.0
C      1  0.4387150000000  0.4659450000000  0.5298110000000 1.0
C      1  0.4349240000000  0.4846600000000  0.4750400000000 1.0
C      1  0.4449060000000  0.5316510000000  0.5071360000000 1.0
C      1  0.5412120000000  0.4717070000000  0.4519400000000 1.0
C      1  0.5468880000000  0.5620960000000  0.4983680000000 1.0
C      1  0.5469350000000  0.4749650000000  0.5494560000000 1.0
C      1  0.4511390000000  0.4732270000000  0.4542100000000 1.0
C      1  0.4573540000000  0.5536880000000  0.4950810000000 1.0
C      1  0.4540940000000  0.4679360000000  0.5523840000000 1.0
C      1  0.4711480000000  0.5245790000000  0.4618840000000 1.0
C      1  0.4637680000000  0.5172600000000  0.5473910000000 1.0
C      1  0.4568330000000  0.4421410000000  0.4921100000000 1.0
C      1  0.5418160000000  0.5298050000000  0.4590920000000 1.0
C      1  0.5399700000000  0.5247180000000  0.5518300000000 1.0
C      1  0.5273930000000  0.4498730000000  0.4904120000000 1.0
C      1  0.4864090000000  0.4484160000000  0.4565600000000 1.0
C      1  0.4872120000000  0.5685560000000  0.4594040000000 1.0
C      1  0.4894670000000  0.4948770000000  0.5680470000000 1.0
C      1  0.5101640000000  0.4360490000000  0.4499900000000 1.0
C      1  0.5131610000000  0.5599880000000  0.4650560000000 1.0
C      1  0.5173940000000  0.4970070000000  0.5689860000000 1.0
END
