TITL C-1154826-9507-185 -0.00401777357583461 125000 -352.077962372545 0 0 60 (C1) n - 1
REM
REM in /home/nfs/bkarasulu/CARBON/AIRSS/Generating-Clusters/AIREBO/Higher-Symm/Only-C60
REM
REM
REM
REM
REM
REM ./C.cell (28575a23ae977d3b5fae324c64b13b57)
REM
REM compiler GCC version 9.2.1 20190827 (Red Hat 9.2.1-1)
REM options -cpp -mtune=generic -march=x86-64 -g -O0 -fpre-include=/usr/include/finclude/math-vector-fortran.h
REM seed -1103735790 1132128305 -650079805 1784628774 1046036731 -722788328 -1652602946 -910178665 -638495535 -40566432 1240459886 757744838 1939296740 -503028934 543459756 782649659 -1500268200 896409704 55159374 -694745575 455911445 94293065 1260258878 -1161685202 15811798 536630642 1812185390 -1357657579 545408910 276479164 -1281099751 -659201497 835075014
REM
CELL 1.54180   50.00000   50.00000   50.00000   90.00000   90.00000   90.00000
LATT -1
SFAC C  
C      1  0.5303760000000  0.5353320000000  0.4454090000000 1.0
C      1  0.5405520000000  0.4823510000000  0.4479400000000 1.0
C      1  0.4956530000000  0.4544670000000  0.4474970000000 1.0
C      1  0.4557520000000  0.4899860000000  0.4485740000000 1.0
C      1  0.4771130000000  0.5387770000000  0.4485580000000 1.0
C      1  0.5440250000000  0.5069250000000  0.5204200000000 1.0
C      1  0.5287030000000  0.4665360000000  0.5253480000000 1.0
C      1  0.4746460000000  0.4635260000000  0.5240080000000 1.0
C      1  0.4568130000000  0.5125060000000  0.5248310000000 1.0
C      1  0.4984170000000  0.5439620000000  0.5246700000000 1.0
C      1  0.5675820000000  0.5024030000000  0.4840600000000 1.0
C      1  0.5226650000000  0.4368760000000  0.4867550000000 1.0
C      1  0.4471470000000  0.4593380000000  0.4873810000000 1.0
C      1  0.4454170000000  0.5380000000000  0.4875610000000 1.0
C      1  0.5202260000000  0.5643510000000  0.4865390000000 1.0
C      1  0.5455960000000  0.4525460000000  0.4905350000000 1.0
C      1  0.4690190000000  0.4421170000000  0.4907650000000 1.0
C      1  0.4354920000000  0.5120020000000  0.4910530000000 1.0
C      1  0.4924670000000  0.5649150000000  0.4911560000000 1.0
C      1  0.5597210000000  0.5287800000000  0.4884710000000 1.0
C      1  0.5075430000000  0.5250320000000  0.5513350000000 1.0
C      1  0.5262710000000  0.5009080000000  0.5487920000000 1.0
C      1  0.5076590000000  0.4750350000000  0.5504050000000 1.0
C      1  0.4776510000000  0.4841290000000  0.5503990000000 1.0
C      1  0.4774190000000  0.5156550000000  0.5513710000000 1.0
C      1  0.5379320000000  0.5765060000000  0.5052470000000 1.0
C      1  0.5848850000000  0.4928110000000  0.5030350000000 1.0
C      1  0.5172740000000  0.4155570000000  0.5047180000000 1.0
C      1  0.4243080000000  0.4580100000000  0.5042530000000 1.0
C      1  0.4373120000000  0.5592920000000  0.5045370000000 1.0
C      1  0.4745740000000  0.5412200000000  0.4775740000000 1.0
C      1  0.5327950000000  0.5386210000000  0.4744760000000 1.0
C      1  0.5453730000000  0.4822540000000  0.4767890000000 1.0
C      1  0.4968200000000  0.4507360000000  0.4765580000000 1.0
C      1  0.4528180000000  0.4880740000000  0.4776110000000 1.0
C      1  0.5232530000000  0.5138030000000  0.4943670000000 1.0
C      1  0.5204010000000  0.4819650000000  0.4999950000000 1.0
C      1  0.4892640000000  0.4756350000000  0.4984670000000 1.0
C      1  0.4734540000000  0.5034920000000  0.4998700000000 1.0
C      1  0.4954610000000  0.5260850000000  0.4998030000000 1.0
C      1  0.4258740000000  0.4758750000000  0.5264900000000 1.0
C      1  0.4548000000000  0.5629670000000  0.5268050000000 1.0
C      1  0.5456880000000  0.5588420000000  0.5263380000000 1.0
C      1  0.5676550000000  0.4830480000000  0.5271730000000 1.0
C      1  0.5009210000000  0.4234250000000  0.5266770000000 1.0
C      1  0.5244470000000  0.5523290000000  0.5432610000000 1.0
C      1  0.5556200000000  0.4936960000000  0.5559890000000 1.0
C      1  0.5129000000000  0.4427790000000  0.5432690000000 1.0
C      1  0.4479960000000  0.4701930000000  0.5431360000000 1.0
C      1  0.4557100000000  0.5402150000000  0.5435930000000 1.0
C      1  0.5268930000000  0.5063100000000  0.4303310000000 1.0
C      1  0.5137750000000  0.4758660000000  0.4305820000000 1.0
C      1  0.4809730000000  0.4788040000000  0.4311070000000 1.0
C      1  0.4738260000000  0.5111250000000  0.4313960000000 1.0
C      1  0.5021480000000  0.5281500000000  0.4304000000000 1.0
C      1  0.5575950000000  0.4545010000000  0.5185580000000 1.0
C      1  0.4753170000000  0.4324800000000  0.5186820000000 1.0
C      1  0.4272990000000  0.5031680000000  0.5187580000000 1.0
C      1  0.4813200000000  0.5696360000000  0.5189730000000 1.0
C      1  0.5593960000000  0.5360760000000  0.5173490000000 1.0
END
