TITL C-1154810-7815-129 -0.0018260601345715 125000 -366.432960438133 0 0 60 (C1) n - 1
REM
REM in /home/nfs/bkarasulu/CARBON/AIRSS/Generating-Clusters/AIREBO/Higher-Symm/Only-C60
REM
REM
REM
REM
REM
REM ./C.cell (28575a23ae977d3b5fae324c64b13b57)
REM
REM compiler GCC version 9.2.1 20190827 (Red Hat 9.2.1-1)
REM options -cpp -mtune=generic -march=x86-64 -g -O0 -fpre-include=/usr/include/finclude/math-vector-fortran.h
REM seed -1703500101 1005958366 304497692 1635934968 -772562426 473838794 766217232 1127785132 1963988368 -1567903008 891774784 -207494401 -1826794414 -1228883960 -1911671755 -886522066 1737051198 -1611956790 1821043561 119864759 -814996200 -315136878 1677154577 -1878660605 1806000269 -1138067221 1801303260 -353308375 1860685385 707435988 -1159176680 -2026520099 1453259751
REM
CELL 1.54180   50.00000   50.00000   50.00000   90.00000   90.00000   90.00000
LATT -1
SFAC C  
C      1  0.4409560000000  0.4914920000000  0.5212380000000 1.0
C      1  0.5245960000000  0.4375210000000  0.4963220000000 1.0
C      1  0.4940360000000  0.5301250000000  0.4370780000000 1.0
C      1  0.5622500000000  0.4962940000000  0.4745160000000 1.0
C      1  0.4407060000000  0.5018510000000  0.4744910000000 1.0
C      1  0.5587910000000  0.5048960000000  0.5222850000000 1.0
C      1  0.4735420000000  0.4364060000000  0.5122740000000 1.0
C      1  0.5251450000000  0.5628420000000  0.5042620000000 1.0
C      1  0.4774280000000  0.5602030000000  0.4945320000000 1.0
C      1  0.5046530000000  0.5240650000000  0.5630430000000 1.0
C      1  0.4940090000000  0.4771150000000  0.5635500000000 1.0
C      1  0.5038230000000  0.4769770000000  0.4391040000000 1.0
C      1  0.5242670000000  0.4953910000000  0.4381020000000 1.0
C      1  0.4939610000000  0.4360330000000  0.5308080000000 1.0
C      1  0.4398560000000  0.5208020000000  0.4940700000000 1.0
C      1  0.4744720000000  0.4957880000000  0.5631410000000 1.0
C      1  0.4733390000000  0.5119240000000  0.4373290000000 1.0
C      1  0.5232960000000  0.5042190000000  0.5630480000000 1.0
C      1  0.5042650000000  0.4390440000000  0.4777570000000 1.0
C      1  0.5055050000000  0.5611260000000  0.5228330000000 1.0
C      1  0.4968790000000  0.5642940000000  0.4760530000000 1.0
C      1  0.5615090000000  0.5240410000000  0.5032560000000 1.0
C      1  0.5603150000000  0.4772330000000  0.4936730000000 1.0
C      1  0.4414070000000  0.4727450000000  0.5015750000000 1.0
C      1  0.4466730000000  0.4283880000000  0.5145640000000 1.0
C      1  0.5066980000000  0.4502180000000  0.4315870000000 1.0
C      1  0.4288380000000  0.5062270000000  0.4494500000000 1.0
C      1  0.5512750000000  0.4306350000000  0.4912830000000 1.0
C      1  0.4503410000000  0.5672360000000  0.4920770000000 1.0
C      1  0.5517140000000  0.5702630000000  0.5098460000000 1.0
C      1  0.4920520000000  0.4517320000000  0.5753900000000 1.0
C      1  0.5093060000000  0.5509890000000  0.5697500000000 1.0
C      1  0.4923320000000  0.5571610000000  0.4297250000000 1.0
C      1  0.5685040000000  0.5065290000000  0.5486030000000 1.0
C      1  0.4302670000000  0.4880180000000  0.5470230000000 1.0
C      1  0.5704310000000  0.4903990000000  0.4482100000000 1.0
C      1  0.5069160000000  0.4310730000000  0.4511030000000 1.0
C      1  0.4293450000000  0.4476770000000  0.5051110000000 1.0
C      1  0.4463470000000  0.5152380000000  0.4301250000000 1.0
C      1  0.4913230000000  0.4301790000000  0.5581100000000 1.0
C      1  0.4930390000000  0.5754140000000  0.4505230000000 1.0
C      1  0.5074400000000  0.5697790000000  0.5494930000000 1.0
C      1  0.5699340000000  0.4509770000000  0.4909600000000 1.0
C      1  0.5706360000000  0.5500460000000  0.5093730000000 1.0
C      1  0.4311890000000  0.5473160000000  0.4908240000000 1.0
C      1  0.5504320000000  0.5075330000000  0.5695070000000 1.0
C      1  0.5504320000000  0.4907570000000  0.4291200000000 1.0
C      1  0.4474270000000  0.4904860000000  0.5685910000000 1.0
C      1  0.5382210000000  0.4802400000000  0.5167980000000 1.0
C      1  0.4586650000000  0.5171800000000  0.5185170000000 1.0
C      1  0.5452400000000  0.5227380000000  0.4758830000000 1.0
C      1  0.5194090000000  0.4525410000000  0.5233730000000 1.0
C      1  0.4836260000000  0.5387170000000  0.5176680000000 1.0
C      1  0.5224130000000  0.5458150000000  0.4778760000000 1.0
C      1  0.5184840000000  0.4801690000000  0.5432090000000 1.0
C      1  0.4791900000000  0.5205910000000  0.5451370000000 1.0
C      1  0.5194740000000  0.5221760000000  0.4535140000000 1.0
C      1  0.4643110000000  0.4774770000000  0.4768910000000 1.0
C      1  0.4797140000000  0.4490390000000  0.4874330000000 1.0
C      1  0.4793570000000  0.4866230000000  0.4490110000000 1.0
END
