TITL C-1154829-9094-650 0.000682862853657511 125000 -310.745547606813 0 0 60 (C1) n - 1
REM
REM in /home/nfs/bkarasulu/CARBON/AIRSS/Generating-Clusters/AIREBO/Higher-Symm/Only-C60
REM
REM
REM
REM
REM
REM ./C.cell (28575a23ae977d3b5fae324c64b13b57)
REM
REM compiler GCC version 9.2.1 20190827 (Red Hat 9.2.1-1)
REM options -cpp -mtune=generic -march=x86-64 -g -O0 -fpre-include=/usr/include/finclude/math-vector-fortran.h
REM seed 1425076355 746764004 1158172430 -180808033 1349679944 309507605 1745226902 1802929259 799283070 -1647567798 1847506139 -1842239858 1936979009 -1429573237 1815850057 -970101339 -1774990326 757502348 860616909 471315841 1263610356 -948284252 20536222 223272373 493021769 2069562820 -675809118 1027527920 1553237931 -1889307795 -1316977028 628021449 1080666980
REM
CELL 1.54180   50.00000   50.00000   50.00000   90.00000   90.00000   90.00000
LATT -1
SFAC C  
C      1  0.4835950000000  0.5097210000000  0.4736660000000 1.0
C      1  0.5317000000000  0.5092420000000  0.4984640000000 1.0
C      1  0.4847910000000  0.5092540000000  0.5282850000000 1.0
C      1  0.4474340000000  0.5370540000000  0.4650990000000 1.0
C      1  0.5563920000000  0.5381830000000  0.4717010000000 1.0
C      1  0.4964690000000  0.5379630000000  0.5630040000000 1.0
C      1  0.5470610000000  0.5032580000000  0.5412160000000 1.0
C      1  0.4392360000000  0.5073610000000  0.5212370000000 1.0
C      1  0.5117240000000  0.5079640000000  0.4369150000000 1.0
C      1  0.4599690000000  0.5584470000000  0.4787300000000 1.0
C      1  0.5381940000000  0.5592870000000  0.4764110000000 1.0
C      1  0.5018970000000  0.5588230000000  0.5446670000000 1.0
C      1  0.5655330000000  0.4410020000000  0.5154730000000 1.0
C      1  0.4489990000000  0.4439770000000  0.5496300000000 1.0
C      1  0.4864830000000  0.4413430000000  0.4364970000000 1.0
C      1  0.4554090000000  0.4392620000000  0.5013980000000 1.0
C      1  0.5267020000000  0.4437730000000  0.4648910000000 1.0
C      1  0.5204180000000  0.4367510000000  0.5346050000000 1.0
C      1  0.4279690000000  0.4928240000000  0.4728780000000 1.0
C      1  0.5601830000000  0.4949750000000  0.4492270000000 1.0
C      1  0.5128810000000  0.4939740000000  0.5763210000000 1.0
C      1  0.4551350000000  0.4978760000000  0.4325290000000 1.0
C      1  0.5816820000000  0.4990310000000  0.4931300000000 1.0
C      1  0.4640410000000  0.5000840000000  0.5746390000000 1.0
C      1  0.5766620000000  0.4686940000000  0.4442240000000 1.0
C      1  0.5085550000000  0.4675750000000  0.5928440000000 1.0
C      1  0.4167430000000  0.4658560000000  0.4611820000000 1.0
C      1  0.4825490000000  0.4501020000000  0.4898470000000 1.0
C      1  0.5162690000000  0.4504860000000  0.4941890000000 1.0
C      1  0.4951540000000  0.4499260000000  0.5214340000000 1.0
C      1  0.5106630000000  0.4557470000000  0.4463910000000 1.0
C      1  0.5427250000000  0.4516470000000  0.5315390000000 1.0
C      1  0.4463980000000  0.4546190000000  0.5218720000000 1.0
C      1  0.5165610000000  0.5176840000000  0.4691440000000 1.0
C      1  0.5181580000000  0.5162550000000  0.5288590000000 1.0
C      1  0.4652660000000  0.5168230000000  0.5014920000000 1.0
C      1  0.5163040000000  0.5168410000000  0.5628140000000 1.0
C      1  0.4371760000000  0.5160970000000  0.4823310000000 1.0
C      1  0.5467540000000  0.5176920000000  0.4534870000000 1.0
C      1  0.4637470000000  0.5503050000000  0.5072300000000 1.0
C      1  0.5116780000000  0.5511120000000  0.4652710000000 1.0
C      1  0.5244720000000  0.5496400000000  0.5274710000000 1.0
C      1  0.4886520000000  0.5464230000000  0.4406700000000 1.0
C      1  0.5573680000000  0.5460230000000  0.5197140000000 1.0
C      1  0.4543820000000  0.5469530000000  0.5397530000000 1.0
C      1  0.4824780000000  0.5669720000000  0.4646230000000 1.0
C      1  0.5392370000000  0.5669170000000  0.5032290000000 1.0
C      1  0.4783790000000  0.5669780000000  0.5320670000000 1.0
C      1  0.4625650000000  0.4837190000000  0.5237480000000 1.0
C      1  0.4983740000000  0.4845150000000  0.4562700000000 1.0
C      1  0.5368790000000  0.4816410000000  0.5178470000000 1.0
C      1  0.5486130000000  0.4610100000000  0.4935000000000 1.0
C      1  0.4777190000000  0.4619780000000  0.5450520000000 1.0
C      1  0.4743720000000  0.4611060000000  0.4616310000000 1.0
C      1  0.5672450000000  0.4761880000000  0.4760920000000 1.0
C      1  0.4850170000000  0.4765820000000  0.5699350000000 1.0
C      1  0.4487650000000  0.4747440000000  0.4537490000000 1.0
C      1  0.5623420000000  0.5230670000000  0.4987350000000 1.0
C      1  0.4694930000000  0.5238070000000  0.5549180000000 1.0
C      1  0.4683880000000  0.5228440000000  0.4462320000000 1.0
END
