TITL C-1154828-9214-545 -0.00068371640082637 125000 -319.253235127751 0 0 60 (C1) n - 1
REM
REM in /home/nfs/bkarasulu/CARBON/AIRSS/Generating-Clusters/AIREBO/Higher-Symm/Only-C60
REM
REM
REM
REM
REM
REM ./C.cell (28575a23ae977d3b5fae324c64b13b57)
REM
REM compiler GCC version 9.2.1 20190827 (Red Hat 9.2.1-1)
REM options -cpp -mtune=generic -march=x86-64 -g -O0 -fpre-include=/usr/include/finclude/math-vector-fortran.h
REM seed -1082818115 -268153559 -1571248084 1399114559 -1201513787 -475357186 1232455634 -697134754 -744189357 -2117583724 299687525 1114795320 -1785999427 1739108944 1368802364 -1075514845 1043408716 1556962949 1001048018 1158778055 33564254 562373999 -573463685 530110448 1704352262 -1854233187 354049888 -1631841667 1891861914 -139398337 1697366480 497991894 -1242523943
REM
CELL 1.54180   50.00000   50.00000   50.00000   90.00000   90.00000   90.00000
LATT -1
SFAC C  
C      1  0.5599420000000  0.4707820000000  0.4695220000000 1.0
C      1  0.4942710000000  0.4756710000000  0.4323390000000 1.0
C      1  0.4414130000000  0.4802430000000  0.4878190000000 1.0
C      1  0.4598770000000  0.4778750000000  0.5516590000000 1.0
C      1  0.5366780000000  0.4690010000000  0.5513060000000 1.0
C      1  0.5228960000000  0.4475000000000  0.5060640000000 1.0
C      1  0.5105650000000  0.4516550000000  0.4771410000000 1.0
C      1  0.4809420000000  0.4383650000000  0.4842570000000 1.0
C      1  0.4735960000000  0.4445300000000  0.5139020000000 1.0
C      1  0.5004300000000  0.4457910000000  0.5315310000000 1.0
C      1  0.4581800000000  0.5346670000000  0.4488580000000 1.0
C      1  0.4348290000000  0.5441250000000  0.5237810000000 1.0
C      1  0.5016200000000  0.5369310000000  0.5640320000000 1.0
C      1  0.5630620000000  0.5375260000000  0.5150690000000 1.0
C      1  0.5328410000000  0.5426750000000  0.4481540000000 1.0
C      1  0.4844390000000  0.4652980000000  0.5543380000000 1.0
C      1  0.5322400000000  0.4751110000000  0.5203460000000 1.0
C      1  0.5350550000000  0.4544410000000  0.4591260000000 1.0
C      1  0.4884600000000  0.4728800000000  0.4657260000000 1.0
C      1  0.4633270000000  0.4742880000000  0.5106760000000 1.0
C      1  0.4604230000000  0.4676430000000  0.4472070000000 1.0
C      1  0.4318280000000  0.4764160000000  0.5233040000000 1.0
C      1  0.5052750000000  0.4852090000000  0.5697110000000 1.0
C      1  0.5626350000000  0.4831900000000  0.5074250000000 1.0
C      1  0.5387060000000  0.4800050000000  0.4370080000000 1.0
C      1  0.5084710000000  0.5064670000000  0.4741550000000 1.0
C      1  0.4804480000000  0.4980110000000  0.4836520000000 1.0
C      1  0.4838910000000  0.4996050000000  0.5157380000000 1.0
C      1  0.5119240000000  0.5092200000000  0.5234280000000 1.0
C      1  0.5278320000000  0.4995430000000  0.4969660000000 1.0
C      1  0.5197370000000  0.5375920000000  0.5403270000000 1.0
C      1  0.5482260000000  0.5453170000000  0.4925990000000 1.0
C      1  0.5057920000000  0.5358860000000  0.4597240000000 1.0
C      1  0.4621220000000  0.5450770000000  0.4770630000000 1.0
C      1  0.4630590000000  0.5527310000000  0.5343190000000 1.0
C      1  0.5384210000000  0.4507670000000  0.4235460000000 1.0
C      1  0.4620630000000  0.4428990000000  0.4645370000000 1.0
C      1  0.4430450000000  0.4460900000000  0.5294960000000 1.0
C      1  0.5130720000000  0.4511040000000  0.5630140000000 1.0
C      1  0.5567490000000  0.4497670000000  0.5038550000000 1.0
C      1  0.5228570000000  0.5571590000000  0.4967250000000 1.0
C      1  0.4944070000000  0.5564520000000  0.4803040000000 1.0
C      1  0.4703050000000  0.5649380000000  0.5027350000000 1.0
C      1  0.4895730000000  0.5725510000000  0.5279300000000 1.0
C      1  0.5154830000000  0.5615090000000  0.5238270000000 1.0
C      1  0.5273110000000  0.5000400000000  0.5510930000000 1.0
C      1  0.5548110000000  0.4988050000000  0.4793120000000 1.0
C      1  0.5124270000000  0.5012310000000  0.4409640000000 1.0
C      1  0.4504510000000  0.5068800000000  0.4765190000000 1.0
C      1  0.4609620000000  0.5033520000000  0.5378940000000 1.0
C      1  0.4341710000000  0.5103130000000  0.5220830000000 1.0
C      1  0.4888860000000  0.5106020000000  0.5772750000000 1.0
C      1  0.5725190000000  0.5075730000000  0.5233390000000 1.0
C      1  0.5439390000000  0.5136810000000  0.4378720000000 1.0
C      1  0.4622600000000  0.5009830000000  0.4466560000000 1.0
C      1  0.5490920000000  0.5228670000000  0.5420800000000 1.0
C      1  0.5557160000000  0.5278090000000  0.4671300000000 1.0
C      1  0.4864140000000  0.5226270000000  0.4358110000000 1.0
C      1  0.4385840000000  0.5298320000000  0.4943630000000 1.0
C      1  0.4714500000000  0.5289010000000  0.5533680000000 1.0
END
