TITL C-1154824-75-263 -0.00113109330549211 125000 -334.257889112304 0 0 60 (C1) n - 1
REM
REM in /home/nfs/bkarasulu/CARBON/AIRSS/Generating-Clusters/AIREBO/Higher-Symm/Only-C60
REM
REM
REM
REM
REM
REM ./C.cell (28575a23ae977d3b5fae324c64b13b57)
REM
REM compiler GCC version 9.2.1 20190827 (Red Hat 9.2.1-1)
REM options -cpp -mtune=generic -march=x86-64 -g -O0 -fpre-include=/usr/include/finclude/math-vector-fortran.h
REM seed -326411397 507925905 1199382847 -1679510941 829422305 -178309122 -148755566 -705398955 320378097 1211235395 1854683267 147150284 1005274578 -568732477 1349313127 1761068334 1625060577 880356044 -542778362 -602626557 -1096405976 1461958525 -1987056037 1593866516 429384157 668855896 632658099 -2034966161 -1865150559 678261813 1880468568 -1953656358 -876653843
REM
CELL 1.54180   50.00000   50.00000   50.00000   90.00000   90.00000   90.00000
LATT -1
SFAC C  
C      1  0.4384640000000  0.4542310000000  0.4704040000000 1.0
C      1  0.4548820000000  0.4473860000000  0.5445140000000 1.0
C      1  0.4449860000000  0.5183470000000  0.5253770000000 1.0
C      1  0.4440360000000  0.5603210000000  0.4881120000000 1.0
C      1  0.4395570000000  0.5022790000000  0.4414900000000 1.0
C      1  0.5484610000000  0.4532050000000  0.4834270000000 1.0
C      1  0.5530640000000  0.4556030000000  0.5361710000000 1.0
C      1  0.5603540000000  0.5258460000000  0.5281390000000 1.0
C      1  0.5568610000000  0.5661700000000  0.4886580000000 1.0
C      1  0.5606430000000  0.5037090000000  0.4545450000000 1.0
C      1  0.4874660000000  0.4652110000000  0.5684170000000 1.0
C      1  0.4742450000000  0.5432290000000  0.5480250000000 1.0
C      1  0.4869090000000  0.5576870000000  0.4675760000000 1.0
C      1  0.4838560000000  0.4873940000000  0.4313750000000 1.0
C      1  0.4798490000000  0.4403800000000  0.4915780000000 1.0
C      1  0.5180400000000  0.4651250000000  0.5614740000000 1.0
C      1  0.5271280000000  0.5471500000000  0.5490700000000 1.0
C      1  0.5142290000000  0.5583730000000  0.4685270000000 1.0
C      1  0.5158790000000  0.4904930000000  0.4424710000000 1.0
C      1  0.5101710000000  0.4274140000000  0.4885380000000 1.0
C      1  0.4830760000000  0.4161330000000  0.5152140000000 1.0
C      1  0.4905030000000  0.5019510000000  0.5833250000000 1.0
C      1  0.4854460000000  0.5593210000000  0.5678760000000 1.0
C      1  0.4888580000000  0.5400710000000  0.4214440000000 1.0
C      1  0.4829440000000  0.4517460000000  0.4413180000000 1.0
C      1  0.5127310000000  0.4226810000000  0.5192040000000 1.0
C      1  0.5155290000000  0.4916420000000  0.5810100000000 1.0
C      1  0.5128960000000  0.5616570000000  0.5681740000000 1.0
C      1  0.5138480000000  0.5445700000000  0.4208140000000 1.0
C      1  0.5150750000000  0.4571380000000  0.4490180000000 1.0
C      1  0.5293910000000  0.5401670000000  0.4476500000000 1.0
C      1  0.5129830000000  0.4822120000000  0.4744540000000 1.0
C      1  0.5122180000000  0.4743460000000  0.5135180000000 1.0
C      1  0.5337130000000  0.4983740000000  0.5566520000000 1.0
C      1  0.5168030000000  0.5501360000000  0.5179940000000 1.0
C      1  0.4749880000000  0.5338920000000  0.4504520000000 1.0
C      1  0.4842300000000  0.4775430000000  0.4632180000000 1.0
C      1  0.4800240000000  0.4697200000000  0.5063700000000 1.0
C      1  0.4722830000000  0.4937730000000  0.5569870000000 1.0
C      1  0.4855970000000  0.5484480000000  0.5174760000000 1.0
C      1  0.5380040000000  0.5104630000000  0.4407200000000 1.0
C      1  0.5276780000000  0.4396570000000  0.4713270000000 1.0
C      1  0.5201130000000  0.4476190000000  0.5335360000000 1.0
C      1  0.5448620000000  0.5248820000000  0.5521980000000 1.0
C      1  0.5275820000000  0.5654450000000  0.4915510000000 1.0
C      1  0.4643830000000  0.5098210000000  0.4302080000000 1.0
C      1  0.4652510000000  0.4424780000000  0.4658670000000 1.0
C      1  0.4701200000000  0.4433620000000  0.5678070000000 1.0
C      1  0.4587910000000  0.5195340000000  0.5498060000000 1.0
C      1  0.4730830000000  0.5633510000000  0.4910430000000 1.0
C      1  0.5443950000000  0.5331290000000  0.5073090000000 1.0
C      1  0.5490520000000  0.5359730000000  0.4751160000000 1.0
C      1  0.5562350000000  0.5037650000000  0.4833550000000 1.0
C      1  0.5380420000000  0.4816550000000  0.4926000000000 1.0
C      1  0.5390950000000  0.4822260000000  0.5323750000000 1.0
C      1  0.4606850000000  0.5286300000000  0.5058480000000 1.0
C      1  0.4541390000000  0.5302040000000  0.4759790000000 1.0
C      1  0.4423540000000  0.5029020000000  0.4692790000000 1.0
C      1  0.4592170000000  0.4790180000000  0.4809440000000 1.0
C      1  0.4647020000000  0.4708160000000  0.5330750000000 1.0
END
