TITL C-1154825-9328-486 -0.000953141192632937 125000 -321.450645455912 0 0 60 (C1) n - 1
REM
REM in /home/nfs/bkarasulu/CARBON/AIRSS/Generating-Clusters/AIREBO/Higher-Symm/Only-C60
REM
REM
REM
REM
REM
REM ./C.cell (28575a23ae977d3b5fae324c64b13b57)
REM
REM compiler GCC version 9.2.1 20190827 (Red Hat 9.2.1-1)
REM options -cpp -mtune=generic -march=x86-64 -g -O0 -fpre-include=/usr/include/finclude/math-vector-fortran.h
REM seed 1726333311 -928196935 1719295004 -758396055 -29414116 1221847468 -28614272 -379510312 -1832859859 504102268 -1032643122 711640651 -1039750783 2051336360 -801245007 -1539457592 -1222735871 894080657 -486666656 -1755221879 -1672774543 -146722379 741941675 1900621269 -2030496843 -1508887933 -144540707 1473420915 1287066128 -1617262036 -119116414 197787587 -1774193137
REM
CELL 1.54180   50.00000   50.00000   50.00000   90.00000   90.00000   90.00000
LATT -1
SFAC C  
C      1  0.4703120000000  0.5116760000000  0.5658550000000 1.0
C      1  0.4730480000000  0.4911870000000  0.4353910000000 1.0
C      1  0.5206460000000  0.4939540000000  0.5682240000000 1.0
C      1  0.5247630000000  0.5061230000000  0.4406630000000 1.0
C      1  0.4502420000000  0.4489590000000  0.5211470000000 1.0
C      1  0.4494850000000  0.5497150000000  0.4744310000000 1.0
C      1  0.5575420000000  0.5470510000000  0.5210740000000 1.0
C      1  0.5625680000000  0.4498860000000  0.4827580000000 1.0
C      1  0.5091320000000  0.4826200000000  0.5057830000000 1.0
C      1  0.5084530000000  0.5148690000000  0.4830670000000 1.0
C      1  0.4816380000000  0.5112910000000  0.5011620000000 1.0
C      1  0.4869510000000  0.4732720000000  0.4902820000000 1.0
C      1  0.4825820000000  0.5242580000000  0.5301540000000 1.0
C      1  0.4680530000000  0.4660510000000  0.4655340000000 1.0
C      1  0.5116580000000  0.4748850000000  0.5346260000000 1.0
C      1  0.5262590000000  0.5364380000000  0.4661160000000 1.0
C      1  0.5214910000000  0.4792080000000  0.4466410000000 1.0
C      1  0.5103970000000  0.5174200000000  0.5484990000000 1.0
C      1  0.4745830000000  0.5196000000000  0.4397460000000 1.0
C      1  0.4850070000000  0.4846720000000  0.5533530000000 1.0
C      1  0.4345920000000  0.5386110000000  0.5009310000000 1.0
C      1  0.4435260000000  0.4694510000000  0.4996270000000 1.0
C      1  0.5787120000000  0.4605920000000  0.5025300000000 1.0
C      1  0.5759800000000  0.5363480000000  0.5031640000000 1.0
C      1  0.5790230000000  0.5210540000000  0.4435580000000 1.0
C      1  0.5708310000000  0.4752590000000  0.5535540000000 1.0
C      1  0.4307980000000  0.5099670000000  0.4530090000000 1.0
C      1  0.4509780000000  0.4848440000000  0.5734500000000 1.0
C      1  0.5398350000000  0.5019210000000  0.4809560000000 1.0
C      1  0.5393520000000  0.4955550000000  0.5144840000000 1.0
C      1  0.4531600000000  0.5159420000000  0.4874600000000 1.0
C      1  0.4694050000000  0.4835340000000  0.5165990000000 1.0
C      1  0.4325370000000  0.5376060000000  0.5275950000000 1.0
C      1  0.4384350000000  0.4892880000000  0.4786300000000 1.0
C      1  0.5718240000000  0.4860720000000  0.5110070000000 1.0
C      1  0.5700350000000  0.5107800000000  0.4938350000000 1.0
C      1  0.5053580000000  0.5598710000000  0.4607770000000 1.0
C      1  0.5082800000000  0.4412450000000  0.5382450000000 1.0
C      1  0.4903540000000  0.4410770000000  0.4668960000000 1.0
C      1  0.4859320000000  0.5580950000000  0.5296760000000 1.0
C      1  0.5065450000000  0.4326960000000  0.4883200000000 1.0
C      1  0.5036330000000  0.5671760000000  0.5102050000000 1.0
C      1  0.4933780000000  0.5713150000000  0.4833020000000 1.0
C      1  0.4959200000000  0.4282590000000  0.5158850000000 1.0
C      1  0.4873610000000  0.5407040000000  0.5595360000000 1.0
C      1  0.4948530000000  0.4672040000000  0.4450990000000 1.0
C      1  0.5075830000000  0.4624500000000  0.5660110000000 1.0
C      1  0.5018630000000  0.5306870000000  0.4430010000000 1.0
C      1  0.5334300000000  0.4387400000000  0.4833980000000 1.0
C      1  0.5289820000000  0.5579050000000  0.5155950000000 1.0
C      1  0.4654220000000  0.5745410000000  0.4797150000000 1.0
C      1  0.4672290000000  0.4264530000000  0.5182300000000 1.0
C      1  0.5429990000000  0.4821560000000  0.5456250000000 1.0
C      1  0.5514650000000  0.5193830000000  0.4537560000000 1.0
C      1  0.4508790000000  0.5254880000000  0.5423940000000 1.0
C      1  0.4443500000000  0.4796620000000  0.4469000000000 1.0
C      1  0.5324320000000  0.5260230000000  0.5279170000000 1.0
C      1  0.5397670000000  0.4698320000000  0.4695300000000 1.0
C      1  0.4574890000000  0.4686790000000  0.5448160000000 1.0
C      1  0.4506610000000  0.5304020000000  0.4502770000000 1.0
END
