TITL C-1154803-8277-232 0.000577265624721861 125000 -373.39377421564 0 0 60 (C1) n - 1
REM
REM in /home/nfs/bkarasulu/CARBON/AIRSS/Generating-Clusters/AIREBO/Higher-Symm/Only-C60
REM
REM
REM
REM
REM
REM ./C.cell (28575a23ae977d3b5fae324c64b13b57)
REM
REM compiler GCC version 9.2.1 20190827 (Red Hat 9.2.1-1)
REM options -cpp -mtune=generic -march=x86-64 -g -O0 -fpre-include=/usr/include/finclude/math-vector-fortran.h
REM seed -1862203854 -1674302517 -1893318093 -1114063885 344287359 997604258 1748352512 255851304 527991873 926897182 -501093244 250101588 1247692876 835369473 -1496356977 703500865 1060427898 -319251761 -29407750 1709321655 1730440688 -1371580435 586602606 -847523207 -1708207582 1427711001 538866979 -253805414 1216963511 675072055 -1499205421 -1264848076 -1062898443
REM
CELL 1.54180   50.00000   50.00000   50.00000   90.00000   90.00000   90.00000
LATT -1
SFAC C  
C      1  0.5144020000000  0.5475360000000  0.4390520000000 1.0
C      1  0.5479090000000  0.5042380000000  0.4411680000000 1.0
C      1  0.5156490000000  0.4584750000000  0.4428050000000 1.0
C      1  0.4621490000000  0.4721170000000  0.4464130000000 1.0
C      1  0.4620440000000  0.5285840000000  0.4442020000000 1.0
C      1  0.4868930000000  0.5468630000000  0.4393240000000 1.0
C      1  0.4537510000000  0.5021960000000  0.4423290000000 1.0
C      1  0.4843600000000  0.4555170000000  0.4455760000000 1.0
C      1  0.5378440000000  0.4748440000000  0.4454890000000 1.0
C      1  0.5402970000000  0.5308170000000  0.4426610000000 1.0
C      1  0.5711950000000  0.4943460000000  0.5129900000000 1.0
C      1  0.5137950000000  0.4287690000000  0.5130920000000 1.0
C      1  0.4404360000000  0.4650940000000  0.5171380000000 1.0
C      1  0.4495750000000  0.5459250000000  0.5154350000000 1.0
C      1  0.5291710000000  0.5629650000000  0.5111160000000 1.0
C      1  0.4265730000000  0.4930790000000  0.5135040000000 1.0
C      1  0.4850410000000  0.4281190000000  0.5142580000000 1.0
C      1  0.5585520000000  0.4660420000000  0.5164350000000 1.0
C      1  0.5538810000000  0.5491990000000  0.5117960000000 1.0
C      1  0.4713280000000  0.5673710000000  0.5111390000000 1.0
C      1  0.5666130000000  0.4945330000000  0.4646580000000 1.0
C      1  0.5131790000000  0.4357830000000  0.4645330000000 1.0
C      1  0.4405270000000  0.4632560000000  0.4673740000000 1.0
C      1  0.4473100000000  0.5453070000000  0.4660520000000 1.0
C      1  0.5282380000000  0.5629620000000  0.4627070000000 1.0
C      1  0.4339150000000  0.4929140000000  0.4651600000000 1.0
C      1  0.4830100000000  0.4308980000000  0.4656820000000 1.0
C      1  0.5582820000000  0.4652580000000  0.4669950000000 1.0
C      1  0.5555780000000  0.5480130000000  0.4638550000000 1.0
C      1  0.4729980000000  0.5617940000000  0.4631740000000 1.0
C      1  0.4313260000000  0.5069270000000  0.4894880000000 1.0
C      1  0.4862520000000  0.5683300000000  0.4872100000000 1.0
C      1  0.5632780000000  0.5363940000000  0.4884420000000 1.0
C      1  0.5483910000000  0.4547720000000  0.4905820000000 1.0
C      1  0.4703630000000  0.4344910000000  0.4908100000000 1.0
C      1  0.5696150000000  0.5087310000000  0.4888860000000 1.0
C      1  0.5147070000000  0.5673840000000  0.4871790000000 1.0
C      1  0.4408300000000  0.5329830000000  0.4899730000000 1.0
C      1  0.4491420000000  0.4524400000000  0.4914050000000 1.0
C      1  0.5265020000000  0.4378060000000  0.4893380000000 1.0
C      1  0.5703610000000  0.5089150000000  0.5372190000000 1.0
C      1  0.5274480000000  0.4346630000000  0.5375440000000 1.0
C      1  0.4431550000000  0.4417870000000  0.5406880000000 1.0
C      1  0.4266910000000  0.5389050000000  0.5385370000000 1.0
C      1  0.5145620000000  0.5631220000000  0.5351190000000 1.0
C      1  0.4281760000000  0.5084090000000  0.5374750000000 1.0
C      1  0.4730030000000  0.4352330000000  0.5392620000000 1.0
C      1  0.5578640000000  0.4404190000000  0.5381240000000 1.0
C      1  0.5620710000000  0.5384510000000  0.5366830000000 1.0
C      1  0.4855730000000  0.5718760000000  0.5352380000000 1.0
C      1  0.5427920000000  0.4703980000000  0.5462610000000 1.0
C      1  0.4875900000000  0.4575790000000  0.5533670000000 1.0
C      1  0.4526600000000  0.4998090000000  0.5526890000000 1.0
C      1  0.4843210000000  0.5460760000000  0.5543540000000 1.0
C      1  0.5396330000000  0.5260990000000  0.5556900000000 1.0
C      1  0.4596440000000  0.4724640000000  0.5442260000000 1.0
C      1  0.5140880000000  0.4566750000000  0.5533690000000 1.0
C      1  0.5502890000000  0.4967270000000  0.5574060000000 1.0
C      1  0.5149810000000  0.5381300000000  0.5531180000000 1.0
C      1  0.4601980000000  0.5311870000000  0.5442020000000 1.0
END
