TITL C-1154821-8623-63 -0.000721182729035487 125000 -309.271819333913 0 0 60 (C1) n - 1
REM
REM in /home/nfs/bkarasulu/CARBON/AIRSS/Generating-Clusters/AIREBO/Higher-Symm/Only-C60
REM
REM
REM
REM
REM
REM ./C.cell (28575a23ae977d3b5fae324c64b13b57)
REM
REM compiler GCC version 9.2.1 20190827 (Red Hat 9.2.1-1)
REM options -cpp -mtune=generic -march=x86-64 -g -O0 -fpre-include=/usr/include/finclude/math-vector-fortran.h
REM seed -1295553696 -2062795910 554591861 204855905 -1647794414 902205647 608475260 -1736102527 -771363565 1746774604 1064608424 -1383978855 -1749955556 1782146767 1793141284 -42710765 959672331 -1549710075 -348440133 1276537489 840174717 1441711569 -1613125641 1723384256 -667283895 -844085754 1182194722 1749089498 -2046143280 -890049023 -800703211 1612049412 -1656022797
REM
CELL 1.54180   50.00000   50.00000   50.00000   90.00000   90.00000   90.00000
LATT -1
SFAC C  
C      1  0.5150690000000  0.4739460000000  0.5750660000000 1.0
C      1  0.5102360000000  0.4269500000000  0.4817350000000 1.0
C      1  0.5035090000000  0.5222310000000  0.4256870000000 1.0
C      1  0.5094760000000  0.5828300000000  0.5191720000000 1.0
C      1  0.4964900000000  0.4643780000000  0.4794140000000 1.0
C      1  0.4976520000000  0.5149520000000  0.4644100000000 1.0
C      1  0.5053800000000  0.5374190000000  0.5367100000000 1.0
C      1  0.4954230000000  0.4772000000000  0.5282790000000 1.0
C      1  0.4865680000000  0.5685740000000  0.4984760000000 1.0
C      1  0.4958260000000  0.4953850000000  0.5570060000000 1.0
C      1  0.4927050000000  0.4433090000000  0.5058430000000 1.0
C      1  0.4922120000000  0.4930400000000  0.4389870000000 1.0
C      1  0.4617100000000  0.4731730000000  0.5602400000000 1.0
C      1  0.4559200000000  0.4408310000000  0.4617000000000 1.0
C      1  0.4600020000000  0.5411680000000  0.4376210000000 1.0
C      1  0.4643700000000  0.5590740000000  0.5417260000000 1.0
C      1  0.4922100000000  0.5649000000000  0.5375460000000 1.0
C      1  0.4881340000000  0.4583900000000  0.5627630000000 1.0
C      1  0.4884780000000  0.4350110000000  0.4606190000000 1.0
C      1  0.4821200000000  0.5395020000000  0.4196080000000 1.0
C      1  0.5293730000000  0.5334490000000  0.5571890000000 1.0
C      1  0.5215340000000  0.4555370000000  0.5305650000000 1.0
C      1  0.5222260000000  0.4677740000000  0.4574170000000 1.0
C      1  0.5178870000000  0.5422150000000  0.4666890000000 1.0
C      1  0.4684250000000  0.5094860000000  0.4750190000000 1.0
C      1  0.4593660000000  0.5277750000000  0.4993590000000 1.0
C      1  0.4726680000000  0.5002260000000  0.5161150000000 1.0
C      1  0.4681900000000  0.4809270000000  0.4884730000000 1.0
C      1  0.4766710000000  0.4490890000000  0.5321260000000 1.0
C      1  0.4832970000000  0.4663810000000  0.4481060000000 1.0
C      1  0.4669780000000  0.5566040000000  0.4829940000000 1.0
C      1  0.4791890000000  0.5191850000000  0.5435890000000 1.0
C      1  0.5224690000000  0.4293260000000  0.5133920000000 1.0
C      1  0.5241440000000  0.4905170000000  0.4381480000000 1.0
C      1  0.5143530000000  0.5598980000000  0.4879550000000 1.0
C      1  0.5238030000000  0.5069600000000  0.5704670000000 1.0
C      1  0.5206500000000  0.5062830000000  0.4831420000000 1.0
C      1  0.5166090000000  0.5251060000000  0.5107690000000 1.0
C      1  0.5218320000000  0.4965180000000  0.5214810000000 1.0
C      1  0.5234570000000  0.4762000000000  0.4964370000000 1.0
C      1  0.5507970000000  0.4621260000000  0.4711340000000 1.0
C      1  0.5485370000000  0.5285430000000  0.4650990000000 1.0
C      1  0.5496480000000  0.5364240000000  0.5300390000000 1.0
C      1  0.5482860000000  0.4699970000000  0.5351030000000 1.0
C      1  0.4513660000000  0.4850520000000  0.5378490000000 1.0
C      1  0.4481550000000  0.4575060000000  0.4822210000000 1.0
C      1  0.4516890000000  0.5161790000000  0.4490590000000 1.0
C      1  0.4494100000000  0.5523800000000  0.5185000000000 1.0
C      1  0.5327430000000  0.5192090000000  0.4376350000000 1.0
C      1  0.5366660000000  0.5631350000000  0.5134520000000 1.0
C      1  0.5470110000000  0.4825290000000  0.5658950000000 1.0
C      1  0.5434560000000  0.4325330000000  0.4863490000000 1.0
C      1  0.4555530000000  0.4529160000000  0.4337820000000 1.0
C      1  0.4575930000000  0.5616450000000  0.4571000000000 1.0
C      1  0.4601590000000  0.5377990000000  0.5628180000000 1.0
C      1  0.4492340000000  0.4369180000000  0.5330680000000 1.0
C      1  0.5486370000000  0.4948190000000  0.4694370000000 1.0
C      1  0.5448850000000  0.5353940000000  0.4958380000000 1.0
C      1  0.5475650000000  0.5035460000000  0.5385620000000 1.0
C      1  0.5520040000000  0.4596320000000  0.5050220000000 1.0
END
