TITL C-1154827-9204-612 7.72113159856973e-05 125000 -349.759559591084 0 0 60 (C1) n - 1
REM
REM in /home/nfs/bkarasulu/CARBON/AIRSS/Generating-Clusters/AIREBO/Higher-Symm/Only-C60
REM
REM
REM
REM
REM
REM ./C.cell (28575a23ae977d3b5fae324c64b13b57)
REM
REM compiler GCC version 9.2.1 20190827 (Red Hat 9.2.1-1)
REM options -cpp -mtune=generic -march=x86-64 -g -O0 -fpre-include=/usr/include/finclude/math-vector-fortran.h
REM seed -2045916302 1717356916 -1861796021 -753758384 -232557484 2099362397 -576604257 -891174323 -570506635 1294285802 -977650372 -1874110316 -1091044873 -1833278886 -1857943889 -141468992 -94164755 1672115164 1845228802 -288697464 1822640385 -1105167554 1102648951 -1260381127 -1451145102 798761483 -1474703011 1237249924 1143972233 142245123 -989027874 -1554089035 -956352497
REM
CELL 1.54180   50.00000   50.00000   50.00000   90.00000   90.00000   90.00000
LATT -1
SFAC C  
C      1  0.4743700000000  0.4837890000000  0.5426340000000 1.0
C      1  0.4852850000000  0.5427520000000  0.4751080000000 1.0
C      1  0.5322360000000  0.4739690000000  0.4845100000000 1.0
C      1  0.4769130000000  0.5150160000000  0.4591810000000 1.0
C      1  0.5440340000000  0.4929410000000  0.4679500000000 1.0
C      1  0.5249660000000  0.5161590000000  0.5429990000000 1.0
C      1  0.4833410000000  0.4569620000000  0.5254760000000 1.0
C      1  0.5162800000000  0.5430640000000  0.5253990000000 1.0
C      1  0.5151240000000  0.4534130000000  0.4775210000000 1.0
C      1  0.5431440000000  0.5254380000000  0.5168010000000 1.0
C      1  0.4572170000000  0.4746710000000  0.5154700000000 1.0
C      1  0.4584930000000  0.5249640000000  0.4843320000000 1.0
C      1  0.5250340000000  0.4836230000000  0.5426730000000 1.0
C      1  0.5177040000000  0.5442430000000  0.4739720000000 1.0
C      1  0.4577980000000  0.4743090000000  0.4828440000000 1.0
C      1  0.5290680000000  0.5182190000000  0.4564810000000 1.0
C      1  0.4755740000000  0.4828610000000  0.4555980000000 1.0
C      1  0.4746910000000  0.5162170000000  0.5431150000000 1.0
C      1  0.5155480000000  0.4563680000000  0.5264040000000 1.0
C      1  0.4838740000000  0.5428580000000  0.5255050000000 1.0
C      1  0.4838440000000  0.4563520000000  0.4734540000000 1.0
C      1  0.4574180000000  0.5251790000000  0.5163790000000 1.0
C      1  0.5411930000000  0.4745720000000  0.5149630000000 1.0
C      1  0.5453230000000  0.5292500000000  0.4845390000000 1.0
C      1  0.5197420000000  0.5718740000000  0.5143180000000 1.0
C      1  0.5710330000000  0.5125150000000  0.5215300000000 1.0
C      1  0.5138580000000  0.5201280000000  0.5715270000000 1.0
C      1  0.5205150000000  0.4271700000000  0.4879440000000 1.0
C      1  0.4801040000000  0.5712710000000  0.4861790000000 1.0
C      1  0.4799070000000  0.4284050000000  0.5143660000000 1.0
C      1  0.5719550000000  0.4970440000000  0.4712230000000 1.0
C      1  0.4299250000000  0.5142730000000  0.4794500000000 1.0
C      1  0.4286890000000  0.4859760000000  0.5190240000000 1.0
C      1  0.5052280000000  0.4691540000000  0.4169700000000 1.0
C      1  0.4885360000000  0.5165170000000  0.4307310000000 1.0
C      1  0.4856610000000  0.4802360000000  0.5713540000000 1.0
C      1  0.4798250000000  0.5713180000000  0.5143050000000 1.0
C      1  0.4288130000000  0.5140830000000  0.5193580000000 1.0
C      1  0.4857470000000  0.5201560000000  0.5715680000000 1.0
C      1  0.4806310000000  0.4275650000000  0.4862850000000 1.0
C      1  0.5199950000000  0.5726640000000  0.4861770000000 1.0
C      1  0.5197740000000  0.4274100000000  0.5164830000000 1.0
C      1  0.4294430000000  0.4861870000000  0.4791100000000 1.0
C      1  0.5769360000000  0.5254580000000  0.4788830000000 1.0
C      1  0.5697580000000  0.4846360000000  0.5158110000000 1.0
C      1  0.4795290000000  0.4779020000000  0.4257240000000 1.0
C      1  0.5162210000000  0.5128010000000  0.4306010000000 1.0
C      1  0.5137940000000  0.4802090000000  0.5714000000000 1.0
C      1  0.5243290000000  0.4895590000000  0.4164580000000 1.0
C      1  0.4728170000000  0.5001390000000  0.5907760000000 1.0
C      1  0.5009060000000  0.4072000000000  0.4749790000000 1.0
C      1  0.4096220000000  0.4734130000000  0.4986470000000 1.0
C      1  0.4994990000000  0.5908320000000  0.5273710000000 1.0
C      1  0.4987000000000  0.4088210000000  0.5285800000000 1.0
C      1  0.4993460000000  0.5914300000000  0.4735360000000 1.0
C      1  0.4101240000000  0.5272300000000  0.4989270000000 1.0
C      1  0.5831340000000  0.4791490000000  0.4909560000000 1.0
C      1  0.5902660000000  0.5272880000000  0.5049930000000 1.0
C      1  0.5267280000000  0.5001010000000  0.5907530000000 1.0
C      1  0.4704380000000  0.5026980000000  0.4103950000000 1.0
END
