TITL C-1154802-8274-466 0.00325603460988885 125000 -334.855051611576 0 0 60 (C1) n - 1
REM
REM in /home/nfs/bkarasulu/CARBON/AIRSS/Generating-Clusters/AIREBO/Higher-Symm/Only-C60
REM
REM
REM
REM
REM
REM ./C.cell (28575a23ae977d3b5fae324c64b13b57)
REM
REM compiler GCC version 9.2.1 20190827 (Red Hat 9.2.1-1)
REM options -cpp -mtune=generic -march=x86-64 -g -O0 -fpre-include=/usr/include/finclude/math-vector-fortran.h
REM seed -1282714668 313406281 -1570170049 -135123254 -1489494189 1234404133 1529535194 295827633 -686486655 -1360871312 -1756835942 2135131168 -109687205 -841042001 992539810 -185936131 1927536130 552733903 -671997125 1187961455 1577945088 1703251630 405093499 -450885788 -1761157493 2074615636 2144526709 1365691616 1851487622 1546112231 1012176688 60355786 1850873606
REM
CELL 1.54180   50.00000   50.00000   50.00000   90.00000   90.00000   90.00000
LATT -1
SFAC C  
C      1  0.5788900000000  0.5106870000000  0.4646910000000 1.0
C      1  0.5766330000000  0.5350430000000  0.5098910000000 1.0
C      1  0.5763190000000  0.4847810000000  0.5387600000000 1.0
C      1  0.5703950000000  0.4610980000000  0.4893840000000 1.0
C      1  0.5763970000000  0.5120200000000  0.5322550000000 1.0
C      1  0.5812980000000  0.5361910000000  0.4820320000000 1.0
C      1  0.5737310000000  0.4839380000000  0.4680680000000 1.0
C      1  0.5737330000000  0.4627560000000  0.5168780000000 1.0
C      1  0.5006780000000  0.5487390000000  0.5134800000000 1.0
C      1  0.4972660000000  0.4770010000000  0.5526530000000 1.0
C      1  0.4933220000000  0.4474660000000  0.4772630000000 1.0
C      1  0.4971630000000  0.5335560000000  0.4589020000000 1.0
C      1  0.4856410000000  0.5463370000000  0.4872820000000 1.0
C      1  0.4966500000000  0.4767180000000  0.4602050000000 1.0
C      1  0.4885270000000  0.4548880000000  0.5209250000000 1.0
C      1  0.5027570000000  0.5298950000000  0.5394990000000 1.0
C      1  0.5536500000000  0.4758410000000  0.5589830000000 1.0
C      1  0.5425480000000  0.4498920000000  0.4801310000000 1.0
C      1  0.5564490000000  0.5279190000000  0.4520030000000 1.0
C      1  0.5505870000000  0.5512200000000  0.5202170000000 1.0
C      1  0.5449230000000  0.4747230000000  0.4620580000000 1.0
C      1  0.5491840000000  0.4560090000000  0.5344780000000 1.0
C      1  0.5503920000000  0.5271400000000  0.5386530000000 1.0
C      1  0.5623120000000  0.5563980000000  0.4666680000000 1.0
C      1  0.4732270000000  0.5403280000000  0.4350750000000 1.0
C      1  0.4743910000000  0.5568590000000  0.5334730000000 1.0
C      1  0.4737120000000  0.4533980000000  0.5580200000000 1.0
C      1  0.4733160000000  0.4310420000000  0.4552040000000 1.0
C      1  0.4773340000000  0.5282330000000  0.5562630000000 1.0
C      1  0.4671600000000  0.5596240000000  0.4620220000000 1.0
C      1  0.4729960000000  0.4618980000000  0.4409240000000 1.0
C      1  0.4753200000000  0.4311750000000  0.5330920000000 1.0
C      1  0.4627060000000  0.5122170000000  0.4217040000000 1.0
C      1  0.4719680000000  0.5812310000000  0.5120100000000 1.0
C      1  0.4687690000000  0.4785460000000  0.5804100000000 1.0
C      1  0.4776030000000  0.4190590000000  0.4874060000000 1.0
C      1  0.4744670000000  0.5032630000000  0.5785510000000 1.0
C      1  0.4668840000000  0.5816600000000  0.4874730000000 1.0
C      1  0.4666240000000  0.4877220000000  0.4207410000000 1.0
C      1  0.4731730000000  0.4113990000000  0.5129200000000 1.0
C      1  0.4465570000000  0.5512420000000  0.5193160000000 1.0
C      1  0.4657700000000  0.4813350000000  0.5407350000000 1.0
C      1  0.4598090000000  0.4532700000000  0.4776770000000 1.0
C      1  0.4664020000000  0.5196830000000  0.4607880000000 1.0
C      1  0.4528890000000  0.5442540000000  0.4891690000000 1.0
C      1  0.4654070000000  0.4888580000000  0.4606630000000 1.0
C      1  0.4721210000000  0.4689790000000  0.5033780000000 1.0
C      1  0.4548350000000  0.5106050000000  0.5446370000000 1.0
C      1  0.5190970000000  0.4605920000000  0.5234340000000 1.0
C      1  0.5224270000000  0.4904640000000  0.4594080000000 1.0
C      1  0.5338070000000  0.5491990000000  0.4765310000000 1.0
C      1  0.5259980000000  0.5152230000000  0.5431450000000 1.0
C      1  0.5188740000000  0.4474660000000  0.4943900000000 1.0
C      1  0.5251720000000  0.4856040000000  0.5457440000000 1.0
C      1  0.5286080000000  0.5542890000000  0.5031900000000 1.0
C      1  0.5249400000000  0.5207590000000  0.4600340000000 1.0
C      1  0.4470900000000  0.4873140000000  0.5137890000000 1.0
C      1  0.4406890000000  0.4800490000000  0.4819340000000 1.0
C      1  0.4440500000000  0.5133100000000  0.4838060000000 1.0
C      1  0.4397950000000  0.5195950000000  0.5175820000000 1.0
END
