TITL C-1154803-8277-484 0.000594061002342867 125000 -318.444758215281 0 0 60 (C1) n - 1
REM
REM in /home/nfs/bkarasulu/CARBON/AIRSS/Generating-Clusters/AIREBO/Higher-Symm/Only-C60
REM
REM
REM
REM
REM
REM ./C.cell (28575a23ae977d3b5fae324c64b13b57)
REM
REM compiler GCC version 9.2.1 20190827 (Red Hat 9.2.1-1)
REM options -cpp -mtune=generic -march=x86-64 -g -O0 -fpre-include=/usr/include/finclude/math-vector-fortran.h
REM seed -370849612 122747522 -265933170 -1592741152 -1539097796 -1589853822 363932034 2125480620 1405120910 408881159 1643312588 862447341 -52199528 650601673 1763470671 -760489303 728559867 -1076807370 -1595303624 -1152104177 -1431425170 1904255155 1908413005 2039845454 1722340908 478858727 1095192454 102007490 -1980153627 -1025731943 1138673800 1161061079 1163848044
REM
CELL 1.54180   50.00000   50.00000   50.00000   90.00000   90.00000   90.00000
LATT -1
SFAC C  
C      1  0.4342740000000  0.4191220000000  0.4993750000000 1.0
C      1  0.4700570000000  0.4220720000000  0.5335490000000 1.0
C      1  0.5259180000000  0.4067330000000  0.5681820000000 1.0
C      1  0.5393830000000  0.4177140000000  0.5217590000000 1.0
C      1  0.5387600000000  0.4094720000000  0.4561020000000 1.0
C      1  0.4804100000000  0.4150640000000  0.4450660000000 1.0
C      1  0.4676300000000  0.4054930000000  0.4242820000000 1.0
C      1  0.4427890000000  0.4804590000000  0.5732570000000 1.0
C      1  0.5061630000000  0.4965780000000  0.5798450000000 1.0
C      1  0.5611740000000  0.4889180000000  0.5487580000000 1.0
C      1  0.5736300000000  0.4854630000000  0.4886800000000 1.0
C      1  0.5419010000000  0.5248350000000  0.4283780000000 1.0
C      1  0.4929330000000  0.4767320000000  0.4183320000000 1.0
C      1  0.4183110000000  0.5159140000000  0.4911710000000 1.0
C      1  0.4601890000000  0.5311550000000  0.5176640000000 1.0
C      1  0.4711440000000  0.5232090000000  0.5640030000000 1.0
C      1  0.5222020000000  0.5386490000000  0.5829180000000 1.0
C      1  0.5555150000000  0.5348350000000  0.5146780000000 1.0
C      1  0.5717520000000  0.5082940000000  0.4475330000000 1.0
C      1  0.4963560000000  0.5382040000000  0.4410680000000 1.0
C      1  0.4616810000000  0.5023540000000  0.4462980000000 1.0
C      1  0.4850170000000  0.6059780000000  0.5323500000000 1.0
C      1  0.5034380000000  0.5773920000000  0.5305340000000 1.0
C      1  0.5223000000000  0.5812970000000  0.5044890000000 1.0
C      1  0.5167630000000  0.5663720000000  0.4823770000000 1.0
C      1  0.4856570000000  0.5680610000000  0.4744500000000 1.0
C      1  0.4722670000000  0.5993820000000  0.4753170000000 1.0
C      1  0.4677050000000  0.6063340000000  0.5059830000000 1.0
C      1  0.5325970000000  0.5374560000000  0.5367280000000 1.0
C      1  0.5525210000000  0.5322120000000  0.4877180000000 1.0
C      1  0.5329550000000  0.5456850000000  0.4740400000000 1.0
C      1  0.4774600000000  0.5441650000000  0.4597880000000 1.0
C      1  0.4601150000000  0.5235750000000  0.4653100000000 1.0
C      1  0.4762740000000  0.5367240000000  0.5382670000000 1.0
C      1  0.5046870000000  0.5500540000000  0.5411360000000 1.0
C      1  0.5211250000000  0.4171290000000  0.5439860000000 1.0
C      1  0.5272430000000  0.4297340000000  0.4989220000000 1.0
C      1  0.5209770000000  0.4199210000000  0.4732840000000 1.0
C      1  0.4933110000000  0.4227050000000  0.4680230000000 1.0
C      1  0.4801160000000  0.4365950000000  0.4902230000000 1.0
C      1  0.4591930000000  0.4250230000000  0.5072450000000 1.0
C      1  0.4973290000000  0.4298570000000  0.5352320000000 1.0
C      1  0.5489310000000  0.5077480000000  0.5341490000000 1.0
C      1  0.5607220000000  0.5049840000000  0.4732770000000 1.0
C      1  0.5240770000000  0.5281840000000  0.4499170000000 1.0
C      1  0.4853070000000  0.4868800000000  0.4419700000000 1.0
C      1  0.4461740000000  0.5166620000000  0.4918420000000 1.0
C      1  0.4587420000000  0.4968950000000  0.5601080000000 1.0
C      1  0.5052880000000  0.5234700000000  0.5623390000000 1.0
C      1  0.4734110000000  0.4968910000000  0.5340090000000 1.0
C      1  0.5071210000000  0.5027890000000  0.5354080000000 1.0
C      1  0.5272370000000  0.5075540000000  0.5079650000000 1.0
C      1  0.5267360000000  0.5041540000000  0.4740490000000 1.0
C      1  0.4998960000000  0.4846620000000  0.4662580000000 1.0
C      1  0.4809030000000  0.4739150000000  0.4875780000000 1.0
C      1  0.4622740000000  0.4922200000000  0.5075360000000 1.0
C      1  0.4825150000000  0.5773810000000  0.5054660000000 1.0
C      1  0.4965840000000  0.5086790000000  0.4980700000000 1.0
C      1  0.5037210000000  0.4484240000000  0.5095020000000 1.0
C      1  0.5010600000000  0.4782730000000  0.5126400000000 1.0
END
