TITL C-1154808-8168-249 -0.00131079841298085 125000 -306.460736795143 0 0 60 (C1) n - 1
REM
REM in /home/nfs/bkarasulu/CARBON/AIRSS/Generating-Clusters/AIREBO/Higher-Symm/Only-C60
REM
REM
REM
REM
REM
REM ./C.cell (28575a23ae977d3b5fae324c64b13b57)
REM
REM compiler GCC version 9.2.1 20190827 (Red Hat 9.2.1-1)
REM options -cpp -mtune=generic -march=x86-64 -g -O0 -fpre-include=/usr/include/finclude/math-vector-fortran.h
REM seed 645881805 -139367811 1515942707 767572550 -461894118 1160875773 1661246559 2027084345 -1832193297 597100607 -138121096 -1134334902 2024081427 -1887184115 1422308160 1659965101 -194220104 1535190435 -1880664933 1041678030 1095366995 -579955627 -1118500254 -773858053 1121532936 -1077306601 1177750677 1431998209 -1957682086 -15958376 596158938 -1333943841 -1378963277
REM
CELL 1.54180   50.00000   50.00000   50.00000   90.00000   90.00000   90.00000
LATT -1
SFAC C  
C      1  0.4997110000000  0.5305030000000  0.5698180000000 1.0
C      1  0.4851520000000  0.4928420000000  0.5762660000000 1.0
C      1  0.4961440000000  0.4540330000000  0.5386520000000 1.0
C      1  0.4826870000000  0.4275000000000  0.5230590000000 1.0
C      1  0.4940110000000  0.4372460000000  0.4748120000000 1.0
C      1  0.4947960000000  0.4600030000000  0.4459450000000 1.0
C      1  0.4859520000000  0.4998550000000  0.4210230000000 1.0
C      1  0.4868020000000  0.5359150000000  0.4392390000000 1.0
C      1  0.4807470000000  0.5627030000000  0.4602650000000 1.0
C      1  0.4873880000000  0.5630830000000  0.4996570000000 1.0
C      1  0.4893090000000  0.5688850000000  0.5330730000000 1.0
C      1  0.5202100000000  0.4292580000000  0.4867200000000 1.0
C      1  0.5208830000000  0.4691690000000  0.4357410000000 1.0
C      1  0.5168520000000  0.5002340000000  0.4263280000000 1.0
C      1  0.5194840000000  0.5285740000000  0.4451340000000 1.0
C      1  0.5091310000000  0.5510000000000  0.4685100000000 1.0
C      1  0.5077900000000  0.5369770000000  0.4973450000000 1.0
C      1  0.5191530000000  0.5551080000000  0.5224450000000 1.0
C      1  0.5289920000000  0.5166170000000  0.5803140000000 1.0
C      1  0.5113010000000  0.4912430000000  0.5840760000000 1.0
C      1  0.5267760000000  0.4504140000000  0.5398420000000 1.0
C      1  0.5159490000000  0.4259880000000  0.5184820000000 1.0
C      1  0.4678600000000  0.4402690000000  0.4952520000000 1.0
C      1  0.4691110000000  0.4595890000000  0.4679500000000 1.0
C      1  0.4674010000000  0.4779540000000  0.4394080000000 1.0
C      1  0.4651930000000  0.5106310000000  0.4451400000000 1.0
C      1  0.4555270000000  0.5404590000000  0.4552470000000 1.0
C      1  0.4584310000000  0.5565810000000  0.4851850000000 1.0
C      1  0.4611750000000  0.5542120000000  0.5194120000000 1.0
C      1  0.4792900000000  0.5381750000000  0.5437070000000 1.0
C      1  0.4683540000000  0.5107240000000  0.5557780000000 1.0
C      1  0.4758050000000  0.4783220000000  0.5482910000000 1.0
C      1  0.4648350000000  0.4565960000000  0.5249350000000 1.0
C      1  0.5519810000000  0.4919280000000  0.5392430000000 1.0
C      1  0.5468300000000  0.4686370000000  0.5273820000000 1.0
C      1  0.5555980000000  0.4593930000000  0.5027450000000 1.0
C      1  0.5398030000000  0.4519160000000  0.4809600000000 1.0
C      1  0.5400850000000  0.4680080000000  0.4591360000000 1.0
C      1  0.5553630000000  0.4910160000000  0.4606980000000 1.0
C      1  0.5453660000000  0.5163120000000  0.4634690000000 1.0
C      1  0.5610910000000  0.5412680000000  0.4713900000000 1.0
C      1  0.5511260000000  0.5548670000000  0.4941060000000 1.0
C      1  0.5510500000000  0.5437990000000  0.5258910000000 1.0
C      1  0.5449600000000  0.5198920000000  0.5497270000000 1.0
C      1  0.5441020000000  0.5779520000000  0.5259760000000 1.0
C      1  0.5188730000000  0.5378670000000  0.5485780000000 1.0
C      1  0.5430060000000  0.5259440000000  0.6024300000000 1.0
C      1  0.5239030000000  0.4665840000000  0.5874860000000 1.0
C      1  0.5322940000000  0.4471160000000  0.5702760000000 1.0
C      1  0.5280650000000  0.3991650000000  0.5276430000000 1.0
C      1  0.5295190000000  0.4046350000000  0.4758050000000 1.0
C      1  0.5298850000000  0.4534950000000  0.4138050000000 1.0
C      1  0.5335380000000  0.5051890000000  0.4007880000000 1.0
C      1  0.5472710000000  0.5490110000000  0.4413050000000 1.0
C      1  0.5289960000000  0.5689500000000  0.4862360000000 1.0
C      1  0.4142250000000  0.4950830000000  0.5004980000000 1.0
C      1  0.4929640000000  0.5102920000000  0.4986250000000 1.0
C      1  0.4405550000000  0.4990860000000  0.5006240000000 1.0
C      1  0.3888000000000  0.4887630000000  0.5011770000000 1.0
C      1  0.4667490000000  0.5042510000000  0.4983730000000 1.0
END
