TITL C-1154827-9204-53 0.000412643020183988 125000 -367.920318961512 0 0 60 (C1) n - 1
REM
REM in /home/nfs/bkarasulu/CARBON/AIRSS/Generating-Clusters/AIREBO/Higher-Symm/Only-C60
REM
REM
REM
REM
REM
REM ./C.cell (28575a23ae977d3b5fae324c64b13b57)
REM
REM compiler GCC version 9.2.1 20190827 (Red Hat 9.2.1-1)
REM options -cpp -mtune=generic -march=x86-64 -g -O0 -fpre-include=/usr/include/finclude/math-vector-fortran.h
REM seed 178728115 -1784185305 -223237836 -1584677932 737282874 -1587279542 -1509806238 -1680818101 -1528337465 1183981645 -196634845 917673917 -680061540 284593699 468049887 -451493028 -424162939 -795116534 544571343 1819638648 -905762760 1393727969 350572676 -1191405818 1246228752 -2004856561 591984679 -1111391966 -908531752 1906390283 -1032813262 -371124509 501319606
REM
CELL 1.54180   50.00000   50.00000   50.00000   90.00000   90.00000   90.00000
LATT -1
SFAC C  
C      1  0.5174130000000  0.4632570000000  0.5577120000000 1.0
C      1  0.4642100000000  0.5638960000000  0.5291970000000 1.0
C      1  0.5562190000000  0.5189060000000  0.4645110000000 1.0
C      1  0.5194190000000  0.5384910000000  0.4430490000000 1.0
C      1  0.4850960000000  0.4624170000000  0.4435880000000 1.0
C      1  0.4855830000000  0.5348990000000  0.5609510000000 1.0
C      1  0.4672670000000  0.4470360000000  0.4872460000000 1.0
C      1  0.5311450000000  0.5540260000000  0.4869790000000 1.0
C      1  0.5495330000000  0.4369270000000  0.5305370000000 1.0
C      1  0.5598630000000  0.4828260000000  0.5440370000000 1.0
C      1  0.4400340000000  0.5287890000000  0.5512230000000 1.0
C      1  0.4497420000000  0.4878790000000  0.4663660000000 1.0
C      1  0.5112400000000  0.5521140000000  0.4667910000000 1.0
C      1  0.4645120000000  0.5163270000000  0.5598600000000 1.0
C      1  0.5593920000000  0.4621490000000  0.5216770000000 1.0
C      1  0.5235440000000  0.4381450000000  0.5421460000000 1.0
C      1  0.4867110000000  0.4453480000000  0.4666130000000 1.0
C      1  0.4775750000000  0.5616480000000  0.5542240000000 1.0
C      1  0.4680870000000  0.4854250000000  0.4449640000000 1.0
C      1  0.5403050000000  0.4799540000000  0.5656920000000 1.0
C      1  0.5477040000000  0.5337490000000  0.4416720000000 1.0
C      1  0.5523680000000  0.5345280000000  0.4877130000000 1.0
C      1  0.4433930000000  0.5426810000000  0.5262580000000 1.0
C      1  0.4466040000000  0.4666920000000  0.4849080000000 1.0
C      1  0.5107920000000  0.4679420000000  0.4319950000000 1.0
C      1  0.4758980000000  0.4404350000000  0.5138900000000 1.0
C      1  0.4424710000000  0.5139360000000  0.4752780000000 1.0
C      1  0.5128880000000  0.5282980000000  0.5478310000000 1.0
C      1  0.4960090000000  0.4805030000000  0.5400130000000 1.0
C      1  0.5058410000000  0.5144750000000  0.4375300000000 1.0
C      1  0.4756300000000  0.5457380000000  0.5028960000000 1.0
C      1  0.5193320000000  0.4577090000000  0.4979810000000 1.0
C      1  0.5219730000000  0.5627460000000  0.5124390000000 1.0
C      1  0.4509150000000  0.4972020000000  0.5201860000000 1.0
C      1  0.5458370000000  0.4993960000000  0.5195010000000 1.0
C      1  0.5461890000000  0.4885530000000  0.4652800000000 1.0
C      1  0.5134690000000  0.4414840000000  0.4762240000000 1.0
C      1  0.4784420000000  0.5098990000000  0.4338820000000 1.0
C      1  0.4360780000000  0.4754210000000  0.5098660000000 1.0
C      1  0.5007490000000  0.5463160000000  0.5226100000000 1.0
C      1  0.4842990000000  0.5539930000000  0.4746600000000 1.0
C      1  0.5020280000000  0.4530610000000  0.5224270000000 1.0
C      1  0.4681830000000  0.4890340000000  0.5456600000000 1.0
C      1  0.5214740000000  0.4920410000000  0.4421550000000 1.0
C      1  0.5216110000000  0.4999840000000  0.5425570000000 1.0
C      1  0.4512980000000  0.5223210000000  0.5028370000000 1.0
C      1  0.5591270000000  0.5247550000000  0.5129250000000 1.0
C      1  0.5435660000000  0.4771320000000  0.4955300000000 1.0
C      1  0.5353530000000  0.4352220000000  0.4590440000000 1.0
C      1  0.5545320000000  0.4604080000000  0.4507610000000 1.0
C      1  0.4612410000000  0.5324780000000  0.4323180000000 1.0
C      1  0.4309340000000  0.4559810000000  0.5306310000000 1.0
C      1  0.4518710000000  0.4634510000000  0.5541920000000 1.0
C      1  0.5319740000000  0.4483920000000  0.4304270000000 1.0
C      1  0.5419620000000  0.5677640000000  0.5327440000000 1.0
C      1  0.4567830000000  0.4376850000000  0.5345800000000 1.0
C      1  0.4643190000000  0.5554170000000  0.4550810000000 1.0
C      1  0.4400520000000  0.5343370000000  0.4562320000000 1.0
C      1  0.5377130000000  0.5454390000000  0.5555730000000 1.0
C      1  0.5622100000000  0.5429440000000  0.5343510000000 1.0
END
