TITL C-1154801-8518-168 3.05875805830614e-05 125000 -281.025787121086 0 0 60 (Ci) n - 1
REM
REM in /home/nfs/bkarasulu/CARBON/AIRSS/Generating-Clusters/AIREBO/Higher-Symm/Only-C60
REM
REM
REM
REM
REM
REM ./C.cell (28575a23ae977d3b5fae324c64b13b57)
REM
REM compiler GCC version 9.2.1 20190827 (Red Hat 9.2.1-1)
REM options -cpp -mtune=generic -march=x86-64 -g -O0 -fpre-include=/usr/include/finclude/math-vector-fortran.h
REM seed 1630265913 1161327992 1769071453 -1341417012 -1267413223 1999385733 -1595672641 1774161331 -1147582337 1567379573 2040281229 1325828587 535285304 1353192453 -1718038543 2005995584 -214249690 741547038 1518876326 2099789896 266524886 1522727862 -1883998250 863045899 -1363982015 1977921259 -1259710632 1543583940 -1156616780 1366479582 844665784 150793368 -157873805
REM
CELL 1.54180   50.00000   50.00000   50.00000   90.00000   90.00000   90.00000
LATT -1
SFAC C  
C      1  0.4535010000000  0.5396090000000  0.4564540000000 1.0
C      1  0.4382230000000  0.4589530000000  0.5182220000000 1.0
C      1  0.4848520000000  0.5402620000000  0.5616290000000 1.0
C      1  0.5464990000000  0.4603910000000  0.5435460000000 1.0
C      1  0.5617770000000  0.5410470000000  0.4817780000000 1.0
C      1  0.5151480000000  0.4597380000000  0.4383710000000 1.0
C      1  0.4765570000000  0.4887170000000  0.5580880000000 1.0
C      1  0.5387540000000  0.5119670000000  0.5476360000000 1.0
C      1  0.5595200000000  0.4902880000000  0.4907480000000 1.0
C      1  0.5234430000000  0.5112830000000  0.4419120000000 1.0
C      1  0.4612450000000  0.4880330000000  0.4523640000000 1.0
C      1  0.4404800000000  0.5097120000000  0.5092520000000 1.0
C      1  0.4986120000000  0.5656130000000  0.4800850000000 1.0
C      1  0.4812140000000  0.4345090000000  0.4911360000000 1.0
C      1  0.4836450000000  0.5646830000000  0.5119400000000 1.0
C      1  0.5013880000000  0.4343870000000  0.5199150000000 1.0
C      1  0.5187860000000  0.5654910000000  0.5088640000000 1.0
C      1  0.5163550000000  0.4353170000000  0.4880600000000 1.0
C      1  0.4312920000000  0.4810560000000  0.4933320000000 1.0
C      1  0.4625590000000  0.5189190000000  0.5513470000000 1.0
C      1  0.5265510000000  0.4821150000000  0.5584440000000 1.0
C      1  0.5687080000000  0.5189440000000  0.5066680000000 1.0
C      1  0.5374410000000  0.4810810000000  0.4486530000000 1.0
C      1  0.4734490000000  0.5178850000000  0.4415560000000 1.0
C      1  0.4401810000000  0.5413250000000  0.5013300000000 1.0
C      1  0.4702170000000  0.4572550000000  0.5529890000000 1.0
C      1  0.5310370000000  0.5426800000000  0.5539390000000 1.0
C      1  0.5598190000000  0.4586750000000  0.4986700000000 1.0
C      1  0.5297830000000  0.5427450000000  0.4470110000000 1.0
C      1  0.4689630000000  0.4573200000000  0.4460610000000 1.0
C      1  0.4946200000000  0.4803530000000  0.4755660000000 1.0
C      1  0.4800420000000  0.5215930000000  0.4898250000000 1.0
C      1  0.4794430000000  0.4787240000000  0.5124350000000 1.0
C      1  0.5053800000000  0.5196470000000  0.5244340000000 1.0
C      1  0.5199580000000  0.4784070000000  0.5101750000000 1.0
C      1  0.5205570000000  0.5212760000000  0.4875640000000 1.0
C      1  0.4378700000000  0.4986760000000  0.5564690000000 1.0
C      1  0.5174930000000  0.5020970000000  0.5821310000000 1.0
C      1  0.5822640000000  0.4989660000000  0.5277760000000 1.0
C      1  0.5621300000000  0.5013250000000  0.4435310000000 1.0
C      1  0.4825070000000  0.4979030000000  0.4178690000000 1.0
C      1  0.4177360000000  0.5010340000000  0.4722240000000 1.0
C      1  0.4962830000000  0.4502990000000  0.4650480000000 1.0
C      1  0.4685900000000  0.5503970000000  0.4849910000000 1.0
C      1  0.4708740000000  0.4494180000000  0.5199070000000 1.0
C      1  0.5037170000000  0.5497010000000  0.5349520000000 1.0
C      1  0.5314100000000  0.4496030000000  0.5150090000000 1.0
C      1  0.5291260000000  0.5505820000000  0.4800930000000 1.0
C      1  0.4928860000000  0.5125380000000  0.5758540000000 1.0
C      1  0.5626000000000  0.4880870000000  0.5434970000000 1.0
C      1  0.5682440000000  0.5131000000000  0.4676500000000 1.0
C      1  0.5071140000000  0.4874630000000  0.4241460000000 1.0
C      1  0.4373990000000  0.5119130000000  0.4565030000000 1.0
C      1  0.4317560000000  0.4869000000000  0.5323500000000 1.0
C      1  0.5372140000000  0.5147940000000  0.5145270000000 1.0
C      1  0.5272560000000  0.4892330000000  0.4800570000000 1.0
C      1  0.4979110000000  0.5113190000000  0.4642380000000 1.0
C      1  0.4627860000000  0.4852060000000  0.4854730000000 1.0
C      1  0.4727440000000  0.5107670000000  0.5199430000000 1.0
C      1  0.5020890000000  0.4886810000000  0.5357620000000 1.0
END
