TITL C-1154801-8518-102 0.000208001679499409 125000 -343.57574176859 0 0 60 (C1) n - 1
REM
REM in /home/nfs/bkarasulu/CARBON/AIRSS/Generating-Clusters/AIREBO/Higher-Symm/Only-C60
REM
REM
REM
REM
REM
REM ./C.cell (28575a23ae977d3b5fae324c64b13b57)
REM
REM compiler GCC version 9.2.1 20190827 (Red Hat 9.2.1-1)
REM options -cpp -mtune=generic -march=x86-64 -g -O0 -fpre-include=/usr/include/finclude/math-vector-fortran.h
REM seed -841393869 -224033162 -887639761 1258878101 -1978325280 1770925892 -681294871 2088805809 330180993 -822237987 -623077996 2129279098 -515893323 -1939545626 272620176 313475520 -809114251 2039133090 -694902073 -1453714119 392987548 726169071 -567257804 1235630932 176810040 496366935 244154059 -1152538579 1035578286 631518980 1527260153 1423009762 2119074616
REM
CELL 1.54180   50.00000   50.00000   50.00000   90.00000   90.00000   90.00000
LATT -1
SFAC C  
C      1  0.5333270000000  0.5526200000000  0.4848570000000 1.0
C      1  0.4322070000000  0.5030230000000  0.4824820000000 1.0
C      1  0.5240250000000  0.4350230000000  0.4887100000000 1.0
C      1  0.5280580000000  0.4905730000000  0.5605220000000 1.0
C      1  0.4962350000000  0.5260120000000  0.5599820000000 1.0
C      1  0.4818290000000  0.4803520000000  0.5594690000000 1.0
C      1  0.5636330000000  0.5205730000000  0.4587730000000 1.0
C      1  0.4466560000000  0.5476080000000  0.4555770000000 1.0
C      1  0.4922060000000  0.4329660000000  0.4623800000000 1.0
C      1  0.5192440000000  0.4842210000000  0.4948080000000 1.0
C      1  0.5075940000000  0.5226990000000  0.4939740000000 1.0
C      1  0.4714860000000  0.4987050000000  0.4885840000000 1.0
C      1  0.4395920000000  0.4710780000000  0.5195490000000 1.0
C      1  0.5543710000000  0.4605630000000  0.5202550000000 1.0
C      1  0.5055250000000  0.5658200000000  0.5236740000000 1.0
C      1  0.4928920000000  0.5391690000000  0.5351450000000 1.0
C      1  0.4697620000000  0.4695430000000  0.5344180000000 1.0
C      1  0.5443870000000  0.4887760000000  0.5352980000000 1.0
C      1  0.5330430000000  0.5566830000000  0.5121250000000 1.0
C      1  0.4337960000000  0.4998310000000  0.5100880000000 1.0
C      1  0.5324360000000  0.4406150000000  0.5190810000000 1.0
C      1  0.4539930000000  0.4697000000000  0.4916470000000 1.0
C      1  0.5531560000000  0.4813950000000  0.4962520000000 1.0
C      1  0.4937140000000  0.5533760000000  0.4959320000000 1.0
C      1  0.4459720000000  0.4457110000000  0.5403320000000 1.0
C      1  0.5743360000000  0.4735140000000  0.5417900000000 1.0
C      1  0.5008890000000  0.5905930000000  0.5344870000000 1.0
C      1  0.4662760000000  0.5706140000000  0.4904370000000 1.0
C      1  0.4512810000000  0.4378740000000  0.4796400000000 1.0
C      1  0.5803700000000  0.4967130000000  0.4944620000000 1.0
C      1  0.5051470000000  0.4602820000000  0.4776850000000 1.0
C      1  0.5357310000000  0.5224370000000  0.4763680000000 1.0
C      1  0.4550520000000  0.5198790000000  0.4712000000000 1.0
C      1  0.4750840000000  0.5072880000000  0.5647890000000 1.0
C      1  0.5082240000000  0.4707580000000  0.5622960000000 1.0
C      1  0.5228650000000  0.5178150000000  0.5663920000000 1.0
C      1  0.5393090000000  0.4987750000000  0.4529960000000 1.0
C      1  0.4756910000000  0.5339690000000  0.4487330000000 1.0
C      1  0.4834140000000  0.4640320000000  0.4517160000000 1.0
C      1  0.5175510000000  0.5672250000000  0.4669510000000 1.0
C      1  0.4266850000000  0.4824440000000  0.4653760000000 1.0
C      1  0.5405170000000  0.4454510000000  0.4665950000000 1.0
C      1  0.4911270000000  0.5570280000000  0.4622280000000 1.0
C      1  0.4516450000000  0.4629630000000  0.4585960000000 1.0
C      1  0.5453310000000  0.4721660000000  0.4670600000000 1.0
C      1  0.5429400000000  0.5349400000000  0.5552030000000 1.0
C      1  0.4503120000000  0.5161160000000  0.5532040000000 1.0
C      1  0.5132750000000  0.4474190000000  0.5466100000000 1.0
C      1  0.4887670000000  0.4788620000000  0.5089780000000 1.0
C      1  0.5311690000000  0.5092520000000  0.5144980000000 1.0
C      1  0.4798660000000  0.5202650000000  0.5135130000000 1.0
C      1  0.5854100000000  0.5128300000000  0.4727570000000 1.0
C      1  0.4472050000000  0.5698740000000  0.4709000000000 1.0
C      1  0.4713910000000  0.4203440000000  0.4748480000000 1.0
C      1  0.5185360000000  0.4994510000000  0.4325750000000 1.0
C      1  0.4909110000000  0.5155380000000  0.4324070000000 1.0
C      1  0.4912410000000  0.4836760000000  0.4318220000000 1.0
C      1  0.4499560000000  0.5176430000000  0.5246080000000 1.0
C      1  0.5002150000000  0.4500080000000  0.5175650000000 1.0
C      1  0.5431450000000  0.5353290000000  0.5268000000000 1.0
END
