TITL C-1154810-7815-480 -0.000110208051310927 125000 -323.786763844859 0 0 60 (C1) n - 1
REM
REM in /home/nfs/bkarasulu/CARBON/AIRSS/Generating-Clusters/AIREBO/Higher-Symm/Only-C60
REM
REM
REM
REM
REM
REM ./C.cell (28575a23ae977d3b5fae324c64b13b57)
REM
REM compiler GCC version 9.2.1 20190827 (Red Hat 9.2.1-1)
REM options -cpp -mtune=generic -march=x86-64 -g -O0 -fpre-include=/usr/include/finclude/math-vector-fortran.h
REM seed 1569170632 273972512 -223910670 -769960369 -967384334 -450753120 -182564928 1978360361 1831544680 395927983 226151044 -2015506648 -517893947 2073564741 -2041055588 -158245591 -1248361876 -371950734 1607850815 259188728 -1682909736 -1463596142 -470785388 -461927215 -2019710379 -757602044 1787396920 1745741428 1938766988 2093058098 1352540992 -187193821 995379691
REM
CELL 1.54180   50.00000   50.00000   50.00000   90.00000   90.00000   90.00000
LATT -1
SFAC C  
C      1  0.5138060000000  0.4864920000000  0.5694040000000 1.0
C      1  0.4840060000000  0.5105680000000  0.4267950000000 1.0
C      1  0.5442310000000  0.5342070000000  0.5475140000000 1.0
C      1  0.4546400000000  0.4605860000000  0.4607070000000 1.0
C      1  0.5597920000000  0.5359500000000  0.5234300000000 1.0
C      1  0.4400180000000  0.4617720000000  0.4839970000000 1.0
C      1  0.5489070000000  0.5498940000000  0.4972090000000 1.0
C      1  0.4554050000000  0.4546790000000  0.5108760000000 1.0
C      1  0.5004890000000  0.4882330000000  0.5244740000000 1.0
C      1  0.5040230000000  0.5073290000000  0.4743330000000 1.0
C      1  0.4663870000000  0.4482380000000  0.5347340000000 1.0
C      1  0.5284660000000  0.5522430000000  0.4756000000000 1.0
C      1  0.4857410000000  0.4611880000000  0.4858390000000 1.0
C      1  0.5174600000000  0.5372870000000  0.5181050000000 1.0
C      1  0.5171870000000  0.5325900000000  0.4618720000000 1.0
C      1  0.4874110000000  0.4685480000000  0.5456040000000 1.0
C      1  0.4436350000000  0.4910620000000  0.5225150000000 1.0
C      1  0.5576190000000  0.5120840000000  0.4756590000000 1.0
C      1  0.5650720000000  0.4835710000000  0.4610410000000 1.0
C      1  0.4379530000000  0.5189990000000  0.5383940000000 1.0
C      1  0.4850360000000  0.5471800000000  0.5518910000000 1.0
C      1  0.5173580000000  0.4556710000000  0.4426890000000 1.0
C      1  0.5179720000000  0.5491920000000  0.5478870000000 1.0
C      1  0.4878120000000  0.4603320000000  0.4532940000000 1.0
C      1  0.4760590000000  0.5225850000000  0.5728680000000 1.0
C      1  0.5266830000000  0.4840380000000  0.4266670000000 1.0
C      1  0.5263890000000  0.5010220000000  0.5344320000000 1.0
C      1  0.4757020000000  0.5019060000000  0.4647110000000 1.0
C      1  0.4217310000000  0.5108590000000  0.4812830000000 1.0
C      1  0.5764880000000  0.4903690000000  0.5196200000000 1.0
C      1  0.5322930000000  0.4605750000000  0.5049130000000 1.0
C      1  0.4714430000000  0.5392560000000  0.4951790000000 1.0
C      1  0.5607750000000  0.4540790000000  0.4930680000000 1.0
C      1  0.4414290000000  0.5461100000000  0.5091910000000 1.0
C      1  0.5174480000000  0.4598340000000  0.5546600000000 1.0
C      1  0.4580350000000  0.5231430000000  0.4360980000000 1.0
C      1  0.4193530000000  0.5334570000000  0.4985260000000 1.0
C      1  0.5822520000000  0.4674870000000  0.5041800000000 1.0
C      1  0.5416180000000  0.5054400000000  0.5645080000000 1.0
C      1  0.4680280000000  0.4832600000000  0.4390490000000 1.0
C      1  0.5563590000000  0.4857980000000  0.5409910000000 1.0
C      1  0.4293170000000  0.5182370000000  0.4524360000000 1.0
C      1  0.5465280000000  0.5141980000000  0.4435250000000 1.0
C      1  0.4521260000000  0.4849040000000  0.5536530000000 1.0
C      1  0.5371300000000  0.4615410000000  0.5349530000000 1.0
C      1  0.4566550000000  0.5266640000000  0.4698940000000 1.0
C      1  0.4889330000000  0.5530000000000  0.5209010000000 1.0
C      1  0.5173760000000  0.4338930000000  0.4665070000000 1.0
C      1  0.4863810000000  0.5099060000000  0.5023680000000 1.0
C      1  0.5201370000000  0.4894430000000  0.4967710000000 1.0
C      1  0.5475620000000  0.4708450000000  0.4457220000000 1.0
C      1  0.4542120000000  0.5338790000000  0.5532260000000 1.0
C      1  0.4294900000000  0.4872080000000  0.4940560000000 1.0
C      1  0.5719900000000  0.5143430000000  0.5063890000000 1.0
C      1  0.5097870000000  0.4454460000000  0.4904530000000 1.0
C      1  0.4824960000000  0.5713090000000  0.4924930000000 1.0
C      1  0.4816990000000  0.4934100000000  0.5681340000000 1.0
C      1  0.5135410000000  0.5111610000000  0.4357280000000 1.0
C      1  0.5333680000000  0.5196640000000  0.4982810000000 1.0
C      1  0.4687610000000  0.4838370000000  0.5007030000000 1.0
END
