TITL C-1154823-9327-675 -6.54564924347486e-05 125000 -315.033562989509 0 0 60 (C1) n - 1
REM
REM in /home/nfs/bkarasulu/CARBON/AIRSS/Generating-Clusters/AIREBO/Higher-Symm/Only-C60
REM
REM
REM
REM
REM
REM ./C.cell (28575a23ae977d3b5fae324c64b13b57)
REM
REM compiler GCC version 9.2.1 20190827 (Red Hat 9.2.1-1)
REM options -cpp -mtune=generic -march=x86-64 -g -O0 -fpre-include=/usr/include/finclude/math-vector-fortran.h
REM seed -589245417 28925657 1928304847 -1556457292 54708056 -1021353868 283936389 1288789675 -209683487 446887409 -723705911 -948472359 -2047519984 1158982511 945044879 346944202 1560878722 818442016 -1656258511 2079573234 -1068677657 1722781548 1571615580 86931365 202232673 926533081 329908885 860658855 -251844840 32328708 -216462202 -1956718082 1307928324
REM
CELL 1.54180   50.00000   50.00000   50.00000   90.00000   90.00000   90.00000
LATT -1
SFAC C  
C      1  0.4945250000000  0.5016750000000  0.5621650000000 1.0
C      1  0.4927670000000  0.4478360000000  0.4717440000000 1.0
C      1  0.4951410000000  0.5487380000000  0.4716890000000 1.0
C      1  0.5682890000000  0.5397520000000  0.4775110000000 1.0
C      1  0.5588650000000  0.5070150000000  0.5459140000000 1.0
C      1  0.5689880000000  0.4570670000000  0.4684400000000 1.0
C      1  0.4613540000000  0.4806660000000  0.4380370000000 1.0
C      1  0.4569300000000  0.5645590000000  0.5137780000000 1.0
C      1  0.4634450000000  0.4522660000000  0.5500510000000 1.0
C      1  0.5112780000000  0.5188140000000  0.4711190000000 1.0
C      1  0.5009480000000  0.5159910000000  0.5351760000000 1.0
C      1  0.5043940000000  0.4651540000000  0.4962110000000 1.0
C      1  0.4751780000000  0.4730890000000  0.5111740000000 1.0
C      1  0.4796410000000  0.5058020000000  0.4698920000000 1.0
C      1  0.4735140000000  0.5235260000000  0.5185000000000 1.0
C      1  0.5123910000000  0.4345110000000  0.4532840000000 1.0
C      1  0.5203170000000  0.5540310000000  0.4520170000000 1.0
C      1  0.5191840000000  0.4950150000000  0.6047850000000 1.0
C      1  0.5363170000000  0.5405320000000  0.5285870000000 1.0
C      1  0.5380320000000  0.4597970000000  0.5264630000000 1.0
C      1  0.5450630000000  0.4894190000000  0.4486900000000 1.0
C      1  0.5458840000000  0.5571500000000  0.4621060000000 1.0
C      1  0.5198580000000  0.4967700000000  0.5774310000000 1.0
C      1  0.5327840000000  0.4362440000000  0.4394750000000 1.0
C      1  0.4297230000000  0.4993090000000  0.4694480000000 1.0
C      1  0.4335470000000  0.5237320000000  0.5178480000000 1.0
C      1  0.4335320000000  0.4709180000000  0.5177910000000 1.0
C      1  0.5602970000000  0.5153570000000  0.4887600000000 1.0
C      1  0.5594940000000  0.5108950000000  0.5159160000000 1.0
C      1  0.5602240000000  0.4663120000000  0.4898390000000 1.0
C      1  0.4967090000000  0.4503360000000  0.5244980000000 1.0
C      1  0.4944930000000  0.5192820000000  0.4424340000000 1.0
C      1  0.4930910000000  0.5474830000000  0.5327150000000 1.0
C      1  0.5561890000000  0.4815710000000  0.4217690000000 1.0
C      1  0.5439190000000  0.5633980000000  0.5160270000000 1.0
C      1  0.5444330000000  0.4634430000000  0.5526680000000 1.0
C      1  0.4521160000000  0.5008930000000  0.5321990000000 1.0
C      1  0.4498210000000  0.4730920000000  0.4884510000000 1.0
C      1  0.4521920000000  0.5191390000000  0.4849590000000 1.0
C      1  0.4513080000000  0.5283820000000  0.4530320000000 1.0
C      1  0.4527480000000  0.5283730000000  0.5522340000000 1.0
C      1  0.4532870000000  0.4414120000000  0.5003920000000 1.0
C      1  0.5561910000000  0.5665210000000  0.4911160000000 1.0
C      1  0.5430130000000  0.4899550000000  0.5622220000000 1.0
C      1  0.5553900000000  0.4549960000000  0.4412420000000 1.0
C      1  0.4977090000000  0.5712330000000  0.5401950000000 1.0
C      1  0.5027210000000  0.4321300000000  0.5410610000000 1.0
C      1  0.4961990000000  0.5260370000000  0.4180230000000 1.0
C      1  0.4716100000000  0.5448120000000  0.4920430000000 1.0
C      1  0.4765770000000  0.4818210000000  0.5440150000000 1.0
C      1  0.4756790000000  0.4740060000000  0.4669500000000 1.0
C      1  0.4690430000000  0.5490360000000  0.4505850000000 1.0
C      1  0.4719790000000  0.5236660000000  0.5714370000000 1.0
C      1  0.4715510000000  0.4282060000000  0.4850420000000 1.0
C      1  0.4414140000000  0.5014110000000  0.4407260000000 1.0
C      1  0.4401520000000  0.5498040000000  0.5321820000000 1.0
C      1  0.4437620000000  0.4447890000000  0.5301130000000 1.0
C      1  0.5356480000000  0.5022080000000  0.4741770000000 1.0
C      1  0.5267230000000  0.5085230000000  0.5222360000000 1.0
C      1  0.5324260000000  0.4821050000000  0.5014150000000 1.0
END
