TITL C-1154804-8633-373 -0.000804895417974979 125000 -340.928283380597 0 0 60 (C1) n - 1
REM
REM in /home/nfs/bkarasulu/CARBON/AIRSS/Generating-Clusters/AIREBO/Higher-Symm/Only-C60
REM
REM
REM
REM
REM
REM ./C.cell (28575a23ae977d3b5fae324c64b13b57)
REM
REM compiler GCC version 9.2.1 20190827 (Red Hat 9.2.1-1)
REM options -cpp -mtune=generic -march=x86-64 -g -O0 -fpre-include=/usr/include/finclude/math-vector-fortran.h
REM seed 1603472676 1124334902 209846893 1346288320 -1140170902 3022701 1280782007 1285953693 -2073080717 698302500 1992777744 -1152728379 -1426524265 266907196 1021622394 1216627490 -450371917 -1446839942 1032737157 2113913865 452320251 951637963 -1806256532 -1482270971 -1766120244 1832092937 -2034046985 -524247818 -557073460 475973138 1737784755 -743698031 1869657234
REM
CELL 1.54180   50.00000   50.00000   50.00000   90.00000   90.00000   90.00000
LATT -1
SFAC C  
C      1  0.4386580000000  0.4702620000000  0.5119800000000 1.0
C      1  0.4460360000000  0.5373390000000  0.4969820000000 1.0
C      1  0.5038650000000  0.5777800000000  0.5081230000000 1.0
C      1  0.5592200000000  0.5284750000000  0.5064910000000 1.0
C      1  0.5541500000000  0.4575940000000  0.5089930000000 1.0
C      1  0.4977670000000  0.4197560000000  0.5157730000000 1.0
C      1  0.4239300000000  0.5196630000000  0.4936310000000 1.0
C      1  0.4772090000000  0.5788230000000  0.4983210000000 1.0
C      1  0.5493760000000  0.5581390000000  0.4959710000000 1.0
C      1  0.5752130000000  0.4793570000000  0.4995250000000 1.0
C      1  0.5266860000000  0.4155660000000  0.5075660000000 1.0
C      1  0.4468500000000  0.4384490000000  0.5059030000000 1.0
C      1  0.4581090000000  0.5366980000000  0.5566770000000 1.0
C      1  0.5067860000000  0.5670620000000  0.5345660000000 1.0
C      1  0.5525020000000  0.5238990000000  0.5384000000000 1.0
C      1  0.5458050000000  0.4621030000000  0.5413930000000 1.0
C      1  0.4865370000000  0.4369730000000  0.5419380000000 1.0
C      1  0.4468980000000  0.4820000000000  0.5420200000000 1.0
C      1  0.5276540000000  0.4772490000000  0.5050660000000 1.0
C      1  0.5002110000000  0.4684820000000  0.5183670000000 1.0
C      1  0.4718390000000  0.4695470000000  0.5045780000000 1.0
C      1  0.4689090000000  0.5197160000000  0.5106540000000 1.0
C      1  0.4954070000000  0.5295270000000  0.5240240000000 1.0
C      1  0.5252430000000  0.5285360000000  0.5077790000000 1.0
C      1  0.5074270000000  0.4763240000000  0.4176470000000 1.0
C      1  0.4797020000000  0.4865100000000  0.4248970000000 1.0
C      1  0.4765480000000  0.5146540000000  0.4269160000000 1.0
C      1  0.5012900000000  0.5316470000000  0.4215720000000 1.0
C      1  0.5275720000000  0.5205240000000  0.4271670000000 1.0
C      1  0.5305390000000  0.4921480000000  0.4255830000000 1.0
C      1  0.4930240000000  0.5449740000000  0.4471160000000 1.0
C      1  0.5378290000000  0.5302100000000  0.4526360000000 1.0
C      1  0.5421180000000  0.4818860000000  0.4501760000000 1.0
C      1  0.5029880000000  0.4584970000000  0.4414000000000 1.0
C      1  0.4658220000000  0.4724990000000  0.4459270000000 1.0
C      1  0.4602850000000  0.5221750000000  0.4496080000000 1.0
C      1  0.5753020000000  0.5041160000000  0.4967340000000 1.0
C      1  0.5469160000000  0.4288200000000  0.5006990000000 1.0
C      1  0.4663400000000  0.4233220000000  0.5103460000000 1.0
C      1  0.4216530000000  0.4924560000000  0.4976790000000 1.0
C      1  0.4555750000000  0.5632200000000  0.4912360000000 1.0
C      1  0.5282800000000  0.5754190000000  0.4936810000000 1.0
C      1  0.4668160000000  0.4557300000000  0.5359020000000 1.0
C      1  0.4524240000000  0.5134120000000  0.5369310000000 1.0
C      1  0.4821440000000  0.5524020000000  0.5454040000000 1.0
C      1  0.5283270000000  0.5476970000000  0.5361080000000 1.0
C      1  0.5483070000000  0.4928890000000  0.5263570000000 1.0
C      1  0.5182780000000  0.4445280000000  0.5338320000000 1.0
C      1  0.4709910000000  0.5115180000000  0.4796450000000 1.0
C      1  0.4946710000000  0.5287110000000  0.4687540000000 1.0
C      1  0.5218090000000  0.5188260000000  0.4786540000000 1.0
C      1  0.5246690000000  0.4877580000000  0.4773290000000 1.0
C      1  0.5009670000000  0.4719150000000  0.4648410000000 1.0
C      1  0.4736890000000  0.4810340000000  0.4772450000000 1.0
C      1  0.5252300000000  0.4816550000000  0.5569290000000 1.0
C      1  0.4986940000000  0.4758130000000  0.5491210000000 1.0
C      1  0.4751690000000  0.4880640000000  0.5578700000000 1.0
C      1  0.4792870000000  0.5148040000000  0.5664100000000 1.0
C      1  0.5051130000000  0.5217490000000  0.5555230000000 1.0
C      1  0.5293430000000  0.5090970000000  0.5574050000000 1.0
END
