TITL C-1154825-9328-418 0.00488768653080418 125000 -374.080574737167 0 0 60 (C1) n - 1
REM
REM in /home/nfs/bkarasulu/CARBON/AIRSS/Generating-Clusters/AIREBO/Higher-Symm/Only-C60
REM
REM
REM
REM
REM
REM ./C.cell (28575a23ae977d3b5fae324c64b13b57)
REM
REM compiler GCC version 9.2.1 20190827 (Red Hat 9.2.1-1)
REM options -cpp -mtune=generic -march=x86-64 -g -O0 -fpre-include=/usr/include/finclude/math-vector-fortran.h
REM seed 1145864364 77694267 -1642359775 1154264109 -2043666785 -1558965201 1110998624 617409284 -2005066153 -696231714 -185809273 1387823447 -948204980 -1390809975 -1756575389 -769073775 -1069964275 534515519 900778711 -1512316715 559051506 -1740231694 1592189639 1788186594 -1577390142 1882612037 -2131285378 2032132595 1866232758 1909630229 717255011 -1132044111 1871792977
REM
CELL 1.54180   50.00000   50.00000   50.00000   90.00000   90.00000   90.00000
LATT -1
SFAC C  
C      1  0.5040690000000  0.4696510000000  0.4195450000000 1.0
C      1  0.4982480000000  0.5524830000000  0.4371430000000 1.0
C      1  0.4998010000000  0.5818490000000  0.5150730000000 1.0
C      1  0.5030150000000  0.5303980000000  0.5810500000000 1.0
C      1  0.4997000000000  0.4463840000000  0.5653870000000 1.0
C      1  0.4971280000000  0.4162960000000  0.4855400000000 1.0
C      1  0.4994440000000  0.4706280000000  0.5796000000000 1.0
C      1  0.5020180000000  0.5555010000000  0.5684320000000 1.0
C      1  0.4984390000000  0.5849390000000  0.4871580000000 1.0
C      1  0.4983730000000  0.5292790000000  0.4211980000000 1.0
C      1  0.5034990000000  0.4454860000000  0.4339950000000 1.0
C      1  0.4959030000000  0.4165200000000  0.5136380000000 1.0
C      1  0.5449960000000  0.5179320000000  0.5528010000000 1.0
C      1  0.5429230000000  0.4622980000000  0.5407300000000 1.0
C      1  0.5420770000000  0.4424570000000  0.4869920000000 1.0
C      1  0.5463380000000  0.4843910000000  0.4459700000000 1.0
C      1  0.5441920000000  0.5393690000000  0.4569760000000 1.0
C      1  0.5444710000000  0.5562710000000  0.5109870000000 1.0
C      1  0.5423420000000  0.5154570000000  0.4430540000000 1.0
C      1  0.5421380000000  0.4628810000000  0.4626400000000 1.0
C      1  0.5391710000000  0.4440950000000  0.5147760000000 1.0
C      1  0.5410520000000  0.4863940000000  0.5544910000000 1.0
C      1  0.5422570000000  0.5420820000000  0.5393620000000 1.0
C      1  0.5411570000000  0.5565760000000  0.4834330000000 1.0
C      1  0.4559840000000  0.4840760000000  0.5541500000000 1.0
C      1  0.4537150000000  0.4465760000000  0.5117150000000 1.0
C      1  0.4573870000000  0.4580820000000  0.4541240000000 1.0
C      1  0.4547350000000  0.5135200000000  0.4445770000000 1.0
C      1  0.4556520000000  0.5548220000000  0.4864180000000 1.0
C      1  0.4581160000000  0.5403220000000  0.5438710000000 1.0
C      1  0.4592870000000  0.4825980000000  0.4408990000000 1.0
C      1  0.4576750000000  0.4488320000000  0.4845460000000 1.0
C      1  0.4575600000000  0.4601220000000  0.5401120000000 1.0
C      1  0.4603300000000  0.5155770000000  0.5567140000000 1.0
C      1  0.4591890000000  0.5508180000000  0.5136570000000 1.0
C      1  0.4573940000000  0.5348270000000  0.4617730000000 1.0
C      1  0.5271080000000  0.4859730000000  0.4211550000000 1.0
C      1  0.5228780000000  0.5608680000000  0.4484200000000 1.0
C      1  0.5249650000000  0.5754620000000  0.5265140000000 1.0
C      1  0.5265380000000  0.5149350000000  0.5780630000000 1.0
C      1  0.5231830000000  0.4400600000000  0.5509480000000 1.0
C      1  0.5228770000000  0.4199830000000  0.4738980000000 1.0
C      1  0.5239540000000  0.4846000000000  0.5810930000000 1.0
C      1  0.5253940000000  0.5640420000000  0.5550340000000 1.0
C      1  0.5221550000000  0.5797080000000  0.4726860000000 1.0
C      1  0.5233630000000  0.5163960000000  0.4178190000000 1.0
C      1  0.5252320000000  0.4399490000000  0.4510390000000 1.0
C      1  0.5203720000000  0.4215190000000  0.5269020000000 1.0
C      1  0.4769980000000  0.5714610000000  0.5279230000000 1.0
C      1  0.4785790000000  0.5163000000000  0.5826620000000 1.0
C      1  0.4751010000000  0.4379400000000  0.5543080000000 1.0
C      1  0.4752560000000  0.4270910000000  0.4714890000000 1.0
C      1  0.4791830000000  0.4827590000000  0.4162360000000 1.0
C      1  0.4748670000000  0.5581310000000  0.4517800000000 1.0
C      1  0.4738300000000  0.5786890000000  0.4743630000000 1.0
C      1  0.4752760000000  0.5129590000000  0.4208160000000 1.0
C      1  0.4779160000000  0.4361370000000  0.4424670000000 1.0
C      1  0.4723480000000  0.4259280000000  0.5261960000000 1.0
C      1  0.4758080000000  0.4861610000000  0.5785150000000 1.0
C      1  0.4770440000000  0.5631610000000  0.5571440000000 1.0
END
