TITL C-1154810-7815-50 0.00142932754818187 125000 -331.791696317764 0 0 60 (C1) n - 1
REM
REM in /home/nfs/bkarasulu/CARBON/AIRSS/Generating-Clusters/AIREBO/Higher-Symm/Only-C60
REM
REM
REM
REM
REM
REM ./C.cell (28575a23ae977d3b5fae324c64b13b57)
REM
REM compiler GCC version 9.2.1 20190827 (Red Hat 9.2.1-1)
REM options -cpp -mtune=generic -march=x86-64 -g -O0 -fpre-include=/usr/include/finclude/math-vector-fortran.h
REM seed 1661206195 1511425984 -2102175221 2102291359 -1026235486 1002143604 1503215110 -1398688020 1042499472 -683609216 671523737 1320604946 -1145637444 990991295 -319225084 -523620521 -1733707678 642084800 480247854 391656306 -1677895905 809298340 -213132154 1122801154 -1237183340 895415091 -1419591079 1208168640 341631339 -38504842 812758770 789164789 1118440189
REM
CELL 1.54180   50.00000   50.00000   50.00000   90.00000   90.00000   90.00000
LATT -1
SFAC C  
C      1  0.4653100000000  0.4417290000000  0.5301750000000 1.0
C      1  0.5333970000000  0.5578210000000  0.5298340000000 1.0
C      1  0.4629290000000  0.5662120000000  0.5404730000000 1.0
C      1  0.5369320000000  0.4340470000000  0.5408140000000 1.0
C      1  0.5627030000000  0.5132700000000  0.5296040000000 1.0
C      1  0.4360220000000  0.4876580000000  0.5323840000000 1.0
C      1  0.5630760000000  0.4842600000000  0.5276900000000 1.0
C      1  0.4360370000000  0.5168610000000  0.5292930000000 1.0
C      1  0.5158150000000  0.5135620000000  0.4293070000000 1.0
C      1  0.4859300000000  0.4873850000000  0.4282140000000 1.0
C      1  0.5164930000000  0.4817730000000  0.4253070000000 1.0
C      1  0.4852760000000  0.5195200000000  0.4269560000000 1.0
C      1  0.5139770000000  0.5306200000000  0.4839220000000 1.0
C      1  0.4853540000000  0.4749490000000  0.4845740000000 1.0
C      1  0.5172940000000  0.4674700000000  0.4835570000000 1.0
C      1  0.4813070000000  0.5276280000000  0.4856880000000 1.0
C      1  0.5367200000000  0.5223650000000  0.4484310000000 1.0
C      1  0.4654640000000  0.4769360000000  0.4468510000000 1.0
C      1  0.5415150000000  0.4886400000000  0.4470550000000 1.0
C      1  0.4598730000000  0.5106060000000  0.4476940000000 1.0
C      1  0.4875280000000  0.4291540000000  0.5097250000000 1.0
C      1  0.5115450000000  0.5699420000000  0.5084840000000 1.0
C      1  0.4830240000000  0.5666590000000  0.5212270000000 1.0
C      1  0.5157310000000  0.4328990000000  0.5231710000000 1.0
C      1  0.4605080000000  0.4537240000000  0.4618060000000 1.0
C      1  0.5434350000000  0.5458290000000  0.4619980000000 1.0
C      1  0.4585770000000  0.5434170000000  0.4569430000000 1.0
C      1  0.5438720000000  0.4558000000000  0.4560780000000 1.0
C      1  0.5237180000000  0.4789500000000  0.5308790000000 1.0
C      1  0.4755490000000  0.5207400000000  0.5325520000000 1.0
C      1  0.5234770000000  0.5078690000000  0.5343830000000 1.0
C      1  0.4756380000000  0.4917610000000  0.5347720000000 1.0
C      1  0.4560130000000  0.5118810000000  0.4810240000000 1.0
C      1  0.5405690000000  0.4869510000000  0.4804750000000 1.0
C      1  0.4567890000000  0.4837190000000  0.4878120000000 1.0
C      1  0.5400910000000  0.5153430000000  0.4876710000000 1.0
C      1  0.4796110000000  0.4677310000000  0.5164800000000 1.0
C      1  0.5186790000000  0.5316660000000  0.5169090000000 1.0
C      1  0.4886720000000  0.5372260000000  0.5138410000000 1.0
C      1  0.5100480000000  0.4618320000000  0.5128660000000 1.0
C      1  0.4808310000000  0.5186270000000  0.5652610000000 1.0
C      1  0.5189920000000  0.4814910000000  0.5640520000000 1.0
C      1  0.4851140000000  0.4841350000000  0.5653220000000 1.0
C      1  0.5146990000000  0.5153160000000  0.5651590000000 1.0
C      1  0.4372240000000  0.5468130000000  0.4772710000000 1.0
C      1  0.5638180000000  0.4545960000000  0.4773050000000 1.0
C      1  0.4363540000000  0.4565900000000  0.4809670000000 1.0
C      1  0.5660560000000  0.5446190000000  0.4798940000000 1.0
C      1  0.5416420000000  0.5310880000000  0.5495220000000 1.0
C      1  0.4579660000000  0.4685740000000  0.5500410000000 1.0
C      1  0.5461990000000  0.4653000000000  0.5503420000000 1.0
C      1  0.4538010000000  0.5353850000000  0.5516280000000 1.0
C      1  0.5167200000000  0.4423700000000  0.4618850000000 1.0
C      1  0.4867370000000  0.5529620000000  0.4653940000000 1.0
C      1  0.5172220000000  0.5627400000000  0.4755790000000 1.0
C      1  0.4872650000000  0.4415270000000  0.4789140000000 1.0
C      1  0.4360250000000  0.5268810000000  0.5021600000000 1.0
C      1  0.5627720000000  0.4739340000000  0.5011830000000 1.0
C      1  0.4331190000000  0.4749010000000  0.5075460000000 1.0
C      1  0.5629430000000  0.5257460000000  0.5036590000000 1.0
END
