TITL C-1154810-7815-86 -0.0011797712899605 125000 -318.04351875117 0 0 60 (C1) n - 1
REM
REM in /home/nfs/bkarasulu/CARBON/AIRSS/Generating-Clusters/AIREBO/Higher-Symm/Only-C60
REM
REM
REM
REM
REM
REM ./C.cell (28575a23ae977d3b5fae324c64b13b57)
REM
REM compiler GCC version 9.2.1 20190827 (Red Hat 9.2.1-1)
REM options -cpp -mtune=generic -march=x86-64 -g -O0 -fpre-include=/usr/include/finclude/math-vector-fortran.h
REM seed 191566690 -336870244 403067320 827064987 1264891722 663775120 -1180211518 303278581 71924136 1065256609 2121616730 1070342379 2037305995 1386710685 855199788 -232073203 1109721532 1470984600 -822817022 -817846208 798541154 -2008255582 445877524 -491582500 1247455895 1116931002 46393837 -1940728538 -1855940834 1052845679 734385712 -2002568944 -1955588010
REM
CELL 1.54180   50.00000   50.00000   50.00000   90.00000   90.00000   90.00000
LATT -1
SFAC C  
C      1  0.5517020000000  0.4862630000000  0.5479260000000 1.0
C      1  0.5368660000000  0.5326620000000  0.4894620000000 1.0
C      1  0.5927460000000  0.4619960000000  0.5370440000000 1.0
C      1  0.5238020000000  0.5567470000000  0.5096170000000 1.0
C      1  0.4778660000000  0.4979070000000  0.5551840000000 1.0
C      1  0.5052780000000  0.5393460000000  0.5619590000000 1.0
C      1  0.4682760000000  0.4964060000000  0.5221470000000 1.0
C      1  0.5432040000000  0.4691220000000  0.4920210000000 1.0
C      1  0.5120340000000  0.4978420000000  0.4278670000000 1.0
C      1  0.5470930000000  0.5417410000000  0.4612330000000 1.0
C      1  0.5583640000000  0.5298660000000  0.5230580000000 1.0
C      1  0.5654690000000  0.4856830000000  0.5038400000000 1.0
C      1  0.4918820000000  0.5010620000000  0.4622670000000 1.0
C      1  0.4509330000000  0.4888930000000  0.4761470000000 1.0
C      1  0.5075260000000  0.4419810000000  0.5274130000000 1.0
C      1  0.4743310000000  0.4798560000000  0.4930690000000 1.0
C      1  0.5211860000000  0.5624940000000  0.5620820000000 1.0
C      1  0.5037600000000  0.4729410000000  0.4880000000000 1.0
C      1  0.4575840000000  0.5156440000000  0.4962000000000 1.0
C      1  0.5067260000000  0.4216360000000  0.4596720000000 1.0
C      1  0.5188910000000  0.4661420000000  0.5156290000000 1.0
C      1  0.5226040000000  0.5793340000000  0.4842230000000 1.0
C      1  0.5486320000000  0.4414220000000  0.4794280000000 1.0
C      1  0.5208360000000  0.4898490000000  0.5375060000000 1.0
C      1  0.4565670000000  0.5371480000000  0.5447350000000 1.0
C      1  0.5349000000000  0.4991020000000  0.4441170000000 1.0
C      1  0.4887600000000  0.4673610000000  0.4580660000000 1.0
C      1  0.4808640000000  0.5533170000000  0.4666330000000 1.0
C      1  0.4556700000000  0.4651800000000  0.5269680000000 1.0
C      1  0.4373990000000  0.4950880000000  0.4525970000000 1.0
C      1  0.5630770000000  0.5132740000000  0.4994960000000 1.0
C      1  0.4177830000000  0.5224710000000  0.5219510000000 1.0
C      1  0.4948680000000  0.4161350000000  0.5408230000000 1.0
C      1  0.4428560000000  0.5130190000000  0.5374720000000 1.0
C      1  0.4747080000000  0.4381010000000  0.5244530000000 1.0
C      1  0.5715930000000  0.4770460000000  0.5303070000000 1.0
C      1  0.5287530000000  0.4889440000000  0.4714050000000 1.0
C      1  0.4613750000000  0.4283000000000  0.4772970000000 1.0
C      1  0.4402340000000  0.5379570000000  0.5065140000000 1.0
C      1  0.4994900000000  0.4725200000000  0.4287260000000 1.0
C      1  0.5109730000000  0.5121300000000  0.4881530000000 1.0
C      1  0.5315740000000  0.4222280000000  0.4708180000000 1.0
C      1  0.4923320000000  0.5195460000000  0.4337190000000 1.0
C      1  0.4802190000000  0.5409480000000  0.4231900000000 1.0
C      1  0.5494520000000  0.5152020000000  0.5492250000000 1.0
C      1  0.4464730000000  0.5204450000000  0.4433090000000 1.0
C      1  0.5321130000000  0.5727190000000  0.5384620000000 1.0
C      1  0.4872900000000  0.5369640000000  0.5364980000000 1.0
C      1  0.4889000000000  0.5608940000000  0.5139000000000 1.0
C      1  0.4951340000000  0.5677580000000  0.4841450000000 1.0
C      1  0.4994960000000  0.5098030000000  0.5200730000000 1.0
C      1  0.5258180000000  0.5292670000000  0.5292860000000 1.0
C      1  0.4291280000000  0.4491330000000  0.5128520000000 1.0
C      1  0.4570410000000  0.4781590000000  0.5558420000000 1.0
C      1  0.5033740000000  0.5087210000000  0.5597540000000 1.0
C      1  0.4572050000000  0.5578240000000  0.5209370000000 1.0
C      1  0.4693670000000  0.5244390000000  0.4660640000000 1.0
C      1  0.4522540000000  0.4332150000000  0.5032790000000 1.0
C      1  0.5516870000000  0.5215710000000  0.4430630000000 1.0
C      1  0.4836850000000  0.4372350000000  0.4628820000000 1.0
END
