TITL C-1154824-75-697 -9.57986943827133 125000 -325.354391104094 0 0 60 (C1) n - 1
REM
REM in /home/nfs/bkarasulu/CARBON/AIRSS/Generating-Clusters/AIREBO/Higher-Symm/Only-C60
REM
REM
REM
REM
REM
REM ./C.cell (28575a23ae977d3b5fae324c64b13b57)
REM
REM compiler GCC version 9.2.1 20190827 (Red Hat 9.2.1-1)
REM options -cpp -mtune=generic -march=x86-64 -g -O0 -fpre-include=/usr/include/finclude/math-vector-fortran.h
REM seed -2073380378 1256419993 -774240288 -606949985 1629606 1905409314 1722759321 -799783539 1250131682 554325838 -1216056374 1375004359 -940523465 1401211257 1238236538 -1516840394 1099437433 -232355135 1069207712 1509699890 1820655394 -494654853 526769071 463192530 425189885 1274979168 1892678414 -1924526966 918108425 2057459520 -1199996356 -79070350 -670415290
REM
CELL 1.54180   50.00000   50.00000   50.00000   90.00000   90.00000   90.00000
LATT -1
SFAC C  
C      1  0.4902780000000  0.4341330000000  0.5396520000000 1.0
C      1  0.5867510000000  0.4569290000000  0.5078860000000 1.0
C      1  0.5472820000000  0.5319600000000  0.5219440000000 1.0
C      1  0.5756030000000  0.5014280000000  0.5237520000000 1.0
C      1  0.4915320000000  0.5071130000000  0.4186780000000 1.0
C      1  0.5149620000000  0.5194330000000  0.5416130000000 1.0
C      1  0.4858750000000  0.4472910000000  0.5149390000000 1.0
C      1  0.5829370000000  0.4840070000000  0.4984570000000 1.0
C      1  0.4638430000000  0.5372950000000  0.4419170000000 1.0
C      1  0.4471300000000  0.4790140000000  0.4974460000000 1.0
C      1  0.5346580000000  0.5550910000000  0.5303710000000 1.0
C      1  0.4975770000000  0.4870800000000  0.4853020000000 1.0
C      1  0.5124780000000  0.5286830000000  0.4559550000000 1.0
C      1  0.4709390000000  0.4989190000000  0.5028120000000 1.0
C      1  0.4401650000000  0.5065390000000  0.6391730000000 1.0
C      1  0.4645320000000  0.5214960000000  0.5275550000000 1.0
C      1  0.5373670000000  0.5342870000000  0.4712560000000 1.0
C      1  0.5022680000000  0.4977000000000  0.4575570000000 1.0
C      1  0.5355960000000  0.5288300000000  0.4100210000000 1.0
C      1  0.5079870000000  0.4577020000000  0.4966410000000 1.0
C      1  0.4980270000000  0.4816700000000  0.5312660000000 1.0
C      1  0.4895400000000  0.5477570000000  0.4605240000000 1.0
C      1  0.4323150000000  0.5194630000000  0.5183250000000 1.0
C      1  0.3994160000000  0.4827570000000  0.5138200000000 1.0
C      1  0.5056860000000  0.4446620000000  0.4023660000000 1.0
C      1  0.4878700000000  0.5280900000000  0.4958430000000 1.0
C      1  0.5695920000000  0.4536680000000  0.5300900000000 1.0
C      1  0.5506420000000  0.4798840000000  0.5320850000000 1.0
C      1  0.5300050000000  0.4795070000000  0.5074270000000 1.0
C      1  0.4520240000000  0.5428600000000  0.5047610000000 1.0
C      1  0.5407000000000  0.5187960000000  0.4956810000000 1.0
C      1  0.4635980000000  0.4779180000000  0.4513800000000 1.0
C      1  0.4803840000000  0.5605190000000  0.4986600000000 1.0
C      1  0.5552570000000  0.4916540000000  0.4908430000000 1.0
C      1  0.4976900000000  0.5898590000000  0.4996210000000 1.0
C      1  0.4905350000000  0.4494520000000  0.5630980000000 1.0
C      1  0.5551760000000  0.5517800000000  0.4629100000000 1.0
C      1  0.4912430000000  0.4773900000000  0.5583720000000 1.0
C      1  0.5187190000000  0.4383740000000  0.4765390000000 1.0
C      1  0.5108080000000  0.5512530000000  0.5474890000000 1.0
C      1  0.5373630000000  0.4198230000000  0.4841760000000 1.0
C      1  0.4443930000000  0.4765180000000  0.4666260000000 1.0
C      1  0.5081770000000  0.4403040000000  0.4510760000000 1.0
C      1  0.5066430000000  0.4345460000000  0.3782070000000 1.0
C      1  0.5022300000000  0.4541390000000  0.4278270000000 1.0
C      1  0.4675440000000  0.5016690000000  0.5943110000000 1.0
C      1  0.5151900000000  0.5202810000000  0.4259060000000 1.0
C      1  0.4800550000000  0.4996270000000  0.5701230000000 1.0
C      1  0.4683380000000  0.5233900000000  0.4194960000000 1.0
C      1  0.4887720000000  0.4798530000000  0.4329760000000 1.0
C      1  0.4917800000000  0.5770870000000  0.4712420000000 1.0
C      1  0.4241200000000  0.4939240000000  0.5108640000000 1.0
C      1  0.4870350000000  0.5545030000000  0.5638440000000 1.0
C      1  0.4531000000000  0.5030420000000  0.6166460000000 1.0
C      1  0.5462530000000  0.5095860000000  0.5460990000000 1.0
C      1  0.4601660000000  0.4520770000000  0.5074780000000 1.0
C      1  0.5093320000000  0.5063290000000  0.5107480000000 1.0
C      1  0.5562660000000  0.5128810000000  0.5726550000000 1.0
C      1  0.4617380000000  0.5348810000000  0.4745620000000 1.0
C      1  0.4825150000000  0.5233000000000  0.5511110000000 1.0
END
