TITL C-1154825-9328-245 0.000278492958232845 125000 -319.074149223427 0 0 60 (C1) n - 1
REM
REM in /home/nfs/bkarasulu/CARBON/AIRSS/Generating-Clusters/AIREBO/Higher-Symm/Only-C60
REM
REM
REM
REM
REM
REM ./C.cell (28575a23ae977d3b5fae324c64b13b57)
REM
REM compiler GCC version 9.2.1 20190827 (Red Hat 9.2.1-1)
REM options -cpp -mtune=generic -march=x86-64 -g -O0 -fpre-include=/usr/include/finclude/math-vector-fortran.h
REM seed -1846757996 -1688820307 -233456231 1219101680 1094405613 -972156110 934179698 -1206466448 1635351565 -795355840 1847410950 -27488881 -1372853245 75878022 1027240330 -552142505 30547032 -1075278226 -603524784 -496745581 1432175273 341392047 -310141423 17156028 1292633655 -1241283801 -1209479716 -222294005 -1806908279 -348489460 -1677805857 -1123929952 1119974396
REM
CELL 1.54180   50.00000   50.00000   50.00000   90.00000   90.00000   90.00000
LATT -1
SFAC C  
C      1  0.4796570000000  0.4652260000000  0.4982210000000 1.0
C      1  0.4831040000000  0.5203220000000  0.5236990000000 1.0
C      1  0.4797730000000  0.5140700000000  0.4732760000000 1.0
C      1  0.4169210000000  0.4845510000000  0.5117500000000 1.0
C      1  0.4163000000000  0.5168020000000  0.5085080000000 1.0
C      1  0.4159490000000  0.4979880000000  0.4823310000000 1.0
C      1  0.5637510000000  0.5244680000000  0.5305720000000 1.0
C      1  0.5602060000000  0.5115660000000  0.4734620000000 1.0
C      1  0.5541380000000  0.4704250000000  0.5097880000000 1.0
C      1  0.4343690000000  0.5033830000000  0.4629270000000 1.0
C      1  0.4351710000000  0.4646740000000  0.5158630000000 1.0
C      1  0.4360390000000  0.5310270000000  0.5208990000000 1.0
C      1  0.5531980000000  0.4342700000000  0.4974820000000 1.0
C      1  0.5567060000000  0.5337700000000  0.5605050000000 1.0
C      1  0.5538210000000  0.5311530000000  0.4503200000000 1.0
C      1  0.5070220000000  0.5194800000000  0.4862550000000 1.0
C      1  0.5051460000000  0.4688650000000  0.4903330000000 1.0
C      1  0.5122570000000  0.5097070000000  0.5184270000000 1.0
C      1  0.5284410000000  0.5062260000000  0.4679080000000 1.0
C      1  0.5242550000000  0.4573290000000  0.5115570000000 1.0
C      1  0.5325970000000  0.5323850000000  0.5291740000000 1.0
C      1  0.4752500000000  0.4730200000000  0.5533420000000 1.0
C      1  0.4702800000000  0.5652620000000  0.4938250000000 1.0
C      1  0.4683880000000  0.4632180000000  0.4461550000000 1.0
C      1  0.4514710000000  0.4254800000000  0.4837350000000 1.0
C      1  0.4561290000000  0.5214500000000  0.5677130000000 1.0
C      1  0.4537120000000  0.5486140000000  0.4441480000000 1.0
C      1  0.4649530000000  0.4943980000000  0.4498030000000 1.0
C      1  0.4664080000000  0.4565450000000  0.5283160000000 1.0
C      1  0.4655130000000  0.5492150000000  0.5201250000000 1.0
C      1  0.5417580000000  0.5550790000000  0.5788010000000 1.0
C      1  0.5407250000000  0.5373250000000  0.4221020000000 1.0
C      1  0.5397110000000  0.4057440000000  0.4990870000000 1.0
C      1  0.4559390000000  0.5144330000000  0.5367180000000 1.0
C      1  0.4524360000000  0.5274860000000  0.4678080000000 1.0
C      1  0.4513500000000  0.4561200000000  0.4915520000000 1.0
C      1  0.5748410000000  0.4933160000000  0.5240520000000 1.0
C      1  0.5777580000000  0.5194530000000  0.5011800000000 1.0
C      1  0.5749490000000  0.4870690000000  0.4900790000000 1.0
C      1  0.5445550000000  0.5767650000000  0.5939650000000 1.0
C      1  0.5446970000000  0.5384730000000  0.3958250000000 1.0
C      1  0.5423370000000  0.3805300000000  0.5071730000000 1.0
C      1  0.5261600000000  0.5693990000000  0.4954960000000 1.0
C      1  0.5244810000000  0.4634500000000  0.4443350000000 1.0
C      1  0.5328530000000  0.4796580000000  0.5579900000000 1.0
C      1  0.5199630000000  0.5326570000000  0.4482510000000 1.0
C      1  0.5195920000000  0.4317570000000  0.4926600000000 1.0
C      1  0.5223090000000  0.5358910000000  0.5592740000000 1.0
C      1  0.4728790000000  0.5223370000000  0.4340340000000 1.0
C      1  0.4720340000000  0.4280710000000  0.5107950000000 1.0
C      1  0.4731320000000  0.5467270000000  0.5524090000000 1.0
C      1  0.4720460000000  0.4396910000000  0.4615450000000 1.0
C      1  0.4798240000000  0.4984080000000  0.5644590000000 1.0
C      1  0.4751650000000  0.5603440000000  0.4666130000000 1.0
C      1  0.5215650000000  0.5447130000000  0.5022760000000 1.0
C      1  0.5188630000000  0.4778930000000  0.4670100000000 1.0
C      1  0.5291360000000  0.4847410000000  0.5280970000000 1.0
C      1  0.4924930000000  0.5417960000000  0.4475750000000 1.0
C      1  0.4907960000000  0.4288300000000  0.4859300000000 1.0
C      1  0.4947310000000  0.5269580000000  0.5624910000000 1.0
END
