TITL C-1154827-9204-572 -0.00410009494407377 125000 -328.875527159603 0 0 60 (C1) n - 1
REM
REM in /home/nfs/bkarasulu/CARBON/AIRSS/Generating-Clusters/AIREBO/Higher-Symm/Only-C60
REM
REM
REM
REM
REM
REM ./C.cell (28575a23ae977d3b5fae324c64b13b57)
REM
REM compiler GCC version 9.2.1 20190827 (Red Hat 9.2.1-1)
REM options -cpp -mtune=generic -march=x86-64 -g -O0 -fpre-include=/usr/include/finclude/math-vector-fortran.h
REM seed 683104896 -729568192 709771089 252817981 -2131623321 1376911576 -2126006195 -1597767835 -1788892669 -1016134379 -264541638 -453060287 -1068004915 642532663 -1859886433 -1721016636 1897334861 1687145048 1493882764 1095599294 1927130953 1745801718 -928380661 77104919 -1007434266 -1332330634 -180309871 2027774352 -1437170397 1057142897 -792815732 -749440785 -214935087
REM
CELL 1.54180   50.00000   50.00000   50.00000   90.00000   90.00000   90.00000
LATT -1
SFAC C  
C      1  0.4336790000000  0.5380590000000  0.5191900000000 1.0
C      1  0.5169270000000  0.4381080000000  0.5363620000000 1.0
C      1  0.5327700000000  0.5163200000000  0.4448220000000 1.0
C      1  0.4512420000000  0.4704200000000  0.4880750000000 1.0
C      1  0.5601400000000  0.4631700000000  0.5162910000000 1.0
C      1  0.5580300000000  0.5376450000000  0.4860510000000 1.0
C      1  0.5181810000000  0.5657580000000  0.4609970000000 1.0
C      1  0.4868980000000  0.5480540000000  0.5305420000000 1.0
C      1  0.4881740000000  0.4436540000000  0.4611100000000 1.0
C      1  0.5348490000000  0.4825550000000  0.5592100000000 1.0
C      1  0.4602590000000  0.4802300000000  0.4364490000000 1.0
C      1  0.4603940000000  0.5132350000000  0.5595670000000 1.0
C      1  0.4332350000000  0.5201270000000  0.5408760000000 1.0
C      1  0.5123970000000  0.5352420000000  0.4468470000000 1.0
C      1  0.5341190000000  0.4409770000000  0.5144420000000 1.0
C      1  0.4459970000000  0.4870980000000  0.4661470000000 1.0
C      1  0.5542970000000  0.5142820000000  0.4710620000000 1.0
C      1  0.5560680000000  0.4855940000000  0.5328170000000 1.0
C      1  0.5126800000000  0.4654690000000  0.5562600000000 1.0
C      1  0.4814410000000  0.5314750000000  0.5601010000000 1.0
C      1  0.4825690000000  0.4633360000000  0.4334560000000 1.0
C      1  0.5399180000000  0.5655190000000  0.4789090000000 1.0
C      1  0.4696500000000  0.4418870000000  0.4819210000000 1.0
C      1  0.4648920000000  0.5516800000000  0.5134660000000 1.0
C      1  0.5616700000000  0.4589940000000  0.4825810000000 1.0
C      1  0.4848860000000  0.5592200000000  0.4631830000000 1.0
C      1  0.4579600000000  0.4798530000000  0.5660500000000 1.0
C      1  0.5646850000000  0.5406380000000  0.5192600000000 1.0
C      1  0.4399580000000  0.5372140000000  0.4857840000000 1.0
C      1  0.4405790000000  0.4657760000000  0.5200260000000 1.0
C      1  0.4833810000000  0.4430210000000  0.5389200000000 1.0
C      1  0.5212320000000  0.4360450000000  0.4587870000000 1.0
C      1  0.5189180000000  0.5590470000000  0.5336950000000 1.0
C      1  0.4624010000000  0.5141560000000  0.4412650000000 1.0
C      1  0.5378060000000  0.5165210000000  0.5569510000000 1.0
C      1  0.5373600000000  0.4822840000000  0.4420780000000 1.0
C      1  0.5617280000000  0.4815260000000  0.4657780000000 1.0
C      1  0.4803680000000  0.4627060000000  0.5664790000000 1.0
C      1  0.4632060000000  0.5615530000000  0.4809750000000 1.0
C      1  0.5648550000000  0.5182420000000  0.5364210000000 1.0
C      1  0.4390110000000  0.4866930000000  0.5386600000000 1.0
C      1  0.4376490000000  0.5198420000000  0.4638720000000 1.0
C      1  0.4794420000000  0.5364090000000  0.4385650000000 1.0
C      1  0.5156620000000  0.4645820000000  0.4411620000000 1.0
C      1  0.5149280000000  0.5325210000000  0.5543050000000 1.0
C      1  0.4682400000000  0.4469180000000  0.5155180000000 1.0
C      1  0.5371250000000  0.5593160000000  0.5123630000000 1.0
C      1  0.5381110000000  0.4345110000000  0.4813010000000 1.0
C      1  0.4369770000000  0.5675680000000  0.5017610000000 1.0
C      1  0.5649950000000  0.4318160000000  0.5027410000000 1.0
C      1  0.4993020000000  0.5632530000000  0.4321460000000 1.0
C      1  0.5010140000000  0.4350070000000  0.5668660000000 1.0
C      1  0.4300850000000  0.4998960000000  0.5686970000000 1.0
C      1  0.5641560000000  0.5034320000000  0.4398840000000 1.0
C      1  0.4392930000000  0.4399630000000  0.4979300000000 1.0
C      1  0.5016460000000  0.4347090000000  0.4310240000000 1.0
C      1  0.4316410000000  0.4994320000000  0.4373470000000 1.0
C      1  0.5677500000000  0.5678810000000  0.4991450000000 1.0
C      1  0.4975820000000  0.5618850000000  0.5600180000000 1.0
C      1  0.5655920000000  0.4976760000000  0.5634920000000 1.0
END
