TITL C-1154827-9204-302 0.00344053897988554 125000 -354.062156834529 0 0 60 (C1) n - 1
REM
REM in /home/nfs/bkarasulu/CARBON/AIRSS/Generating-Clusters/AIREBO/Higher-Symm/Only-C60
REM
REM
REM
REM
REM
REM ./C.cell (28575a23ae977d3b5fae324c64b13b57)
REM
REM compiler GCC version 9.2.1 20190827 (Red Hat 9.2.1-1)
REM options -cpp -mtune=generic -march=x86-64 -g -O0 -fpre-include=/usr/include/finclude/math-vector-fortran.h
REM seed -1747278946 -1722912991 -1107120359 1733009199 282984547 266305497 626275657 -629645164 -1184202732 1906781626 -780972212 -524104880 680338192 1673552128 -479458480 -1111462210 -820244270 -34960609 1801455945 132051174 36839837 709676089 -139105250 1799434885 -189319493 -1508654553 1401609140 -636782364 -359745913 2021980194 -1510213011 739461813 -770854779
REM
CELL 1.54180   50.00000   50.00000   50.00000   90.00000   90.00000   90.00000
LATT -1
SFAC C  
C      1  0.5509670000000  0.5660310000000  0.4650090000000 1.0
C      1  0.5492020000000  0.5674610000000  0.5371030000000 1.0
C      1  0.5127000000000  0.4387640000000  0.4662660000000 1.0
C      1  0.5313990000000  0.4353560000000  0.5318590000000 1.0
C      1  0.5023930000000  0.5574840000000  0.4532740000000 1.0
C      1  0.4989150000000  0.5598990000000  0.5450990000000 1.0
C      1  0.5297590000000  0.5510310000000  0.4677080000000 1.0
C      1  0.5282780000000  0.5522490000000  0.5337930000000 1.0
C      1  0.4581230000000  0.4750650000000  0.4699280000000 1.0
C      1  0.4538700000000  0.4787380000000  0.5295440000000 1.0
C      1  0.5457790000000  0.4789960000000  0.4847070000000 1.0
C      1  0.5430620000000  0.4797410000000  0.5159060000000 1.0
C      1  0.4380980000000  0.5216040000000  0.4661090000000 1.0
C      1  0.4333400000000  0.5236040000000  0.5395490000000 1.0
C      1  0.4761260000000  0.4894520000000  0.5158530000000 1.0
C      1  0.4828780000000  0.4795560000000  0.4876640000000 1.0
C      1  0.4517200000000  0.5468360000000  0.4537480000000 1.0
C      1  0.4465560000000  0.5505310000000  0.5497760000000 1.0
C      1  0.5019190000000  0.4497400000000  0.4416370000000 1.0
C      1  0.4988610000000  0.4504580000000  0.5534340000000 1.0
C      1  0.4586210000000  0.4476960000000  0.4625800000000 1.0
C      1  0.4560330000000  0.4509920000000  0.5360660000000 1.0
C      1  0.5147300000000  0.4866030000000  0.5291060000000 1.0
C      1  0.5177890000000  0.4832550000000  0.4690350000000 1.0
C      1  0.4727250000000  0.5533360000000  0.4384160000000 1.0
C      1  0.4697540000000  0.5574210000000  0.5618740000000 1.0
C      1  0.5271170000000  0.4984380000000  0.4276240000000 1.0
C      1  0.5233390000000  0.4971220000000  0.5716750000000 1.0
C      1  0.5496450000000  0.5070870000000  0.4709790000000 1.0
C      1  0.5488150000000  0.5069330000000  0.5315310000000 1.0
C      1  0.4969110000000  0.5122660000000  0.5216810000000 1.0
C      1  0.5005080000000  0.5076460000000  0.4800150000000 1.0
C      1  0.5518830000000  0.4515470000000  0.5244840000000 1.0
C      1  0.5402190000000  0.4339080000000  0.4669630000000 1.0
C      1  0.4545440000000  0.5406950000000  0.4871850000000 1.0
C      1  0.4493040000000  0.5418250000000  0.5177770000000 1.0
C      1  0.4688280000000  0.4355080000000  0.5154020000000 1.0
C      1  0.4640720000000  0.4320900000000  0.4867770000000 1.0
C      1  0.5111360000000  0.4757040000000  0.5555000000000 1.0
C      1  0.5140390000000  0.4762620000000  0.4411400000000 1.0
C      1  0.5122890000000  0.5189440000000  0.4150820000000 1.0
C      1  0.5076730000000  0.5184410000000  0.5820090000000 1.0
C      1  0.4710570000000  0.4467660000000  0.5604510000000 1.0
C      1  0.4743460000000  0.4429010000000  0.4391130000000 1.0
C      1  0.4809020000000  0.5380670000000  0.5170300000000 1.0
C      1  0.4875730000000  0.5373090000000  0.4843190000000 1.0
C      1  0.4982000000000  0.5652610000000  0.5115280000000 1.0
C      1  0.4982940000000  0.5696160000000  0.4832810000000 1.0
C      1  0.4391050000000  0.4945130000000  0.4662890000000 1.0
C      1  0.4340820000000  0.4963280000000  0.5386040000000 1.0
C      1  0.5010190000000  0.4376220000000  0.5220150000000 1.0
C      1  0.4965600000000  0.4485000000000  0.4901050000000 1.0
C      1  0.5583450000000  0.4514310000000  0.4792910000000 1.0
C      1  0.5699100000000  0.4426390000000  0.5040200000000 1.0
C      1  0.5481290000000  0.5050820000000  0.5590380000000 1.0
C      1  0.5498790000000  0.5068430000000  0.4433910000000 1.0
C      1  0.5279580000000  0.5258550000000  0.5182070000000 1.0
C      1  0.5287680000000  0.5259010000000  0.4850490000000 1.0
C      1  0.4979770000000  0.5394690000000  0.4259050000000 1.0
C      1  0.4939750000000  0.5395830000000  0.5714960000000 1.0
END
