TITL C-1154830-9999-159 -1145.15650018177 125000 -295.042376448255 0 0 60 (C1) n - 1
REM
REM in /home/nfs/bkarasulu/CARBON/AIRSS/Generating-Clusters/AIREBO/Higher-Symm/Only-C60
REM
REM
REM
REM
REM
REM ./C.cell (28575a23ae977d3b5fae324c64b13b57)
REM
REM compiler GCC version 9.2.1 20190827 (Red Hat 9.2.1-1)
REM options -cpp -mtune=generic -march=x86-64 -g -O0 -fpre-include=/usr/include/finclude/math-vector-fortran.h
REM seed 1109554192 1178482229 -380297442 597458666 -58809169 -1759491945 783543055 -1609230858 -1732683328 -1673787447 -301522647 -1917919579 -352305708 1268272043 203645347 840730059 -512077819 -1801245407 241363287 -1197688566 508402312 912142863 1185140062 2095132153 1529914882 -514638023 -693560459 818166049 -1800693021 1522278435 1204546131 -915707911 416675258
REM
CELL 1.54180   50.00000   50.00000   50.00000   90.00000   90.00000   90.00000
LATT -1
SFAC C  
C      1  0.4232270000000  0.5139280000000  0.4500410000000 1.0
C      1  0.4297760000000  0.5587770000000  0.4945740000000 1.0
C      1  0.4295190000000  0.5284670000000  0.5490830000000 1.0
C      1  0.4415140000000  0.4640320000000  0.5414420000000 1.0
C      1  0.4218560000000  0.4569770000000  0.4820200000000 1.0
C      1  0.5653030000000  0.4999880000000  0.4467050000000 1.0
C      1  0.5680910000000  0.4576020000000  0.4936070000000 1.0
C      1  0.5719530000000  0.4783150000000  0.5657860000000 1.0
C      1  0.5689220000000  0.5345230000000  0.5450950000000 1.0
C      1  0.5606880000000  0.5486820000000  0.4878490000000 1.0
C      1  0.4888030000000  0.4971880000000  0.5341350000000 1.0
C      1  0.4861270000000  0.4572350000000  0.4893660000000 1.0
C      1  0.4952170000000  0.4839190000000  0.4705270000000 1.0
C      1  0.4907600000000  0.5153540000000  0.4770870000000 1.0
C      1  0.4851430000000  0.5195870000000  0.5097940000000 1.0
C      1  0.5192470000000  0.5033190000000  0.5202220000000 1.0
C      1  0.5164100000000  0.5308670000000  0.5028460000000 1.0
C      1  0.5145180000000  0.5118190000000  0.4530120000000 1.0
C      1  0.5227510000000  0.4647470000000  0.4761270000000 1.0
C      1  0.5100360000000  0.4745310000000  0.5062860000000 1.0
C      1  0.4353050000000  0.5270760000000  0.4853310000000 1.0
C      1  0.4367880000000  0.5272480000000  0.5181310000000 1.0
C      1  0.4408220000000  0.4956980000000  0.5297550000000 1.0
C      1  0.4399050000000  0.4743500000000  0.5032950000000 1.0
C      1  0.4330940000000  0.4944300000000  0.4760930000000 1.0
C      1  0.5607860000000  0.4770490000000  0.4752020000000 1.0
C      1  0.5525390000000  0.4713260000000  0.5387620000000 1.0
C      1  0.5662480000000  0.5023020000000  0.5343780000000 1.0
C      1  0.5570330000000  0.5237300000000  0.5093400000000 1.0
C      1  0.5570580000000  0.5108350000000  0.4778560000000 1.0
C      1  0.4716730000000  0.5331060000000  0.5365390000000 1.0
C      1  0.4734240000000  0.4731670000000  0.5340640000000 1.0
C      1  0.4728470000000  0.4522490000000  0.4610250000000 1.0
C      1  0.4672750000000  0.4914450000000  0.4559450000000 1.0
C      1  0.4716700000000  0.5426320000000  0.4809610000000 1.0
C      1  0.5202500000000  0.4668310000000  0.5350750000000 1.0
C      1  0.5317340000000  0.5203810000000  0.5423230000000 1.0
C      1  0.5222170000000  0.5579290000000  0.4829330000000 1.0
C      1  0.5274460000000  0.4961590000000  0.4344130000000 1.0
C      1  0.5330440000000  0.4391650000000  0.4897470000000 1.0
C      1  0.5487490000000  0.5024400000000  0.5635460000000 1.0
C      1  0.5494600000000  0.4457930000000  0.5182730000000 1.0
C      1  0.5466630000000  0.4716080000000  0.4448770000000 1.0
C      1  0.5409190000000  0.5373360000000  0.4634650000000 1.0
C      1  0.5417880000000  0.5469000000000  0.5290310000000 1.0
C      1  0.4577410000000  0.5105770000000  0.5553830000000 1.0
C      1  0.4600370000000  0.5506450000000  0.5098270000000 1.0
C      1  0.4559460000000  0.5222610000000  0.4587230000000 1.0
C      1  0.4454220000000  0.4670780000000  0.4600920000000 1.0
C      1  0.4585000000000  0.4484670000000  0.5164380000000 1.0
C      1  0.5081990000000  0.5438030000000  0.4553650000000 1.0
C      1  0.5147420000000  0.5619390000000  0.5149020000000 1.0
C      1  0.5168190000000  0.5123230000000  0.5703540000000 1.0
C      1  0.5185200000000  0.4314930000000  0.5169490000000 1.0
C      1  0.5156690000000  0.4595410000000  0.4446520000000 1.0
C      1  0.4914480000000  0.4482710000000  0.4414720000000 1.0
C      1  0.4915820000000  0.4405070000000  0.5161740000000 1.0
C      1  0.4907070000000  0.5112150000000  0.5637590000000 1.0
C      1  0.4865220000000  0.5704760000000  0.5177300000000 1.0
C      1  0.4795510000000  0.5403640000000  0.4422190000000 1.0
END
