TITL C-1154802-8274-564 0.000135890030933059 125000 -323.894373317086 0 0 60 (C1) n - 1
REM
REM in /home/nfs/bkarasulu/CARBON/AIRSS/Generating-Clusters/AIREBO/Higher-Symm/Only-C60
REM
REM
REM
REM
REM
REM ./C.cell (28575a23ae977d3b5fae324c64b13b57)
REM
REM compiler GCC version 9.2.1 20190827 (Red Hat 9.2.1-1)
REM options -cpp -mtune=generic -march=x86-64 -g -O0 -fpre-include=/usr/include/finclude/math-vector-fortran.h
REM seed 1540603164 -1293727 -1562765038 541316696 -2090110073 -940214969 -1504548632 2008448942 1889144874 1006336268 1736981831 351105907 401760383 -690815002 -339045670 1219368133 446815429 1635420661 845391813 259326456 917149719 484477377 -883778006 17108387 -463483780 -581667991 -1363915197 -845281722 1022055726 1563918310 181195625 1484904730 139498607
REM
CELL 1.54180   50.00000   50.00000   50.00000   90.00000   90.00000   90.00000
LATT -1
SFAC C  
C      1  0.5283210000000  0.5319880000000  0.5022290000000 1.0
C      1  0.4737880000000  0.5317910000000  0.5034840000000 1.0
C      1  0.4492480000000  0.4848800000000  0.5050520000000 1.0
C      1  0.4996370000000  0.4609940000000  0.5057080000000 1.0
C      1  0.5485610000000  0.4832690000000  0.5059690000000 1.0
C      1  0.5571010000000  0.4524490000000  0.5102670000000 1.0
C      1  0.5612970000000  0.5310940000000  0.5083380000000 1.0
C      1  0.4838910000000  0.5631870000000  0.5117850000000 1.0
C      1  0.4242640000000  0.5038310000000  0.5130280000000 1.0
C      1  0.4730700000000  0.4406210000000  0.5116590000000 1.0
C      1  0.5396530000000  0.5121910000000  0.5563850000000 1.0
C      1  0.4761760000000  0.5283100000000  0.5432410000000 1.0
C      1  0.4679680000000  0.5024050000000  0.5531430000000 1.0
C      1  0.4931260000000  0.4795470000000  0.5559810000000 1.0
C      1  0.5274340000000  0.4804940000000  0.5586970000000 1.0
C      1  0.4936540000000  0.4729770000000  0.4404680000000 1.0
C      1  0.5223940000000  0.4913610000000  0.4429030000000 1.0
C      1  0.5215610000000  0.5225460000000  0.4386430000000 1.0
C      1  0.4924520000000  0.5339970000000  0.4410020000000 1.0
C      1  0.4697290000000  0.4884830000000  0.4456380000000 1.0
C      1  0.5615020000000  0.4591610000000  0.4771320000000 1.0
C      1  0.5572920000000  0.5426820000000  0.4769450000000 1.0
C      1  0.4732690000000  0.5646430000000  0.4804380000000 1.0
C      1  0.4235890000000  0.5005830000000  0.4790990000000 1.0
C      1  0.4840940000000  0.4347640000000  0.4800220000000 1.0
C      1  0.5203880000000  0.5097230000000  0.5335520000000 1.0
C      1  0.5007610000000  0.5283420000000  0.5218400000000 1.0
C      1  0.4714590000000  0.5020480000000  0.5133010000000 1.0
C      1  0.4904520000000  0.4851760000000  0.5253380000000 1.0
C      1  0.5224270000000  0.4846600000000  0.5155700000000 1.0
C      1  0.5220230000000  0.4469040000000  0.4758020000000 1.0
C      1  0.5612300000000  0.4991140000000  0.4813120000000 1.0
C      1  0.5197900000000  0.5559170000000  0.4812080000000 1.0
C      1  0.4518270000000  0.5309440000000  0.4794290000000 1.0
C      1  0.4540240000000  0.4609470000000  0.4829650000000 1.0
C      1  0.4830940000000  0.4785710000000  0.4817600000000 1.0
C      1  0.5149360000000  0.4787660000000  0.4735730000000 1.0
C      1  0.5281320000000  0.5068960000000  0.4806330000000 1.0
C      1  0.5022170000000  0.5275320000000  0.4729270000000 1.0
C      1  0.4759690000000  0.5095060000000  0.4706630000000 1.0
C      1  0.4366440000000  0.5511560000000  0.5238310000000 1.0
C      1  0.4325260000000  0.4684580000000  0.5297190000000 1.0
C      1  0.5125820000000  0.4347690000000  0.5230600000000 1.0
C      1  0.5735190000000  0.4835760000000  0.5290610000000 1.0
C      1  0.5341490000000  0.5647470000000  0.5318880000000 1.0
C      1  0.5509820000000  0.4797190000000  0.4565680000000 1.0
C      1  0.5365490000000  0.5395190000000  0.4565620000000 1.0
C      1  0.4709200000000  0.5468210000000  0.4572790000000 1.0
C      1  0.4437740000000  0.4865540000000  0.4654690000000 1.0
C      1  0.4972870000000  0.4479770000000  0.4553110000000 1.0
C      1  0.5804250000000  0.5063700000000  0.5085540000000 1.0
C      1  0.5144770000000  0.5678000000000  0.5126310000000 1.0
C      1  0.4319270000000  0.5329250000000  0.5039390000000 1.0
C      1  0.4423730000000  0.4463450000000  0.5113730000000 1.0
C      1  0.5315600000000  0.4375870000000  0.5000880000000 1.0
C      1  0.4878970000000  0.4488770000000  0.5417080000000 1.0
C      1  0.5490290000000  0.4654350000000  0.5414990000000 1.0
C      1  0.5471520000000  0.5389750000000  0.5367810000000 1.0
C      1  0.4627740000000  0.5532860000000  0.5350830000000 1.0
C      1  0.4416550000000  0.4958060000000  0.5424680000000 1.0
END
