TITL C-1154830-9999-668 0.00155380279200084 125000 -319.439167718044 0 0 60 (C1) n - 1
REM
REM in /home/nfs/bkarasulu/CARBON/AIRSS/Generating-Clusters/AIREBO/Higher-Symm/Only-C60
REM
REM
REM
REM
REM
REM ./C.cell (28575a23ae977d3b5fae324c64b13b57)
REM
REM compiler GCC version 9.2.1 20190827 (Red Hat 9.2.1-1)
REM options -cpp -mtune=generic -march=x86-64 -g -O0 -fpre-include=/usr/include/finclude/math-vector-fortran.h
REM seed 1675966821 1428891989 -1036130860 -1403822223 1976994228 -1601746180 2019367071 249864836 -916191688 -1246242153 -1339085792 -1993159532 460437534 1836718677 150907285 479651237 307916190 485526086 -1849944602 1035986571 -2099288308 -1121089436 -1455430475 73349640 727141041 550650838 901251956 1993641114 -530567259 1125303807 1848626160 -1757559529 -907492533
REM
CELL 1.54180   50.00000   50.00000   50.00000   90.00000   90.00000   90.00000
LATT -1
SFAC C  
C      1  0.5497370000000  0.4515640000000  0.5110820000000 1.0
C      1  0.4645780000000  0.4405360000000  0.5443520000000 1.0
C      1  0.4841400000000  0.4456990000000  0.4456890000000 1.0
C      1  0.5130530000000  0.4650190000000  0.4780240000000 1.0
C      1  0.5040250000000  0.4663260000000  0.5238740000000 1.0
C      1  0.4842290000000  0.4603260000000  0.4963490000000 1.0
C      1  0.4476870000000  0.4585610000000  0.5220470000000 1.0
C      1  0.5067000000000  0.4679980000000  0.4387780000000 1.0
C      1  0.5419780000000  0.4716670000000  0.5354500000000 1.0
C      1  0.5225100000000  0.4645500000000  0.5592210000000 1.0
C      1  0.4389940000000  0.4556260000000  0.4909760000000 1.0
C      1  0.5380080000000  0.4654450000000  0.4344310000000 1.0
C      1  0.4651360000000  0.4533100000000  0.4690930000000 1.0
C      1  0.5430700000000  0.4593080000000  0.4858880000000 1.0
C      1  0.4916440000000  0.4534820000000  0.5515230000000 1.0
C      1  0.4899090000000  0.5562790000000  0.5291400000000 1.0
C      1  0.4846290000000  0.5640980000000  0.4811720000000 1.0
C      1  0.5303170000000  0.5555220000000  0.4941370000000 1.0
C      1  0.5593500000000  0.4793910000000  0.4747680000000 1.0
C      1  0.4866420000000  0.4796830000000  0.5682700000000 1.0
C      1  0.4488840000000  0.4780250000000  0.4595590000000 1.0
C      1  0.5531270000000  0.5228750000000  0.4956840000000 1.0
C      1  0.4645180000000  0.5118500000000  0.5392960000000 1.0
C      1  0.4733900000000  0.5199400000000  0.4555710000000 1.0
C      1  0.5691740000000  0.4850070000000  0.5208850000000 1.0
C      1  0.4424220000000  0.4728570000000  0.5514720000000 1.0
C      1  0.4818360000000  0.4835730000000  0.4256460000000 1.0
C      1  0.5127890000000  0.4335010000000  0.4887610000000 1.0
C      1  0.5027410000000  0.4332470000000  0.5191890000000 1.0
C      1  0.4814510000000  0.4264320000000  0.4959460000000 1.0
C      1  0.4626900000000  0.5414360000000  0.4416750000000 1.0
C      1  0.5682670000000  0.5421580000000  0.4781750000000 1.0
C      1  0.4755760000000  0.5869520000000  0.5691660000000 1.0
C      1  0.4389250000000  0.5203680000000  0.5278800000000 1.0
C      1  0.5344230000000  0.5321500000000  0.4194380000000 1.0
C      1  0.5458340000000  0.5253730000000  0.5594780000000 1.0
C      1  0.5331220000000  0.5102550000000  0.4456930000000 1.0
C      1  0.5283410000000  0.5039570000000  0.5558730000000 1.0
C      1  0.4376220000000  0.5069000000000  0.4977980000000 1.0
C      1  0.4620910000000  0.4845360000000  0.5054200000000 1.0
C      1  0.5103650000000  0.4926990000000  0.4618910000000 1.0
C      1  0.5192230000000  0.4948190000000  0.5258370000000 1.0
C      1  0.4755390000000  0.5157620000000  0.5067630000000 1.0
C      1  0.4968760000000  0.5181720000000  0.4803730000000 1.0
C      1  0.5207130000000  0.5177880000000  0.5046450000000 1.0
C      1  0.4731000000000  0.5496190000000  0.5045990000000 1.0
C      1  0.5099700000000  0.5486660000000  0.4729390000000 1.0
C      1  0.5169940000000  0.5459960000000  0.5234530000000 1.0
C      1  0.5514510000000  0.4856070000000  0.4483420000000 1.0
C      1  0.5135430000000  0.4895770000000  0.5769360000000 1.0
C      1  0.4288060000000  0.4837000000000  0.4801280000000 1.0
C      1  0.4435960000000  0.5396050000000  0.5038420000000 1.0
C      1  0.5216510000000  0.5410690000000  0.4466760000000 1.0
C      1  0.5437620000000  0.5469570000000  0.5422160000000 1.0
C      1  0.4632480000000  0.4915760000000  0.5583270000000 1.0
C      1  0.4646340000000  0.4952740000000  0.4447570000000 1.0
C      1  0.5669110000000  0.4965680000000  0.4958960000000 1.0
C      1  0.4775610000000  0.5874690000000  0.4722690000000 1.0
C      1  0.5554000000000  0.5506100000000  0.5147270000000 1.0
C      1  0.4831010000000  0.5726840000000  0.5485130000000 1.0
END
