TITL C-1154810-7815-573 -5.52677102089546e-07 125000 -408.48027627481 0 0 60 (Ih) n - 1
REM
REM in /home/nfs/bkarasulu/CARBON/AIRSS/Generating-Clusters/AIREBO/Higher-Symm/Only-C60
REM
REM
REM
REM
REM
REM ./C.cell (28575a23ae977d3b5fae324c64b13b57)
REM
REM compiler GCC version 9.2.1 20190827 (Red Hat 9.2.1-1)
REM options -cpp -mtune=generic -march=x86-64 -g -O0 -fpre-include=/usr/include/finclude/math-vector-fortran.h
REM seed 775263054 -207400233 -145039386 1204527633 383762501 -1343083881 555839226 2026658287 511252473 -1668044719 1856659875 -1682992764 -1164887839 495116672 1776997656 144171255 1499875167 -177932241 -1334996415 1707694891 -1659475171 1495839308 836386683 1570965002 1123498533 985309501 462653106 -1811706761 60171901 202260737 -496426942 -798499630 1852508135
REM
CELL 1.54180   50.00000   50.00000   50.00000   90.00000   90.00000   90.00000
LATT -1
SFAC C  
C      1  0.5228480000000  0.5266230000000  0.5616210000000 1.0
C      1  0.5291080000000  0.5594900000000  0.5253320000000 1.0
C      1  0.5604630000000  0.5216620000000  0.5300490000000 1.0
C      1  0.4751130000000  0.4704570000000  0.5594630000000 1.0
C      1  0.5239330000000  0.4725750000000  0.4391470000000 1.0
C      1  0.4781060000000  0.5303450000000  0.4397690000000 1.0
C      1  0.4701040000000  0.4393820000000  0.5214420000000 1.0
C      1  0.5278690000000  0.4395340000000  0.4756040000000 1.0
C      1  0.4729190000000  0.5615940000000  0.4776230000000 1.0
C      1  0.4385780000000  0.4769640000000  0.5269190000000 1.0
C      1  0.5606390000000  0.4762620000000  0.4719400000000 1.0
C      1  0.4403200000000  0.5251120000000  0.4710920000000 1.0
C      1  0.5248870000000  0.5295430000000  0.4405370000000 1.0
C      1  0.5298960000000  0.5606180000000  0.4785580000000 1.0
C      1  0.5614220000000  0.5230360000000  0.4730810000000 1.0
C      1  0.4771520000000  0.4733770000000  0.4383790000000 1.0
C      1  0.5218940000000  0.4696550000000  0.5602310000000 1.0
C      1  0.4760670000000  0.5274250000000  0.5608530000000 1.0
C      1  0.4708920000000  0.4405100000000  0.4746680000000 1.0
C      1  0.5270810000000  0.4384060000000  0.5223770000000 1.0
C      1  0.4721310000000  0.5604660000000  0.5243960000000 1.0
C      1  0.4395370000000  0.4783380000000  0.4699510000000 1.0
C      1  0.5596800000000  0.4748880000000  0.5289080000000 1.0
C      1  0.4393610000000  0.5237380000000  0.5280600000000 1.0
C      1  0.5472110000000  0.5149150000000  0.4492390000000 1.0
C      1  0.5128120000000  0.4467700000000  0.5450600000000 1.0
C      1  0.4486490000000  0.5466290000000  0.5147260000000 1.0
C      1  0.4545360000000  0.4875870000000  0.4470190000000 1.0
C      1  0.5449800000000  0.4835050000000  0.5522750000000 1.0
C      1  0.4532730000000  0.5139930000000  0.5514670000000 1.0
C      1  0.4856360000000  0.5510070000000  0.5471170000000 1.0
C      1  0.5161000000000  0.5527350000000  0.4554150000000 1.0
C      1  0.4854520000000  0.4494890000000  0.4524090000000 1.0
C      1  0.5508640000000  0.4526740000000  0.5141810000000 1.0
C      1  0.4475930000000  0.4551500000000  0.4835690000000 1.0
C      1  0.5528940000000  0.5455480000000  0.4875230000000 1.0
C      1  0.5454640000000  0.5124130000000  0.5529810000000 1.0
C      1  0.5143640000000  0.4489930000000  0.4528830000000 1.0
C      1  0.4491360000000  0.5473260000000  0.4858190000000 1.0
C      1  0.4527890000000  0.4850850000000  0.5507610000000 1.0
C      1  0.5467270000000  0.4860070000000  0.4485330000000 1.0
C      1  0.4550200000000  0.5164950000000  0.4477250000000 1.0
C      1  0.4871880000000  0.5532300000000  0.4549400000000 1.0
C      1  0.5145480000000  0.5505110000000  0.5475910000000 1.0
C      1  0.4839000000000  0.4472650000000  0.5445850000000 1.0
C      1  0.5513510000000  0.4533710000000  0.4852740000000 1.0
C      1  0.4471060000000  0.4544520000000  0.5124770000000 1.0
C      1  0.5524070000000  0.5448500000000  0.5164310000000 1.0
C      1  0.5014050000000  0.5157060000000  0.4308670000000 1.0
C      1  0.4871310000000  0.5697150000000  0.5014650000000 1.0
C      1  0.5128690000000  0.4302850000000  0.4985350000000 1.0
C      1  0.4985950000000  0.4842940000000  0.5691330000000 1.0
C      1  0.5009350000000  0.4876450000000  0.4301820000000 1.0
C      1  0.4848050000000  0.4307660000000  0.4980740000000 1.0
C      1  0.4307510000000  0.5015290000000  0.4848280000000 1.0
C      1  0.4990650000000  0.5123550000000  0.5698180000000 1.0
C      1  0.5151950000000  0.5692340000000  0.5019260000000 1.0
C      1  0.5697220000000  0.4991470000000  0.4871110000000 1.0
C      1  0.4302780000000  0.5008530000000  0.5128890000000 1.0
C      1  0.5692490000000  0.4984710000000  0.5151720000000 1.0
END
