TITL C-1154808-8168-231 -0.0500480633687957 125000 -344.448417106651 0 0 60 (C1) n - 1
REM
REM in /home/nfs/bkarasulu/CARBON/AIRSS/Generating-Clusters/AIREBO/Higher-Symm/Only-C60
REM
REM
REM
REM
REM
REM ./C.cell (28575a23ae977d3b5fae324c64b13b57)
REM
REM compiler GCC version 9.2.1 20190827 (Red Hat 9.2.1-1)
REM options -cpp -mtune=generic -march=x86-64 -g -O0 -fpre-include=/usr/include/finclude/math-vector-fortran.h
REM seed -1972863006 320947580 -1028976764 1554293539 1304673057 1210481450 -149087788 -598498685 435419384 65323260 667852883 410204132 646889935 -1133646356 -175472044 1222088894 -1729989280 -1833421242 1868080624 2013550178 -1384718337 -1086252607 1573686469 -1836519349 -943960103 -531165490 -2023697703 -852481472 116806869 852590252 -693542368 -1358947298 -634918485
REM
CELL 1.54180   50.00000   50.00000   50.00000   90.00000   90.00000   90.00000
LATT -1
SFAC C  
C      1  0.4574590000000  0.5639110000000  0.5083980000000 1.0
C      1  0.5376090000000  0.4392120000000  0.4911870000000 1.0
C      1  0.5205950000000  0.4920580000000  0.4302890000000 1.0
C      1  0.4793060000000  0.5144900000000  0.5713160000000 1.0
C      1  0.4926410000000  0.4637540000000  0.4780080000000 1.0
C      1  0.5026930000000  0.5408150000000  0.5225600000000 1.0
C      1  0.6065940000000  0.4766750000000  0.5068460000000 1.0
C      1  0.3928150000000  0.5318480000000  0.5068950000000 1.0
C      1  0.4132400000000  0.5128390000000  0.5087320000000 1.0
C      1  0.5842150000000  0.4895710000000  0.4974250000000 1.0
C      1  0.5097270000000  0.4614100000000  0.6287330000000 1.0
C      1  0.4885180000000  0.5385380000000  0.3717360000000 1.0
C      1  0.4217420000000  0.5055390000000  0.5357260000000 1.0
C      1  0.5775550000000  0.4925360000000  0.4682890000000 1.0
C      1  0.4322240000000  0.5016740000000  0.4908750000000 1.0
C      1  0.5636770000000  0.5022250000000  0.5127240000000 1.0
C      1  0.5198310000000  0.4625070000000  0.4966890000000 1.0
C      1  0.4757680000000  0.5409980000000  0.5034740000000 1.0
C      1  0.5817480000000  0.4331470000000  0.4363600000000 1.0
C      1  0.4052540000000  0.5625730000000  0.5425920000000 1.0
C      1  0.4639270000000  0.5186070000000  0.5497180000000 1.0
C      1  0.5342860000000  0.4855340000000  0.4524360000000 1.0
C      1  0.4710210000000  0.5164110000000  0.5223700000000 1.0
C      1  0.5255470000000  0.4876310000000  0.4791360000000 1.0
C      1  0.5017590000000  0.5583970000000  0.5428120000000 1.0
C      1  0.4928840000000  0.4471330000000  0.4570340000000 1.0
C      1  0.4899420000000  0.5396620000000  0.3978830000000 1.0
C      1  0.5079030000000  0.4610550000000  0.6025890000000 1.0
C      1  0.4355930000000  0.4316690000000  0.5510030000000 1.0
C      1  0.5792070000000  0.5686780000000  0.4649310000000 1.0
C      1  0.4357690000000  0.4068390000000  0.5593900000000 1.0
C      1  0.5855740000000  0.5937620000000  0.4607780000000 1.0
C      1  0.5621270000000  0.4469820000000  0.4499020000000 1.0
C      1  0.4315730000000  0.5539230000000  0.5478820000000 1.0
C      1  0.5038820000000  0.4679090000000  0.5240560000000 1.0
C      1  0.4924270000000  0.5351430000000  0.4766460000000 1.0
C      1  0.4360040000000  0.5257320000000  0.5508420000000 1.0
C      1  0.5612630000000  0.4754290000000  0.4522690000000 1.0
C      1  0.5398220000000  0.4341620000000  0.4631890000000 1.0
C      1  0.4540520000000  0.5682130000000  0.5364760000000 1.0
C      1  0.4578320000000  0.4916930000000  0.5071690000000 1.0
C      1  0.5377140000000  0.5116400000000  0.4952990000000 1.0
C      1  0.4789730000000  0.5730080000000  0.5497990000000 1.0
C      1  0.5144290000000  0.4307110000000  0.4504520000000 1.0
C      1  0.5062110000000  0.5155730000000  0.4999640000000 1.0
C      1  0.4897270000000  0.4881300000000  0.5015840000000 1.0
C      1  0.5721700000000  0.5438710000000  0.4715940000000 1.0
C      1  0.4360450000000  0.4559780000000  0.5401330000000 1.0
C      1  0.4425430000000  0.5755850000000  0.4887380000000 1.0
C      1  0.5531620000000  0.4275980000000  0.5104030000000 1.0
C      1  0.5077470000000  0.4626630000000  0.5760030000000 1.0
C      1  0.4895790000000  0.5389380000000  0.4245060000000 1.0
C      1  0.5634180000000  0.5183900000000  0.4761920000000 1.0
C      1  0.4382810000000  0.4814710000000  0.5309570000000 1.0
C      1  0.6017070000000  0.4199090000000  0.4257170000000 1.0
C      1  0.3906510000000  0.5557340000000  0.5202770000000 1.0
C      1  0.4287270000000  0.4953500000000  0.4645630000000 1.0
C      1  0.6265110000000  0.4622170000000  0.5158560000000 1.0
C      1  0.5049600000000  0.4643300000000  0.5495740000000 1.0
C      1  0.4918420000000  0.5380160000000  0.4510220000000 1.0
END
