TITL C-1154825-9328-9 0.00130797903744674 125000 -342.615998379562 0 0 60 (C1) n - 1
REM
REM in /home/nfs/bkarasulu/CARBON/AIRSS/Generating-Clusters/AIREBO/Higher-Symm/Only-C60
REM
REM
REM
REM
REM
REM ./C.cell (28575a23ae977d3b5fae324c64b13b57)
REM
REM compiler GCC version 9.2.1 20190827 (Red Hat 9.2.1-1)
REM options -cpp -mtune=generic -march=x86-64 -g -O0 -fpre-include=/usr/include/finclude/math-vector-fortran.h
REM seed 600183423 1588555201 -1750324833 1713055730 697590964 892092010 -338238051 575061477 1244790591 -93027631 1714717397 1975814528 767788598 -2106762787 301559487 1083482067 426240097 339115464 1151449432 -909848101 -1216765368 -976219201 2102888185 158914866 -171034097 1001740181 -997670118 922467245 -447399650 1770130765 -770374939 1111217782 1160439381
REM
CELL 1.54180   50.00000   50.00000   50.00000   90.00000   90.00000   90.00000
LATT -1
SFAC C  
C      1  0.5158910000000  0.5734430000000  0.4694530000000 1.0
C      1  0.4265150000000  0.4708480000000  0.4655970000000 1.0
C      1  0.5630990000000  0.4642450000000  0.4598390000000 1.0
C      1  0.5157850000000  0.4213730000000  0.4727300000000 1.0
C      1  0.4281150000000  0.5339320000000  0.4639960000000 1.0
C      1  0.5594600000000  0.5464130000000  0.4711040000000 1.0
C      1  0.5633860000000  0.4753810000000  0.4883870000000 1.0
C      1  0.5134000000000  0.5581280000000  0.4971930000000 1.0
C      1  0.4360810000000  0.4626270000000  0.4941120000000 1.0
C      1  0.5421350000000  0.5397250000000  0.4983870000000 1.0
C      1  0.5004650000000  0.4289100000000  0.4989680000000 1.0
C      1  0.4451090000000  0.5385000000000  0.4895780000000 1.0
C      1  0.4399400000000  0.5165890000000  0.4464870000000 1.0
C      1  0.5191670000000  0.4412910000000  0.4554490000000 1.0
C      1  0.5450630000000  0.5420850000000  0.4480650000000 1.0
C      1  0.4437370000000  0.4877760000000  0.4530800000000 1.0
C      1  0.5180840000000  0.5542890000000  0.4494180000000 1.0
C      1  0.5376880000000  0.4626300000000  0.4473480000000 1.0
C      1  0.5320540000000  0.4685540000000  0.5478930000000 1.0
C      1  0.5101240000000  0.5440880000000  0.5496080000000 1.0
C      1  0.4561610000000  0.4851220000000  0.5510230000000 1.0
C      1  0.5345390000000  0.5266860000000  0.5581270000000 1.0
C      1  0.5064680000000  0.4542600000000  0.5528840000000 1.0
C      1  0.4569010000000  0.5185810000000  0.5570240000000 1.0
C      1  0.4426790000000  0.5501950000000  0.5212450000000 1.0
C      1  0.4845230000000  0.4200970000000  0.5271320000000 1.0
C      1  0.5643330000000  0.5294250000000  0.5187240000000 1.0
C      1  0.4367920000000  0.4484220000000  0.5250260000000 1.0
C      1  0.4935910000000  0.5732210000000  0.5158710000000 1.0
C      1  0.5743620000000  0.4737690000000  0.5206980000000 1.0
C      1  0.5225450000000  0.4873290000000  0.4414310000000 1.0
C      1  0.4975880000000  0.5317920000000  0.4571860000000 1.0
C      1  0.4749520000000  0.4837630000000  0.4634810000000 1.0
C      1  0.5265030000000  0.5152590000000  0.4503410000000 1.0
C      1  0.5009620000000  0.4702620000000  0.4611580000000 1.0
C      1  0.4727480000000  0.5148490000000  0.4506070000000 1.0
C      1  0.5879840000000  0.5203590000000  0.5058360000000 1.0
C      1  0.4496830000000  0.5704090000000  0.4984590000000 1.0
C      1  0.4686210000000  0.4193760000000  0.5000570000000 1.0
C      1  0.5889110000000  0.4929970000000  0.5004290000000 1.0
C      1  0.4446050000000  0.4312550000000  0.4998850000000 1.0
C      1  0.4722250000000  0.5860460000000  0.5025950000000 1.0
C      1  0.5199280000000  0.5087810000000  0.5358660000000 1.0
C      1  0.4747060000000  0.5113950000000  0.5317950000000 1.0
C      1  0.4974800000000  0.4659730000000  0.5221900000000 1.0
C      1  0.5244800000000  0.4836820000000  0.5212070000000 1.0
C      1  0.4723830000000  0.4822330000000  0.5211780000000 1.0
C      1  0.4977840000000  0.5261280000000  0.5234310000000 1.0
C      1  0.5113960000000  0.4602800000000  0.4916730000000 1.0
C      1  0.5285650000000  0.5126990000000  0.4827390000000 1.0
C      1  0.4675340000000  0.5161540000000  0.4856330000000 1.0
C      1  0.4989970000000  0.5279520000000  0.4909470000000 1.0
C      1  0.5346890000000  0.4852170000000  0.4929610000000 1.0
C      1  0.4595050000000  0.4841270000000  0.4937670000000 1.0
C      1  0.4554790000000  0.4550530000000  0.5450760000000 1.0
C      1  0.5586270000000  0.4844720000000  0.5419470000000 1.0
C      1  0.4866750000000  0.5602810000000  0.5407790000000 1.0
C      1  0.4601350000000  0.5467880000000  0.5430360000000 1.0
C      1  0.5584760000000  0.5146680000000  0.5429970000000 1.0
C      1  0.4801860000000  0.4398180000000  0.5468670000000 1.0
END
