TITL C-1154827-9204-170 -0.000271491780344923 125000 -326.506144046704 0 0 60 (C1) n - 1
REM
REM in /home/nfs/bkarasulu/CARBON/AIRSS/Generating-Clusters/AIREBO/Higher-Symm/Only-C60
REM
REM
REM
REM
REM
REM ./C.cell (28575a23ae977d3b5fae324c64b13b57)
REM
REM compiler GCC version 9.2.1 20190827 (Red Hat 9.2.1-1)
REM options -cpp -mtune=generic -march=x86-64 -g -O0 -fpre-include=/usr/include/finclude/math-vector-fortran.h
REM seed -84785290 -119608417 -1306824867 -753499312 -1354648607 1324723650 1495690272 1942920883 807416136 784797468 112953199 -289669800 853621926 -1770827745 -824883912 328150971 1158447414 -1981471509 -2097441204 -1317773083 1472491186 450033414 1089511893 -355993091 669803029 1744508276 -316044949 -1574770474 1746039123 -1690445575 1802747614 -415530366 857040901
REM
CELL 1.54180   50.00000   50.00000   50.00000   90.00000   90.00000   90.00000
LATT -1
SFAC C  
C      1  0.5005920000000  0.5618070000000  0.4358080000000 1.0
C      1  0.4192950000000  0.5454790000000  0.4828000000000 1.0
C      1  0.5668590000000  0.4857400000000  0.5059180000000 1.0
C      1  0.5359430000000  0.5111800000000  0.5607630000000 1.0
C      1  0.4588430000000  0.4766330000000  0.5356510000000 1.0
C      1  0.4907910000000  0.5701510000000  0.5409660000000 1.0
C      1  0.5083990000000  0.4630940000000  0.4388430000000 1.0
C      1  0.5636590000000  0.4667030000000  0.5327710000000 1.0
C      1  0.5304710000000  0.5066690000000  0.4204860000000 1.0
C      1  0.5264400000000  0.4452990000000  0.4610000000000 1.0
C      1  0.4744430000000  0.4609490000000  0.5595290000000 1.0
C      1  0.5589280000000  0.5265310000000  0.4872680000000 1.0
C      1  0.4761980000000  0.4546380000000  0.4635530000000 1.0
C      1  0.5300830000000  0.4655610000000  0.5380320000000 1.0
C      1  0.5608490000000  0.4532650000000  0.5011260000000 1.0
C      1  0.4880480000000  0.4902910000000  0.5592480000000 1.0
C      1  0.5373430000000  0.5320710000000  0.5402330000000 1.0
C      1  0.4377610000000  0.4878720000000  0.4779220000000 1.0
C      1  0.4565840000000  0.4615300000000  0.4830750000000 1.0
C      1  0.5073130000000  0.4955340000000  0.4402630000000 1.0
C      1  0.4762610000000  0.4711630000000  0.4391190000000 1.0
C      1  0.5527730000000  0.4617710000000  0.4690240000000 1.0
C      1  0.4895270000000  0.5183190000000  0.5425110000000 1.0
C      1  0.4495550000000  0.5737620000000  0.5077720000000 1.0
C      1  0.4747850000000  0.5047350000000  0.4443600000000 1.0
C      1  0.4310600000000  0.5338420000000  0.4606210000000 1.0
C      1  0.5151970000000  0.5420620000000  0.5163550000000 1.0
C      1  0.4891090000000  0.5328130000000  0.4416090000000 1.0
C      1  0.4811970000000  0.4475370000000  0.5200570000000 1.0
C      1  0.5328190000000  0.4382840000000  0.4936800000000 1.0
C      1  0.5002280000000  0.4532150000000  0.4765100000000 1.0
C      1  0.5086680000000  0.5471140000000  0.4654640000000 1.0
C      1  0.4717720000000  0.5251480000000  0.4896410000000 1.0
C      1  0.5125130000000  0.5075450000000  0.4682760000000 1.0
C      1  0.4513920000000  0.5263180000000  0.5132300000000 1.0
C      1  0.4605200000000  0.5093240000000  0.5344040000000 1.0
C      1  0.5725040000000  0.5018430000000  0.4818730000000 1.0
C      1  0.5505480000000  0.5242380000000  0.5134920000000 1.0
C      1  0.4963430000000  0.5976540000000  0.5267850000000 1.0
C      1  0.5491610000000  0.4860800000000  0.5573220000000 1.0
C      1  0.5043210000000  0.4704460000000  0.4976790000000 1.0
C      1  0.4940310000000  0.5503780000000  0.4928110000000 1.0
C      1  0.4886580000000  0.5471770000000  0.5536100000000 1.0
C      1  0.4479030000000  0.4521280000000  0.5147720000000 1.0
C      1  0.5111780000000  0.4337230000000  0.5118810000000 1.0
C      1  0.4909590000000  0.4393990000000  0.5591530000000 1.0
C      1  0.5110060000000  0.5080970000000  0.5745550000000 1.0
C      1  0.4352270000000  0.5492940000000  0.5061190000000 1.0
C      1  0.5359820000000  0.5303930000000  0.4669530000000 1.0
C      1  0.5106520000000  0.5109680000000  0.5193150000000 1.0
C      1  0.5142500000000  0.4367810000000  0.5429660000000 1.0
C      1  0.4675550000000  0.4845170000000  0.5042030000000 1.0
C      1  0.5370550000000  0.4937740000000  0.5201810000000 1.0
C      1  0.4528620000000  0.5120730000000  0.4665320000000 1.0
C      1  0.4947190000000  0.5018340000000  0.4935810000000 1.0
C      1  0.5452880000000  0.5068810000000  0.4454820000000 1.0
C      1  0.5604470000000  0.4876280000000  0.4601690000000 1.0
C      1  0.4985510000000  0.4747010000000  0.5309150000000 1.0
C      1  0.4803860000000  0.5729820000000  0.5095420000000 1.0
C      1  0.4241940000000  0.4730620000000  0.5022230000000 1.0
END
