TITL C-1154830-9999-665 0.00154157758561522 125000 -308.472325406656 0 0 60 (C1) n - 1
REM
REM in /home/nfs/bkarasulu/CARBON/AIRSS/Generating-Clusters/AIREBO/Higher-Symm/Only-C60
REM
REM
REM
REM
REM
REM ./C.cell (28575a23ae977d3b5fae324c64b13b57)
REM
REM compiler GCC version 9.2.1 20190827 (Red Hat 9.2.1-1)
REM options -cpp -mtune=generic -march=x86-64 -g -O0 -fpre-include=/usr/include/finclude/math-vector-fortran.h
REM seed 723864702 -1976517097 1407832270 -1442262628 1581194091 2136652369 22922403 -1727762200 1371540685 2122105046 1346882080 1459494130 1671636258 -768264175 -270382192 -1868107782 852949103 -1002629791 461645982 -244060218 -34694153 2024359908 1888243209 -563480732 606233060 851431988 -918251789 1422939275 -1656109225 -1938213105 -1459221130 -180479453 1804429270
REM
CELL 1.54180   50.00000   50.00000   50.00000   90.00000   90.00000   90.00000
LATT -1
SFAC C  
C      1  0.4611770000000  0.4506220000000  0.4777990000000 1.0
C      1  0.4332710000000  0.4958810000000  0.4831180000000 1.0
C      1  0.4630230000000  0.5518680000000  0.4856580000000 1.0
C      1  0.5204460000000  0.5636370000000  0.4807320000000 1.0
C      1  0.5627060000000  0.5185210000000  0.4773440000000 1.0
C      1  0.5578020000000  0.4693180000000  0.4801090000000 1.0
C      1  0.5107440000000  0.4409030000000  0.4755610000000 1.0
C      1  0.4807330000000  0.4692720000000  0.5673540000000 1.0
C      1  0.4609810000000  0.4909090000000  0.5666670000000 1.0
C      1  0.4703440000000  0.5171810000000  0.5724750000000 1.0
C      1  0.4863090000000  0.5335770000000  0.5559670000000 1.0
C      1  0.5172340000000  0.5307680000000  0.5556910000000 1.0
C      1  0.5277540000000  0.5015310000000  0.5707600000000 1.0
C      1  0.5082700000000  0.4752220000000  0.5646670000000 1.0
C      1  0.5366830000000  0.5142850000000  0.4559570000000 1.0
C      1  0.5247280000000  0.4843470000000  0.4587580000000 1.0
C      1  0.5044700000000  0.4617500000000  0.4499320000000 1.0
C      1  0.4742390000000  0.4643800000000  0.4495630000000 1.0
C      1  0.4643170000000  0.4922410000000  0.4476130000000 1.0
C      1  0.4914110000000  0.5366390000000  0.4747590000000 1.0
C      1  0.5183850000000  0.5373420000000  0.4564360000000 1.0
C      1  0.5417460000000  0.5107080000000  0.5102630000000 1.0
C      1  0.5239410000000  0.4875170000000  0.4922200000000 1.0
C      1  0.4987420000000  0.4557280000000  0.5179860000000 1.0
C      1  0.4697100000000  0.4732280000000  0.5151370000000 1.0
C      1  0.4586760000000  0.5049410000000  0.5205830000000 1.0
C      1  0.4953490000000  0.5434760000000  0.5078410000000 1.0
C      1  0.5249680000000  0.5398580000000  0.5147010000000 1.0
C      1  0.4844200000000  0.4383470000000  0.4927560000000 1.0
C      1  0.4419210000000  0.4684230000000  0.4963170000000 1.0
C      1  0.4466340000000  0.5233960000000  0.4946460000000 1.0
C      1  0.4902920000000  0.5720470000000  0.4932400000000 1.0
C      1  0.5471930000000  0.5452710000000  0.4910110000000 1.0
C      1  0.5674430000000  0.4920260000000  0.4981360000000 1.0
C      1  0.5326800000000  0.4546440000000  0.4914390000000 1.0
C      1  0.4485740000000  0.5368820000000  0.5249380000000 1.0
C      1  0.4990890000000  0.5791950000000  0.5253530000000 1.0
C      1  0.5674850000000  0.5330650000000  0.5142770000000 1.0
C      1  0.5700840000000  0.4834560000000  0.5308380000000 1.0
C      1  0.5362040000000  0.4420090000000  0.5189760000000 1.0
C      1  0.4768220000000  0.4306380000000  0.5248060000000 1.0
C      1  0.4322320000000  0.4683480000000  0.5282280000000 1.0
C      1  0.5246970000000  0.5682440000000  0.4487360000000 1.0
C      1  0.5676040000000  0.5177980000000  0.4453770000000 1.0
C      1  0.5563270000000  0.4748260000000  0.4511710000000 1.0
C      1  0.5165130000000  0.4316050000000  0.4450820000000 1.0
C      1  0.4534100000000  0.4394370000000  0.4482070000000 1.0
C      1  0.4344490000000  0.4942390000000  0.4552830000000 1.0
C      1  0.4703730000000  0.5508510000000  0.4521230000000 1.0
C      1  0.5250110000000  0.5035080000000  0.5369140000000 1.0
C      1  0.5469160000000  0.4810160000000  0.5486710000000 1.0
C      1  0.5214280000000  0.4598750000000  0.5409530000000 1.0
C      1  0.4687270000000  0.4551510000000  0.5441560000000 1.0
C      1  0.4452750000000  0.4880140000000  0.5431160000000 1.0
C      1  0.4766090000000  0.5420430000000  0.5318530000000 1.0
C      1  0.5154510000000  0.5599120000000  0.5382330000000 1.0
C      1  0.5014090000000  0.4948730000000  0.5243920000000 1.0
C      1  0.4914670000000  0.4895260000000  0.4946900000000 1.0
C      1  0.4740410000000  0.5224080000000  0.4417320000000 1.0
C      1  0.4816420000000  0.5060610000000  0.4723010000000 1.0
END
