TITL C-1154830-9999-160 0.000528310790346011 125000 -310.749535748236 0 0 60 (C1) n - 1
REM
REM in /home/nfs/bkarasulu/CARBON/AIRSS/Generating-Clusters/AIREBO/Higher-Symm/Only-C60
REM
REM
REM
REM
REM
REM ./C.cell (28575a23ae977d3b5fae324c64b13b57)
REM
REM compiler GCC version 9.2.1 20190827 (Red Hat 9.2.1-1)
REM options -cpp -mtune=generic -march=x86-64 -g -O0 -fpre-include=/usr/include/finclude/math-vector-fortran.h
REM seed 1920642108 -824263578 1512132879 553943063 -2098693270 2097145662 -1357625844 356072701 1932933337 1259122423 1808694389 -716859671 149362785 -1259916034 -638015162 -1521453518 1545256692 -685870157 2073756340 -562114597 194029493 1103681446 7511945 -793910342 -1306256865 -1651096620 386943558 681890033 -1644542959 -237810028 800618743 -822508272 -1456544191
REM
CELL 1.54180   50.00000   50.00000   50.00000   90.00000   90.00000   90.00000
LATT -1
SFAC C  
C      1  0.5067110000000  0.4250950000000  0.4839010000000 1.0
C      1  0.5085860000000  0.4250670000000  0.5155380000000 1.0
C      1  0.4803220000000  0.4257940000000  0.5016610000000 1.0
C      1  0.5201020000000  0.5579740000000  0.5483570000000 1.0
C      1  0.4578020000000  0.5483690000000  0.4965800000000 1.0
C      1  0.5208750000000  0.5468340000000  0.4657220000000 1.0
C      1  0.5757610000000  0.5377180000000  0.5302880000000 1.0
C      1  0.4397320000000  0.5277440000000  0.5388580000000 1.0
C      1  0.4950100000000  0.5298110000000  0.4268770000000 1.0
C      1  0.5505050000000  0.5196740000000  0.5435740000000 1.0
C      1  0.4335180000000  0.5282150000000  0.5079830000000 1.0
C      1  0.5244000000000  0.5294420000000  0.4373560000000 1.0
C      1  0.4804100000000  0.5720760000000  0.4934810000000 1.0
C      1  0.5137860000000  0.5670510000000  0.4895860000000 1.0
C      1  0.5005470000000  0.5717620000000  0.5279760000000 1.0
C      1  0.5511850000000  0.5159960000000  0.4873540000000 1.0
C      1  0.4891160000000  0.5173830000000  0.5524280000000 1.0
C      1  0.4590280000000  0.5115670000000  0.4593610000000 1.0
C      1  0.4856540000000  0.4703860000000  0.5256170000000 1.0
C      1  0.4841180000000  0.4691460000000  0.4745590000000 1.0
C      1  0.5286940000000  0.4687700000000  0.4996700000000 1.0
C      1  0.5571310000000  0.4840980000000  0.4914170000000 1.0
C      1  0.4803510000000  0.4862800000000  0.5546910000000 1.0
C      1  0.4628870000000  0.4811220000000  0.4531260000000 1.0
C      1  0.4247650000000  0.5037860000000  0.4878310000000 1.0
C      1  0.5455950000000  0.5052750000000  0.4397380000000 1.0
C      1  0.5350760000000  0.5007980000000  0.5647630000000 1.0
C      1  0.4572840000000  0.5085470000000  0.4931830000000 1.0
C      1  0.5262730000000  0.5073490000000  0.4658710000000 1.0
C      1  0.5183430000000  0.5102280000000  0.5376340000000 1.0
C      1  0.4366690000000  0.4674510000000  0.4620620000000 1.0
C      1  0.5623720000000  0.4699530000000  0.4640550000000 1.0
C      1  0.5007560000000  0.4711580000000  0.5726590000000 1.0
C      1  0.5070760000000  0.4520970000000  0.4408390000000 1.0
C      1  0.5465900000000  0.4501230000000  0.5355710000000 1.0
C      1  0.4441200000000  0.4548410000000  0.5234240000000 1.0
C      1  0.4168000000000  0.4859080000000  0.4700330000000 1.0
C      1  0.5649570000000  0.4871900000000  0.4418600000000 1.0
C      1  0.5212710000000  0.4874580000000  0.5830420000000 1.0
C      1  0.5110060000000  0.5385820000000  0.5647570000000 1.0
C      1  0.4447700000000  0.5393610000000  0.4712530000000 1.0
C      1  0.5504080000000  0.5388930000000  0.4661230000000 1.0
C      1  0.4700540000000  0.4753330000000  0.4240840000000 1.0
C      1  0.5800850000000  0.4787150000000  0.5109160000000 1.0
C      1  0.4516580000000  0.4831480000000  0.5648030000000 1.0
C      1  0.4768430000000  0.5353740000000  0.4477090000000 1.0
C      1  0.5483810000000  0.5335700000000  0.5128120000000 1.0
C      1  0.4662150000000  0.5356060000000  0.5434040000000 1.0
C      1  0.4672870000000  0.4552350000000  0.5013270000000 1.0
C      1  0.5143950000000  0.4538500000000  0.4720890000000 1.0
C      1  0.5157810000000  0.4537970000000  0.5273420000000 1.0
C      1  0.4807690000000  0.4959910000000  0.5037810000000 1.0
C      1  0.5052400000000  0.4946180000000  0.4805280000000 1.0
C      1  0.5134930000000  0.4958750000000  0.5130100000000 1.0
C      1  0.4425880000000  0.4472140000000  0.4793780000000 1.0
C      1  0.5462080000000  0.4480740000000  0.4615720000000 1.0
C      1  0.5089290000000  0.4482840000000  0.5600810000000 1.0
C      1  0.4733440000000  0.5577340000000  0.5239250000000 1.0
C      1  0.4897430000000  0.5545750000000  0.4667460000000 1.0
C      1  0.5286210000000  0.5566330000000  0.5158320000000 1.0
END
