TITL C-1154802-8274-324 0.00199456190175593 125000 -308.138749196107 0 0 60 (C1) n - 1
REM
REM in /home/nfs/bkarasulu/CARBON/AIRSS/Generating-Clusters/AIREBO/Higher-Symm/Only-C60
REM
REM
REM
REM
REM
REM ./C.cell (28575a23ae977d3b5fae324c64b13b57)
REM
REM compiler GCC version 9.2.1 20190827 (Red Hat 9.2.1-1)
REM options -cpp -mtune=generic -march=x86-64 -g -O0 -fpre-include=/usr/include/finclude/math-vector-fortran.h
REM seed -2049859442 -1771005755 -1222449042 663899960 22511337 396495503 -1759413623 689478431 -2140265727 -422073078 1285244707 -1711913560 1204786655 -1390975981 1718840629 -1897580037 1344551431 1769073144 34621221 119293973 -1315384456 -1063125551 323487623 -42190485 1677068839 1628612914 23513560 -925307667 928051315 -1200067274 273902329 -1085934235 919722111
REM
CELL 1.54180   50.00000   50.00000   50.00000   90.00000   90.00000   90.00000
LATT -1
SFAC C  
C      1  0.5174990000000  0.5242460000000  0.5484220000000 1.0
C      1  0.5156260000000  0.4701890000000  0.4524520000000 1.0
C      1  0.4878350000000  0.5287010000000  0.4497540000000 1.0
C      1  0.4842420000000  0.4801450000000  0.5484260000000 1.0
C      1  0.5155580000000  0.5483850000000  0.5340750000000 1.0
C      1  0.5154850000000  0.4547370000000  0.4756310000000 1.0
C      1  0.4815630000000  0.4553030000000  0.5354770000000 1.0
C      1  0.4857930000000  0.5451580000000  0.4724010000000 1.0
C      1  0.5657530000000  0.5302970000000  0.4363070000000 1.0
C      1  0.5641000000000  0.4701600000000  0.5499560000000 1.0
C      1  0.4418360000000  0.5167000000000  0.5614220000000 1.0
C      1  0.4368330000000  0.4639490000000  0.4442370000000 1.0
C      1  0.5549240000000  0.4353530000000  0.5230770000000 1.0
C      1  0.5638100000000  0.5599560000000  0.4785840000000 1.0
C      1  0.4354490000000  0.5491630000000  0.5311640000000 1.0
C      1  0.4360430000000  0.4488320000000  0.4811660000000 1.0
C      1  0.4837630000000  0.4588790000000  0.5042200000000 1.0
C      1  0.4831330000000  0.5327720000000  0.5039680000000 1.0
C      1  0.5159570000000  0.4697140000000  0.5061570000000 1.0
C      1  0.5154650000000  0.5433260000000  0.5026980000000 1.0
C      1  0.4838580000000  0.4965860000000  0.4530600000000 1.0
C      1  0.4840020000000  0.5064460000000  0.5268710000000 1.0
C      1  0.5180450000000  0.5017060000000  0.4538590000000 1.0
C      1  0.5167310000000  0.4971200000000  0.5279220000000 1.0
C      1  0.5351790000000  0.5308550000000  0.4500930000000 1.0
C      1  0.5324930000000  0.4751250000000  0.5485250000000 1.0
C      1  0.4707420000000  0.5242860000000  0.5526120000000 1.0
C      1  0.4679460000000  0.4667390000000  0.4494470000000 1.0
C      1  0.5267960000000  0.4475080000000  0.5295210000000 1.0
C      1  0.5330520000000  0.5510960000000  0.4746260000000 1.0
C      1  0.4679090000000  0.5491540000000  0.5295890000000 1.0
C      1  0.4668640000000  0.4485370000000  0.4764980000000 1.0
C      1  0.5454770000000  0.4774480000000  0.4914670000000 1.0
C      1  0.5460100000000  0.5385080000000  0.5104030000000 1.0
C      1  0.4556060000000  0.4705990000000  0.5077810000000 1.0
C      1  0.4541650000000  0.5259830000000  0.4874990000000 1.0
C      1  0.5451820000000  0.4975150000000  0.4694860000000 1.0
C      1  0.5471370000000  0.5116440000000  0.5233480000000 1.0
C      1  0.4561590000000  0.5086570000000  0.4627370000000 1.0
C      1  0.4541980000000  0.4948590000000  0.5193200000000 1.0
C      1  0.4980470000000  0.5224510000000  0.5678200000000 1.0
C      1  0.4957960000000  0.4630370000000  0.4348700000000 1.0
C      1  0.5087150000000  0.5345240000000  0.4330620000000 1.0
C      1  0.5060900000000  0.4816320000000  0.5649870000000 1.0
C      1  0.4937920000000  0.5643690000000  0.5402730000000 1.0
C      1  0.4963480000000  0.4346670000000  0.4751610000000 1.0
C      1  0.5005340000000  0.4357850000000  0.5423780000000 1.0
C      1  0.5044020000000  0.5658600000000  0.4717600000000 1.0
C      1  0.4236040000000  0.5213020000000  0.4924490000000 1.0
C      1  0.4233520000000  0.4722690000000  0.5026910000000 1.0
C      1  0.5747800000000  0.5291840000000  0.5007040000000 1.0
C      1  0.5752210000000  0.4748800000000  0.5041500000000 1.0
C      1  0.4242540000000  0.5042370000000  0.5179980000000 1.0
C      1  0.4270140000000  0.5050050000000  0.4672270000000 1.0
C      1  0.5750160000000  0.5032830000000  0.5169940000000 1.0
C      1  0.5771670000000  0.4965430000000  0.4777330000000 1.0
C      1  0.4251090000000  0.5246390000000  0.5405220000000 1.0
C      1  0.4189850000000  0.4756770000000  0.4691430000000 1.0
C      1  0.5705260000000  0.5281810000000  0.4685010000000 1.0
C      1  0.5730290000000  0.4561400000000  0.5273200000000 1.0
END
