TITL C-1154810-7815-559 0.000192368875497006 125000 -329.325158922617 0 0 60 (C1) n - 1
REM
REM in /home/nfs/bkarasulu/CARBON/AIRSS/Generating-Clusters/AIREBO/Higher-Symm/Only-C60
REM
REM
REM
REM
REM
REM ./C.cell (28575a23ae977d3b5fae324c64b13b57)
REM
REM compiler GCC version 9.2.1 20190827 (Red Hat 9.2.1-1)
REM options -cpp -mtune=generic -march=x86-64 -g -O0 -fpre-include=/usr/include/finclude/math-vector-fortran.h
REM seed 836819015 -1485982691 -380520973 632798858 130862119 -1137099057 -728761929 -752242128 2090055601 -780013870 209195571 1385922168 -1952130383 1066481660 50177308 1727259289 915895100 941681145 673486586 1853463282 1761115826 -860846137 92208973 -874999627 693063393 2089584019 -903785812 -1422564294 -1110865543 858108663 213474040 1528219955 -251789331
REM
CELL 1.54180   50.00000   50.00000   50.00000   90.00000   90.00000   90.00000
LATT -1
SFAC C  
C      1  0.5662830000000  0.4737070000000  0.5150160000000 1.0
C      1  0.5613260000000  0.5266810000000  0.5129000000000 1.0
C      1  0.5153370000000  0.5669290000000  0.5061570000000 1.0
C      1  0.4523090000000  0.5720810000000  0.5100740000000 1.0
C      1  0.4370970000000  0.4967290000000  0.5110400000000 1.0
C      1  0.4488410000000  0.4378230000000  0.5000600000000 1.0
C      1  0.5232850000000  0.4301620000000  0.5109270000000 1.0
C      1  0.4612940000000  0.4728520000000  0.5132400000000 1.0
C      1  0.4818020000000  0.4477720000000  0.5028280000000 1.0
C      1  0.5295050000000  0.4613630000000  0.5093070000000 1.0
C      1  0.5391410000000  0.4939250000000  0.5110220000000 1.0
C      1  0.5284800000000  0.5262890000000  0.5148600000000 1.0
C      1  0.4872980000000  0.5533200000000  0.5083920000000 1.0
C      1  0.4569040000000  0.5384860000000  0.5119080000000 1.0
C      1  0.4971220000000  0.4504140000000  0.4386720000000 1.0
C      1  0.5408120000000  0.4823860000000  0.4394990000000 1.0
C      1  0.5436360000000  0.5120960000000  0.4330690000000 1.0
C      1  0.5253480000000  0.5362380000000  0.4317430000000 1.0
C      1  0.4620320000000  0.5277330000000  0.4321580000000 1.0
C      1  0.4636240000000  0.5043950000000  0.4231200000000 1.0
C      1  0.4779450000000  0.4782750000000  0.4342370000000 1.0
C      1  0.5229180000000  0.5229680000000  0.5690450000000 1.0
C      1  0.4988300000000  0.5246540000000  0.5842450000000 1.0
C      1  0.4747040000000  0.5161010000000  0.5716970000000 1.0
C      1  0.4734620000000  0.4866910000000  0.5673520000000 1.0
C      1  0.4922380000000  0.4659310000000  0.5654250000000 1.0
C      1  0.5208080000000  0.4768890000000  0.5601300000000 1.0
C      1  0.5377510000000  0.4986480000000  0.5662470000000 1.0
C      1  0.4866830000000  0.4480930000000  0.5364860000000 1.0
C      1  0.5083070000000  0.4734530000000  0.5297060000000 1.0
C      1  0.5646070000000  0.4991650000000  0.5544160000000 1.0
C      1  0.5189240000000  0.5372580000000  0.5437420000000 1.0
C      1  0.4910240000000  0.5276860000000  0.5297610000000 1.0
C      1  0.4607970000000  0.5323760000000  0.5451370000000 1.0
C      1  0.4651700000000  0.4931790000000  0.5387880000000 1.0
C      1  0.4685440000000  0.5617730000000  0.4819950000000 1.0
C      1  0.4442560000000  0.5184530000000  0.4946040000000 1.0
C      1  0.4539870000000  0.4657220000000  0.4813190000000 1.0
C      1  0.5060520000000  0.4379120000000  0.4871450000000 1.0
C      1  0.5526160000000  0.4663530000000  0.4858500000000 1.0
C      1  0.5490300000000  0.5120790000000  0.4847460000000 1.0
C      1  0.5195830000000  0.5425430000000  0.4875190000000 1.0
C      1  0.5056640000000  0.5373190000000  0.4595110000000 1.0
C      1  0.4747480000000  0.5405740000000  0.4595820000000 1.0
C      1  0.4565330000000  0.5151270000000  0.4696530000000 1.0
C      1  0.4654930000000  0.4858760000000  0.4627110000000 1.0
C      1  0.5159690000000  0.4458360000000  0.4620010000000 1.0
C      1  0.5411310000000  0.4611750000000  0.4608180000000 1.0
C      1  0.5283000000000  0.5121820000000  0.4630200000000 1.0
C      1  0.4536760000000  0.5658460000000  0.5405020000000 1.0
C      1  0.4361840000000  0.5095240000000  0.5397810000000 1.0
C      1  0.4552050000000  0.4367800000000  0.5303540000000 1.0
C      1  0.5089710000000  0.4234850000000  0.5340210000000 1.0
C      1  0.5743750000000  0.4749760000000  0.5419140000000 1.0
C      1  0.5729660000000  0.5218110000000  0.5382430000000 1.0
C      1  0.5279730000000  0.5653690000000  0.5307360000000 1.0
C      1  0.4971830000000  0.4983940000000  0.4629300000000 1.0
C      1  0.4919720000000  0.4977410000000  0.5194840000000 1.0
C      1  0.5106370000000  0.4808040000000  0.4385240000000 1.0
C      1  0.4906410000000  0.4969760000000  0.4915330000000 1.0
END
