TITL C-1154804-8633-246 -0.000754723876360069 125000 -352.996269956381 0 0 60 (C1) n - 1
REM
REM in /home/nfs/bkarasulu/CARBON/AIRSS/Generating-Clusters/AIREBO/Higher-Symm/Only-C60
REM
REM
REM
REM
REM
REM ./C.cell (28575a23ae977d3b5fae324c64b13b57)
REM
REM compiler GCC version 9.2.1 20190827 (Red Hat 9.2.1-1)
REM options -cpp -mtune=generic -march=x86-64 -g -O0 -fpre-include=/usr/include/finclude/math-vector-fortran.h
REM seed -1249101081 1161018477 684345670 508366560 739322879 -1722250613 -1859145276 1020625835 -240281898 1578359817 2007405220 -1375611323 -1875163812 517140912 1222209991 614269981 2122745877 -1960545619 166632706 -353728263 -763533831 -151652216 -205887499 -1830867800 1860765481 1562298192 953145026 -1891631691 1979674673 -340979513 1493372761 -240020323 449689873
REM
CELL 1.54180   50.00000   50.00000   50.00000   90.00000   90.00000   90.00000
LATT -1
SFAC C  
C      1  0.4937570000000  0.5918780000000  0.4588150000000 1.0
C      1  0.4424250000000  0.5124070000000  0.4269110000000 1.0
C      1  0.4717810000000  0.4442660000000  0.4408300000000 1.0
C      1  0.5166710000000  0.4423240000000  0.4504400000000 1.0
C      1  0.5691560000000  0.4766930000000  0.4427010000000 1.0
C      1  0.5225160000000  0.5351410000000  0.4367930000000 1.0
C      1  0.4606250000000  0.5221500000000  0.6006930000000 1.0
C      1  0.4318170000000  0.5029310000000  0.5410050000000 1.0
C      1  0.4954560000000  0.4441190000000  0.5548580000000 1.0
C      1  0.5528190000000  0.4631940000000  0.5959880000000 1.0
C      1  0.5687730000000  0.5033700000000  0.5325500000000 1.0
C      1  0.5062550000000  0.5491840000000  0.5608400000000 1.0
C      1  0.5396250000000  0.5186390000000  0.5419220000000 1.0
C      1  0.4715770000000  0.5378640000000  0.5320610000000 1.0
C      1  0.4665310000000  0.5101690000000  0.5212620000000 1.0
C      1  0.4771100000000  0.4855600000000  0.5400500000000 1.0
C      1  0.5094000000000  0.4759950000000  0.5351680000000 1.0
C      1  0.5248260000000  0.4991230000000  0.5231810000000 1.0
C      1  0.5103710000000  0.4297520000000  0.4738900000000 1.0
C      1  0.5806420000000  0.4696140000000  0.4668730000000 1.0
C      1  0.5441670000000  0.5178480000000  0.4419270000000 1.0
C      1  0.4969160000000  0.5686490000000  0.4730240000000 1.0
C      1  0.4390830000000  0.5210140000000  0.4567690000000 1.0
C      1  0.4503920000000  0.4641110000000  0.4469350000000 1.0
C      1  0.4769210000000  0.4476070000000  0.5083070000000 1.0
C      1  0.5434100000000  0.4643520000000  0.4959300000000 1.0
C      1  0.5545120000000  0.5162390000000  0.4890580000000 1.0
C      1  0.5172790000000  0.5507210000000  0.5140940000000 1.0
C      1  0.4552330000000  0.5470270000000  0.4913110000000 1.0
C      1  0.4360560000000  0.4841000000000  0.4875280000000 1.0
C      1  0.5717330000000  0.4998390000000  0.5048690000000 1.0
C      1  0.5249350000000  0.5440580000000  0.5400040000000 1.0
C      1  0.4700700000000  0.5580790000000  0.5122020000000 1.0
C      1  0.4320930000000  0.5078420000000  0.5092860000000 1.0
C      1  0.4760100000000  0.4542770000000  0.5356420000000 1.0
C      1  0.5212590000000  0.4560510000000  0.5123260000000 1.0
C      1  0.5444540000000  0.4897570000000  0.4379120000000 1.0
C      1  0.4995840000000  0.5405420000000  0.4568030000000 1.0
C      1  0.4732050000000  0.5222080000000  0.4497300000000 1.0
C      1  0.4658560000000  0.4915320000000  0.4399970000000 1.0
C      1  0.4888920000000  0.4708090000000  0.4540100000000 1.0
C      1  0.5209730000000  0.4750630000000  0.4482260000000 1.0
C      1  0.4801240000000  0.5385300000000  0.5586990000000 1.0
C      1  0.4649100000000  0.5201500000000  0.5742750000000 1.0
C      1  0.4540620000000  0.4994780000000  0.5575040000000 1.0
C      1  0.5197880000000  0.4616570000000  0.5616570000000 1.0
C      1  0.5424360000000  0.4724280000000  0.5728890000000 1.0
C      1  0.5539640000000  0.4936050000000  0.5591810000000 1.0
C      1  0.4345500000000  0.5277180000000  0.4834170000000 1.0
C      1  0.4322090000000  0.4664150000000  0.4680030000000 1.0
C      1  0.5033980000000  0.4391070000000  0.4993630000000 1.0
C      1  0.5694720000000  0.4736240000000  0.4927110000000 1.0
C      1  0.5602040000000  0.5263570000000  0.4637130000000 1.0
C      1  0.4953640000000  0.5668280000000  0.5017450000000 1.0
C      1  0.5252930000000  0.5074510000000  0.4938500000000 1.0
C      1  0.5064180000000  0.5307260000000  0.4888120000000 1.0
C      1  0.4742250000000  0.5229420000000  0.4818420000000 1.0
C      1  0.4659680000000  0.4949790000000  0.4927870000000 1.0
C      1  0.4849440000000  0.4721460000000  0.4864970000000 1.0
C      1  0.5175040000000  0.4797580000000  0.4803390000000 1.0
END
