TITL C-1154803-8277-535 7.88106217492339e-05 125000 -328.52433485017 0 0 60 (C1) n - 1
REM
REM in /home/nfs/bkarasulu/CARBON/AIRSS/Generating-Clusters/AIREBO/Higher-Symm/Only-C60
REM
REM
REM
REM
REM
REM ./C.cell (28575a23ae977d3b5fae324c64b13b57)
REM
REM compiler GCC version 9.2.1 20190827 (Red Hat 9.2.1-1)
REM options -cpp -mtune=generic -march=x86-64 -g -O0 -fpre-include=/usr/include/finclude/math-vector-fortran.h
REM seed 2070276625 1834510878 -1294966132 1801292420 210856854 189662460 976565988 -1850833053 -109883475 2019045562 -450980599 -1210794548 897441144 871758525 569317552 -1863065730 -2078979631 690954578 1858439898 1606582946 1173400668 962066896 -160258927 -1909222224 815924193 2028301215 770390610 -1457636447 -149926543 -1799158192 1026001843 -1987822615 1084143280
REM
CELL 1.54180   50.00000   50.00000   50.00000   90.00000   90.00000   90.00000
LATT -1
SFAC C  
C      1  0.5291660000000  0.5404320000000  0.5359570000000 1.0
C      1  0.4970750000000  0.5474800000000  0.5365450000000 1.0
C      1  0.4687020000000  0.5405940000000  0.5220460000000 1.0
C      1  0.4554520000000  0.5107660000000  0.5316060000000 1.0
C      1  0.4507350000000  0.4805090000000  0.5209560000000 1.0
C      1  0.4740630000000  0.4609250000000  0.5301050000000 1.0
C      1  0.5072500000000  0.4534270000000  0.5304540000000 1.0
C      1  0.5362270000000  0.4602890000000  0.5209300000000 1.0
C      1  0.5467270000000  0.4895540000000  0.5335910000000 1.0
C      1  0.5497480000000  0.5198150000000  0.5226790000000 1.0
C      1  0.4544070000000  0.4413050000000  0.5140350000000 1.0
C      1  0.4931190000000  0.4322310000000  0.5099690000000 1.0
C      1  0.5552950000000  0.4385230000000  0.5322760000000 1.0
C      1  0.5701770000000  0.4793720000000  0.5120040000000 1.0
C      1  0.5786290000000  0.5289850000000  0.5288440000000 1.0
C      1  0.5436080000000  0.5582900000000  0.5137300000000 1.0
C      1  0.4938790000000  0.5701340000000  0.5129000000000 1.0
C      1  0.4486870000000  0.5621350000000  0.5326660000000 1.0
C      1  0.4347030000000  0.5240090000000  0.5093370000000 1.0
C      1  0.4238430000000  0.4713900000000  0.5334180000000 1.0
C      1  0.5257940000000  0.4495980000000  0.4703870000000 1.0
C      1  0.5676020000000  0.4729800000000  0.4497180000000 1.0
C      1  0.5505400000000  0.5072730000000  0.4727300000000 1.0
C      1  0.5457670000000  0.5540970000000  0.4559020000000 1.0
C      1  0.5034640000000  0.5683400000000  0.4516680000000 1.0
C      1  0.4686020000000  0.5504550000000  0.4590440000000 1.0
C      1  0.4371510000000  0.5237360000000  0.4487770000000 1.0
C      1  0.4528650000000  0.4948680000000  0.4715030000000 1.0
C      1  0.4462470000000  0.4452420000000  0.4512840000000 1.0
C      1  0.4982910000000  0.4399090000000  0.4641890000000 1.0
C      1  0.5624040000000  0.4797920000000  0.4809950000000 1.0
C      1  0.5430190000000  0.5240840000000  0.4930360000000 1.0
C      1  0.5323090000000  0.5529290000000  0.4843660000000 1.0
C      1  0.5014240000000  0.5598200000000  0.4828500000000 1.0
C      1  0.4720580000000  0.5447250000000  0.4912250000000 1.0
C      1  0.4472510000000  0.5243290000000  0.4801900000000 1.0
C      1  0.4501600000000  0.4757330000000  0.4908510000000 1.0
C      1  0.4524490000000  0.4454250000000  0.4816450000000 1.0
C      1  0.4817430000000  0.4345640000000  0.4856320000000 1.0
C      1  0.5393840000000  0.4612470000000  0.4907270000000 1.0
C      1  0.4690040000000  0.5309250000000  0.5756740000000 1.0
C      1  0.4589600000000  0.5085400000000  0.5621530000000 1.0
C      1  0.4650150000000  0.4829760000000  0.5721380000000 1.0
C      1  0.4821580000000  0.4652400000000  0.5592760000000 1.0
C      1  0.5088690000000  0.4550500000000  0.5633830000000 1.0
C      1  0.5320900000000  0.4655850000000  0.5742000000000 1.0
C      1  0.5428230000000  0.4892690000000  0.5637130000000 1.0
C      1  0.5377850000000  0.5139370000000  0.5761060000000 1.0
C      1  0.5211830000000  0.5332600000000  0.5649640000000 1.0
C      1  0.4933350000000  0.5418280000000  0.5683850000000 1.0
C      1  0.5334440000000  0.5347390000000  0.4381580000000 1.0
C      1  0.5071840000000  0.5449730000000  0.4326860000000 1.0
C      1  0.4793210000000  0.5367760000000  0.4362210000000 1.0
C      1  0.4601090000000  0.5163880000000  0.4293690000000 1.0
C      1  0.4590490000000  0.4905530000000  0.4445390000000 1.0
C      1  0.4639730000000  0.4633400000000  0.4375570000000 1.0
C      1  0.4907960000000  0.4544780000000  0.4379820000000 1.0
C      1  0.5211760000000  0.4634500000000  0.4417340000000 1.0
C      1  0.5427040000000  0.4809160000000  0.4352510000000 1.0
C      1  0.5410080000000  0.5084620000000  0.4457460000000 1.0
END
