TITL C-1154803-8277-146 -0.00215927377213526 125000 -325.515217859825 0 0 60 (C1) n - 1
REM
REM in /home/nfs/bkarasulu/CARBON/AIRSS/Generating-Clusters/AIREBO/Higher-Symm/Only-C60
REM
REM
REM
REM
REM
REM ./C.cell (28575a23ae977d3b5fae324c64b13b57)
REM
REM compiler GCC version 9.2.1 20190827 (Red Hat 9.2.1-1)
REM options -cpp -mtune=generic -march=x86-64 -g -O0 -fpre-include=/usr/include/finclude/math-vector-fortran.h
REM seed 210552247 -57148809 -821307131 1846339869 375589928 1959736686 -805222833 463422625 -313900997 941570850 -1805037321 1518232256 370178164 1122134983 -49988835 -294818677 1254227512 -2100634173 -372927244 -1429914061 1086824799 -72657164 -444406256 -389435259 -945635648 285790569 510586270 -255873044 -1468804982 1689121898 1603680250 1236407196 -917077656
REM
CELL 1.54180   50.00000   50.00000   50.00000   90.00000   90.00000   90.00000
LATT -1
SFAC C  
C      1  0.4938220000000  0.4340050000000  0.4332190000000 1.0
C      1  0.5187030000000  0.5246050000000  0.4406370000000 1.0
C      1  0.5104640000000  0.5307710000000  0.4792080000000 1.0
C      1  0.5305830000000  0.4798200000000  0.5376000000000 1.0
C      1  0.5771840000000  0.5166960000000  0.5052110000000 1.0
C      1  0.5019550000000  0.5336030000000  0.5109030000000 1.0
C      1  0.4539830000000  0.5330810000000  0.5343440000000 1.0
C      1  0.4647700000000  0.4718750000000  0.4586450000000 1.0
C      1  0.4783670000000  0.5257890000000  0.5743960000000 1.0
C      1  0.4901770000000  0.5067020000000  0.4841120000000 1.0
C      1  0.5039530000000  0.5513200000000  0.4529100000000 1.0
C      1  0.5230360000000  0.5232220000000  0.5583790000000 1.0
C      1  0.4309150000000  0.4910520000000  0.5272660000000 1.0
C      1  0.5405450000000  0.5211260000000  0.4664670000000 1.0
C      1  0.5052160000000  0.4766870000000  0.4895140000000 1.0
C      1  0.5032550000000  0.4944990000000  0.4373220000000 1.0
C      1  0.5037240000000  0.5734410000000  0.4938910000000 1.0
C      1  0.4447320000000  0.5055780000000  0.5467650000000 1.0
C      1  0.4463710000000  0.4860350000000  0.5063410000000 1.0
C      1  0.4889840000000  0.5638360000000  0.5517600000000 1.0
C      1  0.5704450000000  0.5113270000000  0.4758610000000 1.0
C      1  0.5631700000000  0.4998550000000  0.5260360000000 1.0
C      1  0.5103370000000  0.4349290000000  0.5244700000000 1.0
C      1  0.5125870000000  0.4159860000000  0.4960560000000 1.0
C      1  0.5016280000000  0.4250780000000  0.4651500000000 1.0
C      1  0.4621480000000  0.5261440000000  0.4527960000000 1.0
C      1  0.5026930000000  0.5626630000000  0.5223440000000 1.0
C      1  0.5216510000000  0.4924150000000  0.4642030000000 1.0
C      1  0.5306510000000  0.5748740000000  0.4843480000000 1.0
C      1  0.5171710000000  0.4505480000000  0.4515830000000 1.0
C      1  0.5317700000000  0.4461080000000  0.5419220000000 1.0
C      1  0.5173700000000  0.5491690000000  0.5501510000000 1.0
C      1  0.5554280000000  0.4733420000000  0.5150870000000 1.0
C      1  0.4737280000000  0.5202610000000  0.5106110000000 1.0
C      1  0.4463160000000  0.4996590000000  0.4514090000000 1.0
C      1  0.4661340000000  0.4398410000000  0.5162710000000 1.0
C      1  0.4648880000000  0.4632540000000  0.5631570000000 1.0
C      1  0.5450530000000  0.5511520000000  0.4817970000000 1.0
C      1  0.4620480000000  0.5462830000000  0.4741190000000 1.0
C      1  0.5288510000000  0.5160770000000  0.5134400000000 1.0
C      1  0.4681140000000  0.4586090000000  0.4877460000000 1.0
C      1  0.4888770000000  0.4667920000000  0.4407710000000 1.0
C      1  0.4510690000000  0.5415430000000  0.5011810000000 1.0
C      1  0.5039640000000  0.4693220000000  0.5584910000000 1.0
C      1  0.5185830000000  0.4494510000000  0.4952880000000 1.0
C      1  0.5484120000000  0.4587650000000  0.4933070000000 1.0
C      1  0.4643970000000  0.4906120000000  0.5600650000000 1.0
C      1  0.5454860000000  0.5077450000000  0.5500110000000 1.0
C      1  0.4862480000000  0.5621680000000  0.4743060000000 1.0
C      1  0.4601430000000  0.4970810000000  0.4809890000000 1.0
C      1  0.4833510000000  0.4315180000000  0.4903360000000 1.0
C      1  0.4842790000000  0.4473780000000  0.5414370000000 1.0
C      1  0.5500230000000  0.5310670000000  0.5040090000000 1.0
C      1  0.4790160000000  0.5321970000000  0.4038300000000 1.0
C      1  0.4794870000000  0.4800490000000  0.5114910000000 1.0
C      1  0.5036890000000  0.4961790000000  0.5247170000000 1.0
C      1  0.4689020000000  0.5457190000000  0.5577370000000 1.0
C      1  0.4961710000000  0.5024020000000  0.5572930000000 1.0
C      1  0.4854970000000  0.5229750000000  0.4318640000000 1.0
C      1  0.5394870000000  0.4657170000000  0.4654270000000 1.0
END
