TITL C-1154826-9507-638 -36.8347070586133 125000 -308.416837298678 0 0 60 (C1) n - 1
REM
REM in /home/nfs/bkarasulu/CARBON/AIRSS/Generating-Clusters/AIREBO/Higher-Symm/Only-C60
REM
REM
REM
REM
REM
REM ./C.cell (28575a23ae977d3b5fae324c64b13b57)
REM
REM compiler GCC version 9.2.1 20190827 (Red Hat 9.2.1-1)
REM options -cpp -mtune=generic -march=x86-64 -g -O0 -fpre-include=/usr/include/finclude/math-vector-fortran.h
REM seed -983917494 866075328 -1251768801 1411313013 -251189659 1282223889 -1590886118 -213227290 1115709426 -558469153 378553591 -151658547 -92551382 -1215831378 1674812810 -685764196 89718432 -717975836 191062802 -793901237 1670656132 -329843505 -1028071897 1926600732 1608296635 -461429799 -617327301 -2101941602 -708958515 1398201673 -1064245827 2118137955 655867508
REM
CELL 1.54180   50.00000   50.00000   50.00000   90.00000   90.00000   90.00000
LATT -1
SFAC C  
C      1  0.5311530000000  0.4916020000000  0.4813260000000 1.0
C      1  0.4687270000000  0.5099530000000  0.4799360000000 1.0
C      1  0.4933030000000  0.5541800000000  0.4799930000000 1.0
C      1  0.5208850000000  0.4348140000000  0.4935480000000 1.0
C      1  0.4745140000000  0.4668640000000  0.5024820000000 1.0
C      1  0.5351270000000  0.5246070000000  0.5098270000000 1.0
C      1  0.5040750000000  0.4546920000000  0.5098640000000 1.0
C      1  0.5073790000000  0.5415210000000  0.5027470000000 1.0
C      1  0.4178280000000  0.4942430000000  0.4928220000000 1.0
C      1  0.5815020000000  0.5120720000000  0.4880230000000 1.0
C      1  0.4770850000000  0.4413920000000  0.5248660000000 1.0
C      1  0.5278920000000  0.5505210000000  0.5282460000000 1.0
C      1  0.5219140000000  0.4739890000000  0.5289440000000 1.0
C      1  0.4835610000000  0.5230430000000  0.5184850000000 1.0
C      1  0.4438570000000  0.5235720000000  0.5229870000000 1.0
C      1  0.5657180000000  0.4653530000000  0.5107600000000 1.0
C      1  0.5499230000000  0.4443330000000  0.4854660000000 1.0
C      1  0.4656210000000  0.5538460000000  0.4870600000000 1.0
C      1  0.4327860000000  0.4827600000000  0.5146390000000 1.0
C      1  0.5725630000000  0.5112160000000  0.5140690000000 1.0
C      1  0.5483970000000  0.4679450000000  0.4662280000000 1.0
C      1  0.4476880000000  0.5340490000000  0.4701880000000 1.0
C      1  0.5447430000000  0.4920760000000  0.5122210000000 1.0
C      1  0.4624070000000  0.4976000000000  0.5106380000000 1.0
C      1  0.5180540000000  0.5218740000000  0.5794170000000 1.0
C      1  0.4965510000000  0.4671710000000  0.5756700000000 1.0
C      1  0.5121850000000  0.5444980000000  0.5552800000000 1.0
C      1  0.4999430000000  0.4473810000000  0.5489390000000 1.0
C      1  0.5146420000000  0.5236800000000  0.4471190000000 1.0
C      1  0.4675920000000  0.4790650000000  0.4540600000000 1.0
C      1  0.5597670000000  0.5163230000000  0.5401610000000 1.0
C      1  0.4478130000000  0.4736120000000  0.5389570000000 1.0
C      1  0.4419400000000  0.4897670000000  0.4498770000000 1.0
C      1  0.5416500000000  0.5131250000000  0.4447940000000 1.0
C      1  0.5360820000000  0.4639780000000  0.4399380000000 1.0
C      1  0.4544370000000  0.5369970000000  0.4395770000000 1.0
C      1  0.4838510000000  0.5446930000000  0.5447070000000 1.0
C      1  0.5308230000000  0.4438920000000  0.5373510000000 1.0
C      1  0.4702960000000  0.5205260000000  0.4299810000000 1.0
C      1  0.5198000000000  0.4862820000000  0.4323540000000 1.0
C      1  0.4687840000000  0.4598550000000  0.4730590000000 1.0
C      1  0.5042890000000  0.5484570000000  0.4549020000000 1.0
C      1  0.4628290000000  0.5499980000000  0.5179170000000 1.0
C      1  0.5514730000000  0.4384450000000  0.5189250000000 1.0
C      1  0.5297920000000  0.5161730000000  0.5484370000000 1.0
C      1  0.4780080000000  0.4735940000000  0.5479010000000 1.0
C      1  0.5611790000000  0.4996990000000  0.4675800000000 1.0
C      1  0.4303080000000  0.5063150000000  0.4699740000000 1.0
C      1  0.4916110000000  0.4949910000000  0.3359630000000 1.0
C      1  0.4694510000000  0.5069330000000  0.6335420000000 1.0
C      1  0.4928540000000  0.5015590000000  0.4181240000000 1.0
C      1  0.4821200000000  0.5031220000000  0.6107010000000 1.0
C      1  0.4940600000000  0.4970220000000  0.4518280000000 1.0
C      1  0.4910650000000  0.4976690000000  0.3620310000000 1.0
C      1  0.4548770000000  0.5115180000000  0.6548390000000 1.0
C      1  0.5059320000000  0.4990820000000  0.5187120000000 1.0
C      1  0.4988610000000  0.4977590000000  0.5862840000000 1.0
C      1  0.5007360000000  0.5002560000000  0.4850220000000 1.0
C      1  0.5008920000000  0.4984720000000  0.5523430000000 1.0
C      1  0.4930850000000  0.5002230000000  0.3882250000000 1.0
END
