TITL C-1154816-9297-363 0.000141846805911108 125000 -323.21156386881 0 0 60 (C1) n - 1
REM
REM in /home/nfs/bkarasulu/CARBON/AIRSS/Generating-Clusters/AIREBO/Higher-Symm/Only-C60
REM
REM
REM
REM
REM
REM ./C.cell (28575a23ae977d3b5fae324c64b13b57)
REM
REM compiler GCC version 9.2.1 20190827 (Red Hat 9.2.1-1)
REM options -cpp -mtune=generic -march=x86-64 -g -O0 -fpre-include=/usr/include/finclude/math-vector-fortran.h
REM seed 779944398 579352285 1957634540 -2087151670 -114302611 1416098353 -769846016 263754350 1862937399 -97959993 -1085568611 -1682590429 -1167032974 -262156129 1453729071 -1310331170 -1576843248 660435405 -1237602316 1465805361 -1879679869 572641831 -1478045799 -952179342 888416854 1475921178 -1789773474 692084947 28705964 595746084 -1245292605 52061216 622791704
REM
CELL 1.54180   50.00000   50.00000   50.00000   90.00000   90.00000   90.00000
LATT -1
SFAC C  
C      1  0.4640390000000  0.4882270000000  0.4544760000000 1.0
C      1  0.5207640000000  0.5134200000000  0.4305560000000 1.0
C      1  0.5588020000000  0.4853750000000  0.4938680000000 1.0
C      1  0.5425920000000  0.5154360000000  0.5447300000000 1.0
C      1  0.4770050000000  0.4864950000000  0.5526580000000 1.0
C      1  0.4257700000000  0.5070090000000  0.5099710000000 1.0
C      1  0.5171730000000  0.5533830000000  0.5162420000000 1.0
C      1  0.4980020000000  0.4472510000000  0.5209430000000 1.0
C      1  0.4843310000000  0.5590400000000  0.5094890000000 1.0
C      1  0.4911680000000  0.4443910000000  0.4848260000000 1.0
C      1  0.5092470000000  0.5504100000000  0.4837480000000 1.0
C      1  0.5207080000000  0.4509150000000  0.4975370000000 1.0
C      1  0.5047570000000  0.4844290000000  0.5698860000000 1.0
C      1  0.4495980000000  0.5210850000000  0.5307440000000 1.0
C      1  0.4393220000000  0.4727350000000  0.4704850000000 1.0
C      1  0.4916780000000  0.5261520000000  0.4345800000000 1.0
C      1  0.5526530000000  0.4777470000000  0.4613100000000 1.0
C      1  0.5670530000000  0.5231550000000  0.5224050000000 1.0
C      1  0.5193480000000  0.5155850000000  0.5693600000000 1.0
C      1  0.4479440000000  0.4891540000000  0.5379410000000 1.0
C      1  0.4355840000000  0.5039180000000  0.4775650000000 1.0
C      1  0.4850870000000  0.4959920000000  0.4317760000000 1.0
C      1  0.5385920000000  0.5138030000000  0.4514600000000 1.0
C      1  0.5676110000000  0.4923040000000  0.5240110000000 1.0
C      1  0.5608020000000  0.5322660000000  0.4919840000000 1.0
C      1  0.5285390000000  0.4666520000000  0.5543840000000 1.0
C      1  0.4721990000000  0.5341650000000  0.5494190000000 1.0
C      1  0.4407430000000  0.4578320000000  0.4984080000000 1.0
C      1  0.4729840000000  0.5373630000000  0.4566690000000 1.0
C      1  0.5250740000000  0.4657010000000  0.4468080000000 1.0
C      1  0.4527580000000  0.4318630000000  0.5121990000000 1.0
C      1  0.4666510000000  0.5668680000000  0.4660110000000 1.0
C      1  0.5137020000000  0.4368620000000  0.4442970000000 1.0
C      1  0.5551390000000  0.5588440000000  0.4764070000000 1.0
C      1  0.5343720000000  0.4377470000000  0.5446570000000 1.0
C      1  0.4842420000000  0.5628430000000  0.5534420000000 1.0
C      1  0.4532400000000  0.5235380000000  0.4975570000000 1.0
C      1  0.4879040000000  0.4941000000000  0.4773110000000 1.0
C      1  0.5262670000000  0.5058370000000  0.4791800000000 1.0
C      1  0.5305050000000  0.4919330000000  0.5092320000000 1.0
C      1  0.5095610000000  0.5115470000000  0.5370460000000 1.0
C      1  0.4759150000000  0.4804660000000  0.5205530000000 1.0
C      1  0.5309070000000  0.5258180000000  0.5063980000000 1.0
C      1  0.5085940000000  0.4783570000000  0.5297240000000 1.0
C      1  0.4877070000000  0.5270000000000  0.5203850000000 1.0
C      1  0.4724020000000  0.4684120000000  0.4922420000000 1.0
C      1  0.4852460000000  0.5264600000000  0.4864580000000 1.0
C      1  0.5158170000000  0.4747090000000  0.4763310000000 1.0
C      1  0.4261310000000  0.4753450000000  0.5191540000000 1.0
C      1  0.4480000000000  0.5184550000000  0.4516180000000 1.0
C      1  0.5123960000000  0.4838480000000  0.4258460000000 1.0
C      1  0.5651530000000  0.5084280000000  0.4706370000000 1.0
C      1  0.5536550000000  0.4840880000000  0.5498200000000 1.0
C      1  0.4854220000000  0.5134160000000  0.5687720000000 1.0
C      1  0.5056280000000  0.5696380000000  0.5416110000000 1.0
C      1  0.4743590000000  0.4303120000000  0.5253920000000 1.0
C      1  0.4684300000000  0.5747330000000  0.4902550000000 1.0
C      1  0.4944680000000  0.4301560000000  0.4597880000000 1.0
C      1  0.5309720000000  0.5641290000000  0.4696200000000 1.0
C      1  0.5352880000000  0.4328580000000  0.5198210000000 1.0
END
