TITL C-1154825-9328-105 -3.02668548273916 125000 -315.555864892132 0 0 60 (C1) n - 1
REM
REM in /home/nfs/bkarasulu/CARBON/AIRSS/Generating-Clusters/AIREBO/Higher-Symm/Only-C60
REM
REM
REM
REM
REM
REM ./C.cell (28575a23ae977d3b5fae324c64b13b57)
REM
REM compiler GCC version 9.2.1 20190827 (Red Hat 9.2.1-1)
REM options -cpp -mtune=generic -march=x86-64 -g -O0 -fpre-include=/usr/include/finclude/math-vector-fortran.h
REM seed -357218216 -1223709858 137918486 -1739574116 1594240214 -581191488 -780060358 1345949916 853044260 678292625 -45783604 1213629596 72113000 -1374540097 113806483 1744529385 -848609163 2035871232 350195908 -1440438904 1517858304 343713650 242494482 1190343133 1460924368 1709184180 344929837 -1121148165 1446538793 -371414728 -1139870210 -2078410179 520463450
REM
CELL 1.54180   50.00000   50.00000   50.00000   90.00000   90.00000   90.00000
LATT -1
SFAC C  
C      1  0.5108330000000  0.4755980000000  0.4620870000000 1.0
C      1  0.5135630000000  0.4580060000000  0.4910680000000 1.0
C      1  0.5201880000000  0.4760990000000  0.5188710000000 1.0
C      1  0.5134400000000  0.5291190000000  0.5316580000000 1.0
C      1  0.5150730000000  0.5314580000000  0.4917630000000 1.0
C      1  0.4855410000000  0.4942410000000  0.4637870000000 1.0
C      1  0.4796830000000  0.4574140000000  0.4947400000000 1.0
C      1  0.4974160000000  0.4664320000000  0.5364760000000 1.0
C      1  0.4804580000000  0.5308110000000  0.5319430000000 1.0
C      1  0.4873340000000  0.5493490000000  0.4835880000000 1.0
C      1  0.4674510000000  0.4610950000000  0.4388100000000 1.0
C      1  0.4911400000000  0.4161070000000  0.5079690000000 1.0
C      1  0.5186580000000  0.4753850000000  0.5792540000000 1.0
C      1  0.4848860000000  0.5721920000000  0.5390250000000 1.0
C      1  0.5011120000000  0.5543750000000  0.4464470000000 1.0
C      1  0.5366460000000  0.4920340000000  0.4581760000000 1.0
C      1  0.5466130000000  0.4567970000000  0.4846860000000 1.0
C      1  0.5455790000000  0.4713210000000  0.5373650000000 1.0
C      1  0.5422100000000  0.5254650000000  0.5455410000000 1.0
C      1  0.5409270000000  0.5511170000000  0.4964080000000 1.0
C      1  0.4653010000000  0.4343100000000  0.5120720000000 1.0
C      1  0.4945010000000  0.4770820000000  0.5654920000000 1.0
C      1  0.4568900000000  0.5578880000000  0.5399870000000 1.0
C      1  0.4684670000000  0.5582550000000  0.4551300000000 1.0
C      1  0.4519820000000  0.4812610000000  0.4555800000000 1.0
C      1  0.4686750000000  0.5512820000000  0.5090450000000 1.0
C      1  0.4771810000000  0.5259390000000  0.4611130000000 1.0
C      1  0.4641600000000  0.4818850000000  0.4862320000000 1.0
C      1  0.4690710000000  0.4561050000000  0.5334150000000 1.0
C      1  0.4587550000000  0.5058700000000  0.5399430000000 1.0
C      1  0.5634400000000  0.5225510000000  0.5323320000000 1.0
C      1  0.5633560000000  0.5392350000000  0.4960570000000 1.0
C      1  0.5513830000000  0.5079580000000  0.4705090000000 1.0
C      1  0.5632350000000  0.4747310000000  0.4890500000000 1.0
C      1  0.5677550000000  0.4833040000000  0.5275330000000 1.0
C      1  0.5164710000000  0.5381060000000  0.4584380000000 1.0
C      1  0.4929090000000  0.4613590000000  0.4395380000000 1.0
C      1  0.5120680000000  0.4252630000000  0.4971350000000 1.0
C      1  0.5404970000000  0.4668160000000  0.5645810000000 1.0
C      1  0.5066610000000  0.5597770000000  0.5403070000000 1.0
C      1  0.4409320000000  0.5321350000000  0.5304850000000 1.0
C      1  0.4482690000000  0.5522840000000  0.4818220000000 1.0
C      1  0.4538280000000  0.5104210000000  0.4460850000000 1.0
C      1  0.4409780000000  0.4215530000000  0.5093830000000 1.0
C      1  0.4647240000000  0.4808370000000  0.5531070000000 1.0
C      1  0.6744200000000  0.5002010000000  0.4855440000000 1.0
C      1  0.5292310000000  0.5072060000000  0.5109590000000 1.0
C      1  0.5622220000000  0.5058910000000  0.5026930000000 1.0
C      1  0.3602450000000  0.5028660000000  0.4755470000000 1.0
C      1  0.3356650000000  0.4943260000000  0.4698460000000 1.0
C      1  0.4358030000000  0.5284730000000  0.4988370000000 1.0
C      1  0.6218500000000  0.5029590000000  0.4935970000000 1.0
C      1  0.7002890000000  0.4988400000000  0.4815800000000 1.0
C      1  0.3125450000000  0.4844360000000  0.4624490000000 1.0
C      1  0.3840720000000  0.5114770000000  0.4837700000000 1.0
C      1  0.5958060000000  0.5042980000000  0.4975840000000 1.0
C      1  0.4877460000000  0.5120350000000  0.4974530000000 1.0
C      1  0.4087280000000  0.5181870000000  0.4903690000000 1.0
C      1  0.4594430000000  0.5062710000000  0.5068270000000 1.0
C      1  0.6481340000000  0.5015830000000  0.4895710000000 1.0
END
