TITL C-1154821-8623-508 -0.000494901053256712 125000 -316.81833085994 0 0 60 (C1) n - 1
REM
REM in /home/nfs/bkarasulu/CARBON/AIRSS/Generating-Clusters/AIREBO/Higher-Symm/Only-C60
REM
REM
REM
REM
REM
REM ./C.cell (28575a23ae977d3b5fae324c64b13b57)
REM
REM compiler GCC version 9.2.1 20190827 (Red Hat 9.2.1-1)
REM options -cpp -mtune=generic -march=x86-64 -g -O0 -fpre-include=/usr/include/finclude/math-vector-fortran.h
REM seed -84817058 1562505053 1774422061 -1698670651 516562446 1510505892 865046286 252260052 830252762 -385566264 -790750001 -1262149103 1241078627 -896494548 481629198 -175599239 -1141675721 -874240353 378613236 418498282 1674808289 1802183236 459951411 -1968539913 330947564 411320382 -1064924779 -1126484402 -293442037 608650759 2008748256 -939075279 1144882893
REM
CELL 1.54180   50.00000   50.00000   50.00000   90.00000   90.00000   90.00000
LATT -1
SFAC C  
C      1  0.4486400000000  0.5674330000000  0.4884050000000 1.0
C      1  0.5122430000000  0.4597870000000  0.5481020000000 1.0
C      1  0.4293470000000  0.5103930000000  0.5222570000000 1.0
C      1  0.5382830000000  0.5259150000000  0.5080760000000 1.0
C      1  0.4555780000000  0.4731400000000  0.4733650000000 1.0
C      1  0.4898280000000  0.5167780000000  0.5768130000000 1.0
C      1  0.5656660000000  0.5271930000000  0.5095560000000 1.0
C      1  0.4761340000000  0.5152150000000  0.5322850000000 1.0
C      1  0.4745640000000  0.4846370000000  0.5068030000000 1.0
C      1  0.4926570000000  0.5726500000000  0.5208860000000 1.0
C      1  0.4478540000000  0.4689270000000  0.5429710000000 1.0
C      1  0.5831870000000  0.5024750000000  0.4969960000000 1.0
C      1  0.5079250000000  0.4762940000000  0.4866620000000 1.0
C      1  0.5351570000000  0.4872830000000  0.5026670000000 1.0
C      1  0.5109260000000  0.5370800000000  0.4811840000000 1.0
C      1  0.4546130000000  0.5203790000000  0.5068940000000 1.0
C      1  0.5102290000000  0.5479680000000  0.5476250000000 1.0
C      1  0.4632960000000  0.4563800000000  0.4996350000000 1.0
C      1  0.4862090000000  0.4642610000000  0.4664880000000 1.0
C      1  0.5556720000000  0.4735940000000  0.5261190000000 1.0
C      1  0.5739100000000  0.4608050000000  0.5435830000000 1.0
C      1  0.5081670000000  0.5238270000000  0.5237530000000 1.0
C      1  0.5186560000000  0.5181290000000  0.5727470000000 1.0
C      1  0.5349240000000  0.5232060000000  0.4308400000000 1.0
C      1  0.5282850000000  0.5469750000000  0.5708870000000 1.0
C      1  0.5248940000000  0.4492320000000  0.4983210000000 1.0
C      1  0.5145720000000  0.4223480000000  0.4821120000000 1.0
C      1  0.5292840000000  0.5018560000000  0.4515770000000 1.0
C      1  0.4397900000000  0.4618870000000  0.4278830000000 1.0
C      1  0.4755210000000  0.4290020000000  0.5341770000000 1.0
C      1  0.5556830000000  0.4545930000000  0.4910960000000 1.0
C      1  0.4639840000000  0.4912040000000  0.5480660000000 1.0
C      1  0.5300270000000  0.4794140000000  0.5414260000000 1.0
C      1  0.4801180000000  0.4900820000000  0.5714200000000 1.0
C      1  0.5731380000000  0.4772920000000  0.4982520000000 1.0
C      1  0.4950320000000  0.5049120000000  0.4987240000000 1.0
C      1  0.5076110000000  0.5540680000000  0.5082000000000 1.0
C      1  0.5952120000000  0.5324620000000  0.4965400000000 1.0
C      1  0.4964200000000  0.4663140000000  0.5710130000000 1.0
C      1  0.4868420000000  0.4376350000000  0.4968370000000 1.0
C      1  0.5356700000000  0.4704270000000  0.4401560000000 1.0
C      1  0.4363070000000  0.4592260000000  0.4549800000000 1.0
C      1  0.5294180000000  0.5115500000000  0.4795090000000 1.0
C      1  0.4688600000000  0.5622970000000  0.5332760000000 1.0
C      1  0.4552260000000  0.4467810000000  0.5272160000000 1.0
C      1  0.4456290000000  0.5011940000000  0.4802810000000 1.0
C      1  0.5056550000000  0.4402150000000  0.5250950000000 1.0
C      1  0.5055660000000  0.4784300000000  0.4467930000000 1.0
C      1  0.4899660000000  0.4317280000000  0.4635580000000 1.0
C      1  0.4786530000000  0.5391100000000  0.5534440000000 1.0
C      1  0.4269310000000  0.5113560000000  0.4645450000000 1.0
C      1  0.5446720000000  0.5840060000000  0.3811420000000 1.0
C      1  0.5375000000000  0.5428290000000  0.4133790000000 1.0
C      1  0.4780420000000  0.5286450000000  0.4836670000000 1.0
C      1  0.5423500000000  0.5632480000000  0.3969760000000 1.0
C      1  0.4502910000000  0.5534380000000  0.5135700000000 1.0
C      1  0.5237550000000  0.5051550000000  0.5475120000000 1.0
C      1  0.4941870000000  0.5546320000000  0.4583250000000 1.0
C      1  0.4146850000000  0.4464150000000  0.4660190000000 1.0
C      1  0.4665560000000  0.5562950000000  0.4693120000000 1.0
END
