TITL C-1154823-9327-126 -0.00112603652978231 125000 -326.788616254502 0 0 60 (C1) n - 1
REM
REM in /home/nfs/bkarasulu/CARBON/AIRSS/Generating-Clusters/AIREBO/Higher-Symm/Only-C60
REM
REM
REM
REM
REM
REM ./C.cell (28575a23ae977d3b5fae324c64b13b57)
REM
REM compiler GCC version 9.2.1 20190827 (Red Hat 9.2.1-1)
REM options -cpp -mtune=generic -march=x86-64 -g -O0 -fpre-include=/usr/include/finclude/math-vector-fortran.h
REM seed -1114362357 757426775 -2081358192 -411230702 -21793725 1671375433 -1745613777 2016581753 809669037 910116326 -640689643 1452692775 969069798 -832193752 -1732848332 -2003509573 2107119070 1862072153 -1185066450 1734501512 -97807428 -68842480 1540253056 -937108549 -932234357 882146486 2004563890 100454746 379148216 -17384927 -1896826533 485824603 -290709500
REM
CELL 1.54180   50.00000   50.00000   50.00000   90.00000   90.00000   90.00000
LATT -1
SFAC C  
C      1  0.4735350000000  0.4904410000000  0.4616360000000 1.0
C      1  0.4885400000000  0.4681750000000  0.4812390000000 1.0
C      1  0.4722080000000  0.4769010000000  0.5532300000000 1.0
C      1  0.4830450000000  0.5004240000000  0.5330350000000 1.0
C      1  0.4755390000000  0.5326540000000  0.5300660000000 1.0
C      1  0.4706520000000  0.5414070000000  0.4758550000000 1.0
C      1  0.4856690000000  0.5186860000000  0.4627560000000 1.0
C      1  0.5554130000000  0.4819270000000  0.4366460000000 1.0
C      1  0.5507830000000  0.4437170000000  0.4751850000000 1.0
C      1  0.5462750000000  0.4411950000000  0.5294460000000 1.0
C      1  0.5561990000000  0.4857840000000  0.5621450000000 1.0
C      1  0.5554210000000  0.5427250000000  0.5488190000000 1.0
C      1  0.5513520000000  0.5656110000000  0.4995950000000 1.0
C      1  0.5592920000000  0.5366600000000  0.4484270000000 1.0
C      1  0.4982360000000  0.5258420000000  0.4334390000000 1.0
C      1  0.4914060000000  0.4721320000000  0.4403770000000 1.0
C      1  0.4871220000000  0.4347560000000  0.4835640000000 1.0
C      1  0.4884080000000  0.4485490000000  0.5488890000000 1.0
C      1  0.4972120000000  0.5027740000000  0.5702070000000 1.0
C      1  0.4902190000000  0.5557510000000  0.5502520000000 1.0
C      1  0.4922030000000  0.5630950000000  0.4823760000000 1.0
C      1  0.5228680000000  0.4819750000000  0.4340950000000 1.0
C      1  0.5184500000000  0.4428880000000  0.4731290000000 1.0
C      1  0.5158860000000  0.4443480000000  0.5299960000000 1.0
C      1  0.5249290000000  0.4834100000000  0.5666090000000 1.0
C      1  0.5232860000000  0.5479660000000  0.5483670000000 1.0
C      1  0.5202810000000  0.5669070000000  0.5002160000000 1.0
C      1  0.5281610000000  0.5395210000000  0.4420420000000 1.0
C      1  0.5266200000000  0.5356070000000  0.4921640000000 1.0
C      1  0.5186330000000  0.5200570000000  0.4668870000000 1.0
C      1  0.5299680000000  0.4921640000000  0.4653390000000 1.0
C      1  0.5192810000000  0.4731990000000  0.4861070000000 1.0
C      1  0.5258930000000  0.4723840000000  0.5157080000000 1.0
C      1  0.5160200000000  0.4928630000000  0.5364410000000 1.0
C      1  0.5278890000000  0.5215470000000  0.5294460000000 1.0
C      1  0.4601790000000  0.4578370000000  0.5203910000000 1.0
C      1  0.4467300000000  0.4834570000000  0.5341320000000 1.0
C      1  0.4340570000000  0.5076370000000  0.5287300000000 1.0
C      1  0.4479730000000  0.5295010000000  0.5167820000000 1.0
C      1  0.4467290000000  0.5347010000000  0.4888360000000 1.0
C      1  0.4310570000000  0.5169310000000  0.4730410000000 1.0
C      1  0.4427110000000  0.4928400000000  0.4681970000000 1.0
C      1  0.5586480000000  0.5324310000000  0.4974290000000 1.0
C      1  0.5682560000000  0.5213470000000  0.4706410000000 1.0
C      1  0.5623190000000  0.4912990000000  0.4678310000000 1.0
C      1  0.5648080000000  0.4660050000000  0.4860090000000 1.0
C      1  0.5585870000000  0.4695400000000  0.5159700000000 1.0
C      1  0.5663930000000  0.4909230000000  0.5361670000000 1.0
C      1  0.5608830000000  0.5192100000000  0.5258600000000 1.0
C      1  0.4978370000000  0.4985760000000  0.4195280000000 1.0
C      1  0.4934720000000  0.4430990000000  0.4508540000000 1.0
C      1  0.4869680000000  0.4428490000000  0.5147450000000 1.0
C      1  0.4966530000000  0.4687770000000  0.5754270000000 1.0
C      1  0.5026910000000  0.5269920000000  0.5629360000000 1.0
C      1  0.4924570000000  0.5582720000000  0.5163180000000 1.0
C      1  0.4994230000000  0.5557480000000  0.4502340000000 1.0
C      1  0.4520160000000  0.4766100000000  0.4950950000000 1.0
C      1  0.5064990000000  0.5136230000000  0.5041080000000 1.0
C      1  0.4816850000000  0.4916990000000  0.5021000000000 1.0
C      1  0.4240440000000  0.4658960000000  0.4903920000000 1.0
END
