TITL C-1154808-8168-41 0.000240977111118233 125000 -342.984529738071 0 0 60 (C1) n - 1
REM
REM in /home/nfs/bkarasulu/CARBON/AIRSS/Generating-Clusters/AIREBO/Higher-Symm/Only-C60
REM
REM
REM
REM
REM
REM ./C.cell (28575a23ae977d3b5fae324c64b13b57)
REM
REM compiler GCC version 9.2.1 20190827 (Red Hat 9.2.1-1)
REM options -cpp -mtune=generic -march=x86-64 -g -O0 -fpre-include=/usr/include/finclude/math-vector-fortran.h
REM seed 839442219 -559594139 -1313770811 -977323290 1771425519 -1063359249 772998053 81951788 -105507598 -539610975 -236235709 -1100802518 -8260405 93822224 -1480278937 -290308204 1200128390 -870687009 -1884449681 600322554 958349336 1027655178 1417238599 -256412616 -490594125 234572356 -1329786579 -2021458037 298328881 71678740 2141893105 1199684498 -962636026
REM
CELL 1.54180   50.00000   50.00000   50.00000   90.00000   90.00000   90.00000
LATT -1
SFAC C  
C      1  0.4724930000000  0.4478810000000  0.4768430000000 1.0
C      1  0.5580380000000  0.4643810000000  0.4764200000000 1.0
C      1  0.5157990000000  0.5675530000000  0.4814270000000 1.0
C      1  0.4477570000000  0.5291520000000  0.4738520000000 1.0
C      1  0.4729520000000  0.4468470000000  0.5235970000000 1.0
C      1  0.5551390000000  0.4744110000000  0.5246720000000 1.0
C      1  0.5250590000000  0.5544540000000  0.5272930000000 1.0
C      1  0.4451120000000  0.5288880000000  0.5286420000000 1.0
C      1  0.5312080000000  0.5336400000000  0.5496410000000 1.0
C      1  0.4573690000000  0.5276820000000  0.5577520000000 1.0
C      1  0.4677080000000  0.4600410000000  0.5500470000000 1.0
C      1  0.5392870000000  0.4667960000000  0.5509330000000 1.0
C      1  0.5281450000000  0.5195930000000  0.4487200000000 1.0
C      1  0.4612290000000  0.5305180000000  0.4458100000000 1.0
C      1  0.4689180000000  0.4620370000000  0.4508590000000 1.0
C      1  0.5425950000000  0.4584170000000  0.4501370000000 1.0
C      1  0.5214580000000  0.5122530000000  0.5149510000000 1.0
C      1  0.4932310000000  0.5293530000000  0.5183580000000 1.0
C      1  0.4832460000000  0.4983180000000  0.5204290000000 1.0
C      1  0.5104300000000  0.4810960000000  0.5192830000000 1.0
C      1  0.5155880000000  0.5155500000000  0.4755850000000 1.0
C      1  0.4872780000000  0.5318750000000  0.4790050000000 1.0
C      1  0.4796940000000  0.4990870000000  0.4807180000000 1.0
C      1  0.5086150000000  0.4841510000000  0.4796810000000 1.0
C      1  0.4932760000000  0.5605400000000  0.4657910000000 1.0
C      1  0.4465590000000  0.4969210000000  0.4846660000000 1.0
C      1  0.5045260000000  0.4508990000000  0.4843480000000 1.0
C      1  0.5596650000000  0.4980830000000  0.4793520000000 1.0
C      1  0.4947610000000  0.5516140000000  0.5390540000000 1.0
C      1  0.4493330000000  0.4966430000000  0.5186280000000 1.0
C      1  0.5054860000000  0.4479310000000  0.5169080000000 1.0
C      1  0.5532790000000  0.5053230000000  0.5105870000000 1.0
C      1  0.4495980000000  0.5022550000000  0.5681750000000 1.0
C      1  0.4918210000000  0.4558570000000  0.5650070000000 1.0
C      1  0.5523510000000  0.4918080000000  0.5605350000000 1.0
C      1  0.5114720000000  0.5341810000000  0.5707670000000 1.0
C      1  0.4538210000000  0.5055050000000  0.4343290000000 1.0
C      1  0.4931060000000  0.4556740000000  0.4363290000000 1.0
C      1  0.5530230000000  0.4810410000000  0.4348180000000 1.0
C      1  0.5096500000000  0.5317100000000  0.4307470000000 1.0
C      1  0.5161090000000  0.4511580000000  0.4534140000000 1.0
C      1  0.5524530000000  0.5051680000000  0.4509060000000 1.0
C      1  0.4856610000000  0.5444100000000  0.4412320000000 1.0
C      1  0.4538920000000  0.4847910000000  0.4537170000000 1.0
C      1  0.5152320000000  0.4544150000000  0.5485000000000 1.0
C      1  0.5496080000000  0.5141280000000  0.5432270000000 1.0
C      1  0.4818970000000  0.5404260000000  0.5633090000000 1.0
C      1  0.4510630000000  0.4819030000000  0.5482140000000 1.0
C      1  0.5273330000000  0.5897840000000  0.4944140000000 1.0
C      1  0.4249130000000  0.5464450000000  0.4878560000000 1.0
C      1  0.4572330000000  0.4234760000000  0.4869770000000 1.0
C      1  0.5804470000000  0.4505660000000  0.4924160000000 1.0
C      1  0.5341040000000  0.5837340000000  0.5207570000000 1.0
C      1  0.4230140000000  0.5452440000000  0.5132420000000 1.0
C      1  0.4572750000000  0.4229850000000  0.5125590000000 1.0
C      1  0.5799080000000  0.4569530000000  0.5172420000000 1.0
C      1  0.5351110000000  0.4724860000000  0.4975370000000 1.0
C      1  0.5244790000000  0.5406170000000  0.4964330000000 1.0
C      1  0.4653360000000  0.5293970000000  0.5028810000000 1.0
C      1  0.4748580000000  0.4719570000000  0.5006530000000 1.0
END
