TITL C-1154829-9094-150 0.00013985255179052 125000 -349.770157934846 0 0 60 (C1) n - 1
REM
REM in /home/nfs/bkarasulu/CARBON/AIRSS/Generating-Clusters/AIREBO/Higher-Symm/Only-C60
REM
REM
REM
REM
REM
REM ./C.cell (28575a23ae977d3b5fae324c64b13b57)
REM
REM compiler GCC version 9.2.1 20190827 (Red Hat 9.2.1-1)
REM options -cpp -mtune=generic -march=x86-64 -g -O0 -fpre-include=/usr/include/finclude/math-vector-fortran.h
REM seed 322178725 -1317140509 -1604164515 44935361 1235617999 -1597640147 502760316 1961040517 1324631586 571990518 -1090764427 -1765849125 -1474760522 314043732 -279092139 -626348417 882025169 935712058 2032769961 535507947 -850312600 679429996 -690144833 -2001879733 -391960285 -280009685 1588677889 1234137598 -131807980 398528947 465643129 -1711087853 -1336669830
REM
CELL 1.54180   50.00000   50.00000   50.00000   90.00000   90.00000   90.00000
LATT -1
SFAC C  
C      1  0.4750940000000  0.4642030000000  0.5454430000000 1.0
C      1  0.4962220000000  0.5429930000000  0.5563400000000 1.0
C      1  0.5116380000000  0.4619250000000  0.5490420000000 1.0
C      1  0.5451900000000  0.5358970000000  0.5325150000000 1.0
C      1  0.5539460000000  0.4615520000000  0.5054430000000 1.0
C      1  0.5510060000000  0.5351300000000  0.4789170000000 1.0
C      1  0.5255400000000  0.4677800000000  0.4537290000000 1.0
C      1  0.5064380000000  0.5372490000000  0.4474490000000 1.0
C      1  0.4893880000000  0.4622520000000  0.4497630000000 1.0
C      1  0.4561770000000  0.5325270000000  0.4771840000000 1.0
C      1  0.4478810000000  0.4622220000000  0.4937830000000 1.0
C      1  0.4523730000000  0.5386210000000  0.5132350000000 1.0
C      1  0.5696050000000  0.4741750000000  0.4709160000000 1.0
C      1  0.5515200000000  0.5253090000000  0.4401620000000 1.0
C      1  0.5175530000000  0.4815280000000  0.4171690000000 1.0
C      1  0.4669000000000  0.5321240000000  0.4312760000000 1.0
C      1  0.4424510000000  0.4746840000000  0.4484070000000 1.0
C      1  0.4223900000000  0.5133210000000  0.4861670000000 1.0
C      1  0.4306700000000  0.4676440000000  0.5294490000000 1.0
C      1  0.4495510000000  0.5328530000000  0.5526370000000 1.0
C      1  0.4822350000000  0.4820690000000  0.5803260000000 1.0
C      1  0.5225180000000  0.5336800000000  0.5726350000000 1.0
C      1  0.5506280000000  0.4701760000000  0.5519560000000 1.0
C      1  0.5768200000000  0.5190540000000  0.5151170000000 1.0
C      1  0.5281390000000  0.5478680000000  0.4890380000000 1.0
C      1  0.5163070000000  0.4504050000000  0.4766820000000 1.0
C      1  0.5048010000000  0.5471330000000  0.4733830000000 1.0
C      1  0.4879090000000  0.4439940000000  0.4748050000000 1.0
C      1  0.4806800000000  0.5470980000000  0.4864360000000 1.0
C      1  0.4721630000000  0.4490400000000  0.4972170000000 1.0
C      1  0.4785500000000  0.5561120000000  0.5136180000000 1.0
C      1  0.4855450000000  0.4496880000000  0.5214130000000 1.0
C      1  0.5009020000000  0.5547740000000  0.5293230000000 1.0
C      1  0.5138680000000  0.4441930000000  0.5233280000000 1.0
C      1  0.5258510000000  0.5498780000000  0.5172040000000 1.0
C      1  0.5295840000000  0.4488130000000  0.5008420000000 1.0
C      1  0.4505270000000  0.5407740000000  0.4488860000000 1.0
C      1  0.4329860000000  0.4604300000000  0.4700230000000 1.0
C      1  0.4241870000000  0.5341660000000  0.5010670000000 1.0
C      1  0.4457230000000  0.4571210000000  0.5472970000000 1.0
C      1  0.4671830000000  0.5458600000000  0.5651480000000 1.0
C      1  0.4992340000000  0.4629400000000  0.5772810000000 1.0
C      1  0.5458320000000  0.5408700000000  0.5603960000000 1.0
C      1  0.5645380000000  0.4582330000000  0.5313700000000 1.0
C      1  0.5749770000000  0.5362640000000  0.4936570000000 1.0
C      1  0.5554140000000  0.4640690000000  0.4523960000000 1.0
C      1  0.5299510000000  0.5405770000000  0.4325630000000 1.0
C      1  0.5021380000000  0.4614300000000  0.4218200000000 1.0
C      1  0.4446220000000  0.4898410000000  0.5104670000000 1.0
C      1  0.4567270000000  0.5106440000000  0.5290920000000 1.0
C      1  0.4754110000000  0.4975130000000  0.5512870000000 1.0
C      1  0.5046760000000  0.5103360000000  0.5555760000000 1.0
C      1  0.5255770000000  0.4908990000000  0.5441600000000 1.0
C      1  0.5477280000000  0.5046500000000  0.5251030000000 1.0
C      1  0.5550590000000  0.4918820000000  0.4954530000000 1.0
C      1  0.5457700000000  0.5059540000000  0.4666660000000 1.0
C      1  0.5207920000000  0.5001210000000  0.4443450000000 1.0
C      1  0.4886330000000  0.5107780000000  0.4414140000000 1.0
C      1  0.4721620000000  0.4877390000000  0.4536170000000 1.0
C      1  0.4521180000000  0.4989480000000  0.4785660000000 1.0
END
