TITL C-1154827-9204-618 -0.000252829631379403 125000 -346.95428865079 0 0 60 (C1) n - 1
REM
REM in /home/nfs/bkarasulu/CARBON/AIRSS/Generating-Clusters/AIREBO/Higher-Symm/Only-C60
REM
REM
REM
REM
REM
REM ./C.cell (28575a23ae977d3b5fae324c64b13b57)
REM
REM compiler GCC version 9.2.1 20190827 (Red Hat 9.2.1-1)
REM options -cpp -mtune=generic -march=x86-64 -g -O0 -fpre-include=/usr/include/finclude/math-vector-fortran.h
REM seed -440002923 -1575731007 858800838 459898930 -1202649662 941093260 -384435728 95741715 -653225582 -501443519 1913645448 -5563467 -1272534594 -265752622 1748795336 -1911578084 1778554861 379802471 541592294 1221944225 -441227979 1284961125 -1696012679 751346563 1418749306 1764048512 -439097645 106183762 668792121 214798302 -1021599434 -88468214 2102480018
REM
CELL 1.54180   50.00000   50.00000   50.00000   90.00000   90.00000   90.00000
LATT -1
SFAC C  
C      1  0.5334040000000  0.4769280000000  0.4514920000000 1.0
C      1  0.5600990000000  0.4632470000000  0.5222260000000 1.0
C      1  0.4998850000000  0.4648080000000  0.5652220000000 1.0
C      1  0.4418170000000  0.4712820000000  0.5235200000000 1.0
C      1  0.4619580000000  0.4666040000000  0.4508070000000 1.0
C      1  0.5096440000000  0.4698860000000  0.4365020000000 1.0
C      1  0.5661450000000  0.4636450000000  0.4901730000000 1.0
C      1  0.5305300000000  0.4627190000000  0.5610440000000 1.0
C      1  0.4536280000000  0.4640710000000  0.5491660000000 1.0
C      1  0.4386230000000  0.4647040000000  0.4734000000000 1.0
C      1  0.4284200000000  0.4942650000000  0.4706080000000 1.0
C      1  0.5012210000000  0.4895700000000  0.4175780000000 1.0
C      1  0.5804160000000  0.4904150000000  0.4885240000000 1.0
C      1  0.5404230000000  0.4910400000000  0.5660840000000 1.0
C      1  0.4488060000000  0.4850410000000  0.5682930000000 1.0
C      1  0.4473400000000  0.5495220000000  0.5144840000000 1.0
C      1  0.4759080000000  0.5471120000000  0.4642480000000 1.0
C      1  0.5286940000000  0.5584030000000  0.4600230000000 1.0
C      1  0.5464730000000  0.5452450000000  0.5089680000000 1.0
C      1  0.4996360000000  0.5483200000000  0.5422610000000 1.0
C      1  0.5601530000000  0.5258290000000  0.4668280000000 1.0
C      1  0.5342300000000  0.5179270000000  0.5250870000000 1.0
C      1  0.4666230000000  0.5257610000000  0.5418700000000 1.0
C      1  0.4276590000000  0.5403880000000  0.4878210000000 1.0
C      1  0.5015200000000  0.5264760000000  0.4554930000000 1.0
C      1  0.4492310000000  0.4582230000000  0.4991890000000 1.0
C      1  0.4882790000000  0.4560170000000  0.4499520000000 1.0
C      1  0.5425300000000  0.4626870000000  0.4742300000000 1.0
C      1  0.5393230000000  0.4509170000000  0.5366000000000 1.0
C      1  0.4804170000000  0.4539100000000  0.5483480000000 1.0
C      1  0.5242820000000  0.4881360000000  0.5003920000000 1.0
C      1  0.5066520000000  0.5012150000000  0.5263570000000 1.0
C      1  0.4770520000000  0.5061400000000  0.5177650000000 1.0
C      1  0.4829020000000  0.4919630000000  0.4891190000000 1.0
C      1  0.5118250000000  0.5037810000000  0.4755890000000 1.0
C      1  0.4715660000000  0.5551230000000  0.5339850000000 1.0
C      1  0.4549600000000  0.5556500000000  0.4825240000000 1.0
C      1  0.5018260000000  0.5661140000000  0.4607180000000 1.0
C      1  0.5479810000000  0.5484380000000  0.4793150000000 1.0
C      1  0.5235150000000  0.5561600000000  0.5295130000000 1.0
C      1  0.4900320000000  0.5130760000000  0.4274480000000 1.0
C      1  0.5836120000000  0.5116500000000  0.4712800000000 1.0
C      1  0.5538660000000  0.5084320000000  0.5496470000000 1.0
C      1  0.4538300000000  0.5118140000000  0.5626870000000 1.0
C      1  0.4157500000000  0.5183930000000  0.4759980000000 1.0
C      1  0.4451940000000  0.4994130000000  0.5211660000000 1.0
C      1  0.4605180000000  0.4967840000000  0.4650080000000 1.0
C      1  0.5367910000000  0.5083500000000  0.4529510000000 1.0
C      1  0.5562140000000  0.4956210000000  0.5118350000000 1.0
C      1  0.5085610000000  0.4958670000000  0.5589930000000 1.0
C      1  0.5353760000000  0.5388870000000  0.4385510000000 1.0
C      1  0.5724230000000  0.5254360000000  0.5184820000000 1.0
C      1  0.5016580000000  0.5270810000000  0.5610670000000 1.0
C      1  0.4312410000000  0.5225720000000  0.5233140000000 1.0
C      1  0.4657480000000  0.5201170000000  0.4466910000000 1.0
C      1  0.5188690000000  0.4414230000000  0.5200460000000 1.0
C      1  0.4907900000000  0.4465250000000  0.5235800000000 1.0
C      1  0.4796770000000  0.4594260000000  0.4985130000000 1.0
C      1  0.4951880000000  0.4456120000000  0.4746450000000 1.0
C      1  0.5190680000000  0.4558390000000  0.4927830000000 1.0
END
