TITL C-1154801-8518-54 -0.000636434037995361 125000 -340.38204147716 0 0 60 (C1) n - 1
REM
REM in /home/nfs/bkarasulu/CARBON/AIRSS/Generating-Clusters/AIREBO/Higher-Symm/Only-C60
REM
REM
REM
REM
REM
REM ./C.cell (28575a23ae977d3b5fae324c64b13b57)
REM
REM compiler GCC version 9.2.1 20190827 (Red Hat 9.2.1-1)
REM options -cpp -mtune=generic -march=x86-64 -g -O0 -fpre-include=/usr/include/finclude/math-vector-fortran.h
REM seed 1920935828 1700554523 -732328223 -1354602256 1736893201 661020689 901193216 1085066321 165548820 -611133064 1275976080 862442046 -1073550239 602279156 1662654583 1929503141 1762621314 651083780 -680641054 75127476 1287719636 -1193644093 -998379311 -489529895 -932471592 -728513467 701960924 -155298276 -388317005 -847548507 -729810765 323848843 2123053477
REM
CELL 1.54180   50.00000   50.00000   50.00000   90.00000   90.00000   90.00000
LATT -1
SFAC C  
C      1  0.4705160000000  0.5134320000000  0.4766260000000 1.0
C      1  0.5252700000000  0.5181770000000  0.4774390000000 1.0
C      1  0.5022420000000  0.4693130000000  0.4780540000000 1.0
C      1  0.4730870000000  0.4953230000000  0.5217070000000 1.0
C      1  0.5307010000000  0.4823870000000  0.5195280000000 1.0
C      1  0.5174980000000  0.5309580000000  0.5274890000000 1.0
C      1  0.4720960000000  0.5265940000000  0.5142980000000 1.0
C      1  0.5386660000000  0.5105200000000  0.5206610000000 1.0
C      1  0.4984370000000  0.4805760000000  0.5255410000000 1.0
C      1  0.4755480000000  0.4812280000000  0.4739350000000 1.0
C      1  0.5276790000000  0.4899060000000  0.4729580000000 1.0
C      1  0.4950340000000  0.5300620000000  0.4776530000000 1.0
C      1  0.5553310000000  0.4721380000000  0.5493970000000 1.0
C      1  0.4507130000000  0.4654800000000  0.5530900000000 1.0
C      1  0.4955830000000  0.5567610000000  0.5590960000000 1.0
C      1  0.5525920000000  0.5218430000000  0.4486080000000 1.0
C      1  0.4537890000000  0.5360400000000  0.4483830000000 1.0
C      1  0.4952020000000  0.4398790000000  0.4519090000000 1.0
C      1  0.4571670000000  0.5042190000000  0.4473220000000 1.0
C      1  0.5245080000000  0.5369110000000  0.4515880000000 1.0
C      1  0.5204700000000  0.4566870000000  0.4527780000000 1.0
C      1  0.4560870000000  0.4932760000000  0.5485220000000 1.0
C      1  0.5263540000000  0.4624090000000  0.5467060000000 1.0
C      1  0.5189650000000  0.5401010000000  0.5546020000000 1.0
C      1  0.4587610000000  0.4321680000000  0.4868120000000 1.0
C      1  0.4630760000000  0.5726950000000  0.4878000000000 1.0
C      1  0.5826290000000  0.4972510000000  0.4859100000000 1.0
C      1  0.4605180000000  0.5702820000000  0.5174520000000 1.0
C      1  0.4601660000000  0.4311830000000  0.5153800000000 1.0
C      1  0.5831850000000  0.4986260000000  0.5149870000000 1.0
C      1  0.5079880000000  0.4291290000000  0.5060820000000 1.0
C      1  0.4201260000000  0.5256280000000  0.4935800000000 1.0
C      1  0.5573290000000  0.5530320000000  0.4955150000000 1.0
C      1  0.5035950000000  0.5722690000000  0.5049120000000 1.0
C      1  0.4331690000000  0.4721250000000  0.5014000000000 1.0
C      1  0.5579790000000  0.4484230000000  0.4943920000000 1.0
C      1  0.5542060000000  0.4213150000000  0.4973820000000 1.0
C      1  0.4071480000000  0.4800830000000  0.4978610000000 1.0
C      1  0.5249200000000  0.5879610000000  0.4986800000000 1.0
C      1  0.5511280000000  0.5795870000000  0.4982200000000 1.0
C      1  0.4003240000000  0.5068550000000  0.4970810000000 1.0
C      1  0.5295920000000  0.4121010000000  0.5060480000000 1.0
C      1  0.5477050000000  0.4715070000000  0.4525400000000 1.0
C      1  0.4564970000000  0.4720250000000  0.4488690000000 1.0
C      1  0.4995380000000  0.5535410000000  0.4536170000000 1.0
C      1  0.5483940000000  0.5226170000000  0.5509130000000 1.0
C      1  0.4597920000000  0.5242420000000  0.5456060000000 1.0
C      1  0.4960180000000  0.4530070000000  0.5437110000000 1.0
C      1  0.4679830000000  0.4442060000000  0.4610820000000 1.0
C      1  0.4697130000000  0.5571170000000  0.4618060000000 1.0
C      1  0.5649510000000  0.4975760000000  0.4608280000000 1.0
C      1  0.4704810000000  0.5542520000000  0.5429210000000 1.0
C      1  0.4680340000000  0.4451150000000  0.5407130000000 1.0
C      1  0.5691060000000  0.4970590000000  0.5422310000000 1.0
C      1  0.5045900000000  0.4559300000000  0.5047950000000 1.0
C      1  0.4462930000000  0.5234280000000  0.4947260000000 1.0
C      1  0.5436350000000  0.5304300000000  0.4974670000000 1.0
C      1  0.4993340000000  0.5409620000000  0.5072190000000 1.0
C      1  0.4576990000000  0.4830100000000  0.4991820000000 1.0
C      1  0.5408610000000  0.4690480000000  0.4943920000000 1.0
END
