TITL C-1154803-8277-22 0.000140784729616821 125000 -316.290282976472 0 0 60 (C1) n - 1
REM
REM in /home/nfs/bkarasulu/CARBON/AIRSS/Generating-Clusters/AIREBO/Higher-Symm/Only-C60
REM
REM
REM
REM
REM
REM ./C.cell (28575a23ae977d3b5fae324c64b13b57)
REM
REM compiler GCC version 9.2.1 20190827 (Red Hat 9.2.1-1)
REM options -cpp -mtune=generic -march=x86-64 -g -O0 -fpre-include=/usr/include/finclude/math-vector-fortran.h
REM seed 1159251619 1326411966 1648015949 -2116195096 1826460431 -1495620466 2103513202 690290779 639717396 437911178 -1913490066 697079954 -1743411368 716638761 -1188812208 2011154338 790143197 886026827 -1611964430 -806526960 -716624743 -268523220 -1075038189 1464918538 -1393814009 1635513238 -465835265 -739900170 970200702 -871814965 146148640 930387345 -1166843282
REM
CELL 1.54180   50.00000   50.00000   50.00000   90.00000   90.00000   90.00000
LATT -1
SFAC C  
C      1  0.4831040000000  0.5671380000000  0.4916130000000 1.0
C      1  0.5730200000000  0.5205980000000  0.5089130000000 1.0
C      1  0.5162160000000  0.4337040000000  0.4918670000000 1.0
C      1  0.4304960000000  0.4812830000000  0.5065890000000 1.0
C      1  0.4713920000000  0.4552450000000  0.4986230000000 1.0
C      1  0.4499270000000  0.5309170000000  0.5037570000000 1.0
C      1  0.5302560000000  0.5461600000000  0.4979880000000 1.0
C      1  0.5473510000000  0.4727510000000  0.5049730000000 1.0
C      1  0.4443040000000  0.4972820000000  0.4545310000000 1.0
C      1  0.4975790000000  0.5571770000000  0.5432920000000 1.0
C      1  0.5582930000000  0.5022400000000  0.4564900000000 1.0
C      1  0.5017010000000  0.4414380000000  0.5438460000000 1.0
C      1  0.5159180000000  0.4833380000000  0.4462740000000 1.0
C      1  0.4907210000000  0.4843140000000  0.5567610000000 1.0
C      1  0.4802480000000  0.5226870000000  0.4295610000000 1.0
C      1  0.5104410000000  0.5108600000000  0.5532760000000 1.0
C      1  0.5239940000000  0.4562240000000  0.4770690000000 1.0
C      1  0.4492210000000  0.4736350000000  0.5263130000000 1.0
C      1  0.4747650000000  0.5453480000000  0.4760760000000 1.0
C      1  0.5526850000000  0.5296450000000  0.5265930000000 1.0
C      1  0.4986420000000  0.4727110000000  0.5090430000000 1.0
C      1  0.4649610000000  0.5024220000000  0.4966170000000 1.0
C      1  0.5020110000000  0.5304090000000  0.5065620000000 1.0
C      1  0.5345280000000  0.5008950000000  0.4935230000000 1.0
C      1  0.4315760000000  0.5171230000000  0.4710960000000 1.0
C      1  0.5177320000000  0.5698420000000  0.5274770000000 1.0
C      1  0.5699540000000  0.4832870000000  0.4738950000000 1.0
C      1  0.4814740000000  0.4299900000000  0.5276870000000 1.0
C      1  0.4585060000000  0.5057460000000  0.4318160000000 1.0
C      1  0.5046600000000  0.5392860000000  0.5629490000000 1.0
C      1  0.5399390000000  0.4913350000000  0.4379000000000 1.0
C      1  0.4935380000000  0.4589030000000  0.5642970000000 1.0
C      1  0.4636170000000  0.5741280000000  0.5136830000000 1.0
C      1  0.5763590000000  0.5381840000000  0.4848190000000 1.0
C      1  0.5361780000000  0.4268940000000  0.5132200000000 1.0
C      1  0.4291310000000  0.4623360000000  0.4830730000000 1.0
C      1  0.4454200000000  0.5438830000000  0.4715020000000 1.0
C      1  0.5457870000000  0.5581950000000  0.5275040000000 1.0
C      1  0.5537180000000  0.4578450000000  0.4739020000000 1.0
C      1  0.4550850000000  0.4448310000000  0.5283580000000 1.0
C      1  0.4773380000000  0.4925100000000  0.5266760000000 1.0
C      1  0.4900960000000  0.5151070000000  0.4788000000000 1.0
C      1  0.5260700000000  0.5130120000000  0.5231440000000 1.0
C      1  0.5079610000000  0.4861500000000  0.4792260000000 1.0
C      1  0.4896880000000  0.4280820000000  0.4982850000000 1.0
C      1  0.4254990000000  0.5079880000000  0.4998060000000 1.0
C      1  0.5096310000000  0.5723080000000  0.4981010000000 1.0
C      1  0.5744960000000  0.4931020000000  0.5027340000000 1.0
C      1  0.4588320000000  0.4774950000000  0.4763860000000 1.0
C      1  0.4751360000000  0.5434630000000  0.5228300000000 1.0
C      1  0.5458060000000  0.5270300000000  0.4749040000000 1.0
C      1  0.5244840000000  0.4567950000000  0.5244430000000 1.0
C      1  0.4540650000000  0.5212810000000  0.5656330000000 1.0
C      1  0.5252160000000  0.5372520000000  0.4506510000000 1.0
C      1  0.5482890000000  0.4600880000000  0.5518430000000 1.0
C      1  0.4792060000000  0.4462860000000  0.4405930000000 1.0
C      1  0.4668390000000  0.5196160000000  0.5431310000000 1.0
C      1  0.5001280000000  0.5267920000000  0.4491200000000 1.0
C      1  0.5302090000000  0.4851930000000  0.5422630000000 1.0
C      1  0.4865650000000  0.4702210000000  0.4581000000000 1.0
END
