TITL C-1154823-9327-479 -0.0278415336177849 125000 -302.465241166501 0 0 60 (C1) n - 1
REM
REM in /home/nfs/bkarasulu/CARBON/AIRSS/Generating-Clusters/AIREBO/Higher-Symm/Only-C60
REM
REM
REM
REM
REM
REM ./C.cell (28575a23ae977d3b5fae324c64b13b57)
REM
REM compiler GCC version 9.2.1 20190827 (Red Hat 9.2.1-1)
REM options -cpp -mtune=generic -march=x86-64 -g -O0 -fpre-include=/usr/include/finclude/math-vector-fortran.h
REM seed -1282509593 -70655512 -2055851576 -225658787 1405554169 202561584 -145502790 -1520942390 567030080 -2037054324 -260579563 1385567153 553537422 1474804410 1544910560 1316891568 26100598 -1311767130 -996830865 -1530754958 1570797212 -61856545 -631931044 -158284014 579465921 760839891 1837600918 1817589780 283179371 1030228295 1670788536 2054992285 478290510
REM
CELL 1.54180   50.00000   50.00000   50.00000   90.00000   90.00000   90.00000
LATT -1
SFAC C  
C      1  0.5359370000000  0.5405830000000  0.5046290000000 1.0
C      1  0.4753150000000  0.5549730000000  0.5149170000000 1.0
C      1  0.4407280000000  0.5055450000000  0.5160960000000 1.0
C      1  0.4650470000000  0.4436260000000  0.5137960000000 1.0
C      1  0.5159750000000  0.4400650000000  0.5236690000000 1.0
C      1  0.5493970000000  0.4880680000000  0.5149920000000 1.0
C      1  0.5391340000000  0.5400970000000  0.4733810000000 1.0
C      1  0.4888640000000  0.5529270000000  0.4862080000000 1.0
C      1  0.4504190000000  0.5180090000000  0.4895950000000 1.0
C      1  0.4645370000000  0.4658300000000  0.4916610000000 1.0
C      1  0.5202040000000  0.4499670000000  0.4940590000000 1.0
C      1  0.5608910000000  0.4942100000000  0.4866330000000 1.0
C      1  0.5689830000000  0.4806530000000  0.5390940000000 1.0
C      1  0.5480590000000  0.5483120000000  0.5353460000000 1.0
C      1  0.4710930000000  0.5526720000000  0.5470020000000 1.0
C      1  0.4343690000000  0.4959400000000  0.5456270000000 1.0
C      1  0.4631190000000  0.4360850000000  0.5457700000000 1.0
C      1  0.5326760000000  0.4371820000000  0.5473880000000 1.0
C      1  0.5677670000000  0.4907420000000  0.4549510000000 1.0
C      1  0.5375830000000  0.5615370000000  0.4563980000000 1.0
C      1  0.4837430000000  0.5781480000000  0.4674600000000 1.0
C      1  0.4300590000000  0.5244270000000  0.4657600000000 1.0
C      1  0.4509000000000  0.4590380000000  0.4612630000000 1.0
C      1  0.5108470000000  0.4341170000000  0.4673980000000 1.0
C      1  0.4944700000000  0.5288070000000  0.5251800000000 1.0
C      1  0.4708040000000  0.5052340000000  0.5320990000000 1.0
C      1  0.4744240000000  0.4714490000000  0.5310960000000 1.0
C      1  0.5032330000000  0.4636590000000  0.5419100000000 1.0
C      1  0.5262160000000  0.4859930000000  0.5397940000000 1.0
C      1  0.5259870000000  0.5169080000000  0.5269540000000 1.0
C      1  0.5017740000000  0.5345620000000  0.4606560000000 1.0
C      1  0.4717560000000  0.5242320000000  0.4646730000000 1.0
C      1  0.4733000000000  0.4907150000000  0.4701960000000 1.0
C      1  0.5008900000000  0.4713540000000  0.4759220000000 1.0
C      1  0.5318680000000  0.4846010000000  0.4713370000000 1.0
C      1  0.5264310000000  0.5146320000000  0.4584210000000 1.0
C      1  0.4798320000000  0.4517870000000  0.4577650000000 1.0
C      1  0.5321180000000  0.4561770000000  0.4565430000000 1.0
C      1  0.5499030000000  0.5017050000000  0.4401170000000 1.0
C      1  0.5115380000000  0.5622200000000  0.4435370000000 1.0
C      1  0.4692640000000  0.5556560000000  0.4516910000000 1.0
C      1  0.4432600000000  0.4980630000000  0.4559280000000 1.0
C      1  0.4827110000000  0.4449430000000  0.5597370000000 1.0
C      1  0.5394530000000  0.4619340000000  0.5585030000000 1.0
C      1  0.5543570000000  0.5133690000000  0.5453770000000 1.0
C      1  0.5149350000000  0.5537770000000  0.5358630000000 1.0
C      1  0.4683500000000  0.5286570000000  0.5553560000000 1.0
C      1  0.4507730000000  0.4779290000000  0.5532440000000 1.0
C      1  0.4857930000000  0.4169620000000  0.4752150000000 1.0
C      1  0.5511750000000  0.4440590000000  0.5054230000000 1.0
C      1  0.5793140000000  0.5186850000000  0.4988650000000 1.0
C      1  0.5118310000000  0.5842510000000  0.4768780000000 1.0
C      1  0.4332220000000  0.5520530000000  0.4778220000000 1.0
C      1  0.4271550000000  0.4671360000000  0.4776220000000 1.0
C      1  0.4731850000000  0.4168720000000  0.4974440000000 1.0
C      1  0.5638460000000  0.4531920000000  0.5280960000000 1.0
C      1  0.5732820000000  0.5344800000000  0.5174690000000 1.0
C      1  0.5275510000000  0.5721790000000  0.4959040000000 1.0
C      1  0.4466340000000  0.5603360000000  0.5004020000000 1.0
C      1  0.4237190000000  0.4886800000000  0.4938610000000 1.0
END
