TITL C-1154801-8518-542 0.00675782511244478 125000 -314.947611092038 0 0 60 (C1) n - 1
REM
REM in /home/nfs/bkarasulu/CARBON/AIRSS/Generating-Clusters/AIREBO/Higher-Symm/Only-C60
REM
REM
REM
REM
REM
REM ./C.cell (28575a23ae977d3b5fae324c64b13b57)
REM
REM compiler GCC version 9.2.1 20190827 (Red Hat 9.2.1-1)
REM options -cpp -mtune=generic -march=x86-64 -g -O0 -fpre-include=/usr/include/finclude/math-vector-fortran.h
REM seed -511213431 314455365 -1297933645 -2003338555 137508910 1731659592 -1654945540 14720828 304574341 638381625 671734696 1293468904 525930554 1868442033 -1812629116 -591948571 -987787270 966338446 -1738417518 -447630789 -1339067059 1744034738 1347972121 -1832930850 928902878 1742170709 -1901055299 -1124486684 -847772638 1158757459 567412072 -1264376009 1748399324
REM
CELL 1.54180   50.00000   50.00000   50.00000   90.00000   90.00000   90.00000
LATT -1
SFAC C  
C      1  0.5320220000000  0.4289690000000  0.5142850000000 1.0
C      1  0.4323570000000  0.5143830000000  0.5317170000000 1.0
C      1  0.4995850000000  0.5131320000000  0.4308770000000 1.0
C      1  0.4801910000000  0.5751100000000  0.5076980000000 1.0
C      1  0.5264560000000  0.5627470000000  0.4811660000000 1.0
C      1  0.4908690000000  0.4337710000000  0.4679630000000 1.0
C      1  0.5668220000000  0.4879550000000  0.5351170000000 1.0
C      1  0.4203460000000  0.4913860000000  0.4819620000000 1.0
C      1  0.5702850000000  0.5091260000000  0.4781490000000 1.0
C      1  0.4809500000000  0.4807520000000  0.4493140000000 1.0
C      1  0.5086880000000  0.4776910000000  0.5713510000000 1.0
C      1  0.4889280000000  0.5358690000000  0.5651620000000 1.0
C      1  0.5385610000000  0.4258380000000  0.4900400000000 1.0
C      1  0.4174560000000  0.5176750000000  0.4819320000000 1.0
C      1  0.5138820000000  0.5326130000000  0.5642580000000 1.0
C      1  0.4839190000000  0.5743870000000  0.4819560000000 1.0
C      1  0.5297120000000  0.5645850000000  0.5062960000000 1.0
C      1  0.4793700000000  0.4359380000000  0.4920610000000 1.0
C      1  0.5727420000000  0.4855360000000  0.4842850000000 1.0
C      1  0.4330900000000  0.4895460000000  0.5261230000000 1.0
C      1  0.5665340000000  0.5129210000000  0.5322580000000 1.0
C      1  0.4830180000000  0.4801540000000  0.5721480000000 1.0
C      1  0.5035340000000  0.4750930000000  0.4424980000000 1.0
C      1  0.4775910000000  0.5219500000000  0.4392210000000 1.0
C      1  0.4824010000000  0.4517380000000  0.5183590000000 1.0
C      1  0.4422260000000  0.5365630000000  0.4875190000000 1.0
C      1  0.5338890000000  0.4769740000000  0.4516450000000 1.0
C      1  0.5154860000000  0.5429730000000  0.5256930000000 1.0
C      1  0.4928690000000  0.5447810000000  0.4682500000000 1.0
C      1  0.5367780000000  0.4529090000000  0.4695240000000 1.0
C      1  0.5573750000000  0.4606880000000  0.4942250000000 1.0
C      1  0.4628370000000  0.4741340000000  0.5202600000000 1.0
C      1  0.5444880000000  0.5285180000000  0.5149050000000 1.0
C      1  0.4645900000000  0.5274050000000  0.4693520000000 1.0
C      1  0.5276100000000  0.5151620000000  0.5410450000000 1.0
C      1  0.4674120000000  0.4937940000000  0.5458820000000 1.0
C      1  0.5164210000000  0.4314750000000  0.4574650000000 1.0
C      1  0.4500950000000  0.5367560000000  0.5190980000000 1.0
C      1  0.5284120000000  0.4858450000000  0.5456340000000 1.0
C      1  0.5239780000000  0.5319450000000  0.4670360000000 1.0
C      1  0.4855940000000  0.5482140000000  0.5273300000000 1.0
C      1  0.5149910000000  0.4520010000000  0.5271070000000 1.0
C      1  0.5444520000000  0.4678410000000  0.5216970000000 1.0
C      1  0.4500820000000  0.4792150000000  0.4915870000000 1.0
C      1  0.5516460000000  0.5322380000000  0.4859560000000 1.0
C      1  0.4698370000000  0.5232280000000  0.5423710000000 1.0
C      1  0.5237670000000  0.5091790000000  0.4474710000000 1.0
C      1  0.4603630000000  0.4946190000000  0.4660580000000 1.0
C      1  0.4518480000000  0.4826960000000  0.5740700000000 1.0
C      1  0.5544300000000  0.4942830000000  0.4335930000000 1.0
C      1  0.4290950000000  0.5620300000000  0.5005900000000 1.0
C      1  0.4890410000000  0.4316500000000  0.5433340000000 1.0
C      1  0.5771500000000  0.4371330000000  0.4975220000000 1.0
C      1  0.4224920000000  0.4602220000000  0.4847860000000 1.0
C      1  0.5662670000000  0.5589850000000  0.4809960000000 1.0
C      1  0.4751770000000  0.5789510000000  0.5382060000000 1.0
C      1  0.4888170000000  0.5739550000000  0.4510130000000 1.0
C      1  0.5250740000000  0.4138270000000  0.4384680000000 1.0
C      1  0.4368840000000  0.5075180000000  0.4485230000000 1.0
C      1  0.5392180000000  0.4734300000000  0.5755980000000 1.0
END
