TITL C-1154826-9507-685 -0.000235600731439865 125000 -326.17828275391 0 0 60 (C1) n - 1
REM
REM in /home/nfs/bkarasulu/CARBON/AIRSS/Generating-Clusters/AIREBO/Higher-Symm/Only-C60
REM
REM
REM
REM
REM
REM ./C.cell (28575a23ae977d3b5fae324c64b13b57)
REM
REM compiler GCC version 9.2.1 20190827 (Red Hat 9.2.1-1)
REM options -cpp -mtune=generic -march=x86-64 -g -O0 -fpre-include=/usr/include/finclude/math-vector-fortran.h
REM seed -635494112 2017327648 1214348377 607991957 -932825742 716192699 -757403392 -1379078672 -1485502721 1461606785 -845870109 256295049 1983125733 223885160 -114045607 1670834406 -338901657 -1767208380 39086541 61243849 758676076 -972773660 1684123366 1097462678 678795516 -1739289328 -1252718903 -1343379526 634451405 2082624295 1954337662 1351521894 874263759
REM
CELL 1.54180   50.00000   50.00000   50.00000   90.00000   90.00000   90.00000
LATT -1
SFAC C  
C      1  0.5476150000000  0.4417450000000  0.4762680000000 1.0
C      1  0.5089280000000  0.5375780000000  0.4728480000000 1.0
C      1  0.4804940000000  0.4303540000000  0.4802940000000 1.0
C      1  0.4701730000000  0.5489930000000  0.5482840000000 1.0
C      1  0.5274000000000  0.5560260000000  0.4927870000000 1.0
C      1  0.5253130000000  0.4507530000000  0.5572660000000 1.0
C      1  0.4770930000000  0.5448190000000  0.4499090000000 1.0
C      1  0.5356570000000  0.4570150000000  0.5253990000000 1.0
C      1  0.4756400000000  0.5206420000000  0.5303260000000 1.0
C      1  0.5435370000000  0.5256130000000  0.5335270000000 1.0
C      1  0.5170190000000  0.4990100000000  0.4363020000000 1.0
C      1  0.4903600000000  0.4348070000000  0.5074900000000 1.0
C      1  0.5216940000000  0.5427130000000  0.5468140000000 1.0
C      1  0.5282190000000  0.4292780000000  0.4609070000000 1.0
C      1  0.4575440000000  0.4473780000000  0.4885240000000 1.0
C      1  0.5064370000000  0.5513120000000  0.4417600000000 1.0
C      1  0.4988510000000  0.4550370000000  0.5639880000000 1.0
C      1  0.4344990000000  0.5132650000000  0.4787980000000 1.0
C      1  0.5387990000000  0.4903620000000  0.4611670000000 1.0
C      1  0.5604170000000  0.4684000000000  0.4686470000000 1.0
C      1  0.4832950000000  0.4678200000000  0.4469370000000 1.0
C      1  0.4415020000000  0.5022660000000  0.4549810000000 1.0
C      1  0.5247110000000  0.5031630000000  0.5458010000000 1.0
C      1  0.5318970000000  0.5345200000000  0.4480650000000 1.0
C      1  0.5057090000000  0.4640460000000  0.5155960000000 1.0
C      1  0.4982790000000  0.4957340000000  0.5254980000000 1.0
C      1  0.4374850000000  0.5094540000000  0.5312060000000 1.0
C      1  0.5545790000000  0.5544810000000  0.4908360000000 1.0
C      1  0.4724180000000  0.5601600000000  0.5024950000000 1.0
C      1  0.5546500000000  0.5187470000000  0.4540370000000 1.0
C      1  0.4999500000000  0.5076900000000  0.4102160000000 1.0
C      1  0.5012850000000  0.5140190000000  0.4969600000000 1.0
C      1  0.4426860000000  0.5387400000000  0.4866660000000 1.0
C      1  0.4718420000000  0.4939990000000  0.4551640000000 1.0
C      1  0.4982300000000  0.4405270000000  0.4590290000000 1.0
C      1  0.4592370000000  0.4798030000000  0.5612620000000 1.0
C      1  0.4354830000000  0.4641180000000  0.4971420000000 1.0
C      1  0.5164680000000  0.4676070000000  0.4493320000000 1.0
C      1  0.4726810000000  0.4981340000000  0.4875400000000 1.0
C      1  0.4680520000000  0.4489560000000  0.5543990000000 1.0
C      1  0.4685980000000  0.4453190000000  0.5267850000000 1.0
C      1  0.4808040000000  0.5705670000000  0.5336700000000 1.0
C      1  0.4887680000000  0.4827120000000  0.5554380000000 1.0
C      1  0.5522830000000  0.5178370000000  0.5066660000000 1.0
C      1  0.5300820000000  0.5023020000000  0.4902730000000 1.0
C      1  0.4879140000000  0.5159230000000  0.4410870000000 1.0
C      1  0.5764680000000  0.4753910000000  0.4938830000000 1.0
C      1  0.5563920000000  0.4525100000000  0.5047640000000 1.0
C      1  0.4658290000000  0.5253890000000  0.5683800000000 1.0
C      1  0.5802280000000  0.5022590000000  0.4987690000000 1.0
C      1  0.4419150000000  0.4943810000000  0.5026670000000 1.0
C      1  0.5010810000000  0.5450060000000  0.5109750000000 1.0
C      1  0.5402630000000  0.4780440000000  0.5513340000000 1.0
C      1  0.4742460000000  0.4711480000000  0.5048280000000 1.0
C      1  0.5695800000000  0.5278780000000  0.4793220000000 1.0
C      1  0.4979920000000  0.5216120000000  0.5559300000000 1.0
C      1  0.5113890000000  0.5675190000000  0.5343480000000 1.0
C      1  0.4473200000000  0.5050080000000  0.5576260000000 1.0
C      1  0.4637890000000  0.5532970000000  0.4719570000000 1.0
C      1  0.4489320000000  0.5368140000000  0.5168370000000 1.0
END
