TITL C-1154827-9204-30 -188.736727368698 125000 -336.200217761619 0 0 60 (C1) n - 1
REM
REM in /home/nfs/bkarasulu/CARBON/AIRSS/Generating-Clusters/AIREBO/Higher-Symm/Only-C60
REM
REM
REM
REM
REM
REM ./C.cell (28575a23ae977d3b5fae324c64b13b57)
REM
REM compiler GCC version 9.2.1 20190827 (Red Hat 9.2.1-1)
REM options -cpp -mtune=generic -march=x86-64 -g -O0 -fpre-include=/usr/include/finclude/math-vector-fortran.h
REM seed 29046101 1181791464 -1567185262 2106336792 -946095094 1366836325 31369480 -1700981825 -1694218959 2025689990 256981825 -175766772 1991298715 -1791147260 -1883281200 868766966 -1574217316 -1441166037 -196097243 -1823995008 1341462324 834542371 845325159 1575248657 -222488172 960557957 -69587516 -1951528437 -1193041148 -408845545 1309443576 -1216811942 212676932
REM
CELL 1.54180   50.00000   50.00000   50.00000   90.00000   90.00000   90.00000
LATT -1
SFAC C  
C      1  0.4044900000000  0.5023130000000  0.5116270000000 1.0
C      1  0.5970880000000  0.5059350000000  0.4831750000000 1.0
C      1  0.4155500000000  0.4759910000000  0.5129500000000 1.0
C      1  0.5852790000000  0.4823800000000  0.5022860000000 1.0
C      1  0.4858300000000  0.5174710000000  0.4612400000000 1.0
C      1  0.5109000000000  0.5153050000000  0.5344820000000 1.0
C      1  0.4854160000000  0.4881080000000  0.4628170000000 1.0
C      1  0.5110060000000  0.4843060000000  0.5371340000000 1.0
C      1  0.4584500000000  0.5264050000000  0.4431670000000 1.0
C      1  0.5388270000000  0.5265730000000  0.5502740000000 1.0
C      1  0.4589040000000  0.4714060000000  0.4500010000000 1.0
C      1  0.5423300000000  0.4748800000000  0.5427360000000 1.0
C      1  0.4427580000000  0.4723170000000  0.4980440000000 1.0
C      1  0.5537040000000  0.4693810000000  0.5008500000000 1.0
C      1  0.4518380000000  0.5307270000000  0.4905400000000 1.0
C      1  0.5439020000000  0.5333150000000  0.5042200000000 1.0
C      1  0.4448080000000  0.5162600000000  0.5395790000000 1.0
C      1  0.5571080000000  0.5172460000000  0.4561380000000 1.0
C      1  0.4441160000000  0.4847030000000  0.5499940000000 1.0
C      1  0.5523620000000  0.4860150000000  0.4611490000000 1.0
C      1  0.4865440000000  0.5296060000000  0.4292410000000 1.0
C      1  0.5171520000000  0.5095670000000  0.5675220000000 1.0
C      1  0.4838740000000  0.4756960000000  0.4310490000000 1.0
C      1  0.5207910000000  0.4759920000000  0.5690220000000 1.0
C      1  0.5627650000000  0.4909280000000  0.5254550000000 1.0
C      1  0.4455850000000  0.4867370000000  0.4713160000000 1.0
C      1  0.5543890000000  0.5204300000000  0.5263780000000 1.0
C      1  0.4465840000000  0.5150260000000  0.4683830000000 1.0
C      1  0.5325620000000  0.5337170000000  0.4458730000000 1.0
C      1  0.4712580000000  0.5320720000000  0.5503100000000 1.0
C      1  0.5285130000000  0.4699680000000  0.4491810000000 1.0
C      1  0.4686400000000  0.4675200000000  0.5567320000000 1.0
C      1  0.4921830000000  0.4677240000000  0.5170830000000 1.0
C      1  0.5007200000000  0.4771850000000  0.4856770000000 1.0
C      1  0.4951260000000  0.5244640000000  0.5126930000000 1.0
C      1  0.5042620000000  0.5287960000000  0.4817320000000 1.0
C      1  0.5136550000000  0.5165650000000  0.4325740000000 1.0
C      1  0.4849750000000  0.5150880000000  0.5678310000000 1.0
C      1  0.5120930000000  0.4867130000000  0.4331230000000 1.0
C      1  0.4875560000000  0.4831690000000  0.5693730000000 1.0
C      1  0.4659900000000  0.4488910000000  0.5062810000000 1.0
C      1  0.5329160000000  0.4465520000000  0.4951110000000 1.0
C      1  0.4768320000000  0.5506510000000  0.5008120000000 1.0
C      1  0.5292080000000  0.5597320000000  0.4982500000000 1.0
C      1  0.5150810000000  0.4426140000000  0.5159940000000 1.0
C      1  0.4914500000000  0.4447760000000  0.4841250000000 1.0
C      1  0.5059530000000  0.5677260000000  0.5218920000000 1.0
C      1  0.4996040000000  0.5624780000000  0.4820030000000 1.0
C      1  0.4190880000000  0.4687070000000  0.5397160000000 1.0
C      1  0.5789240000000  0.4727640000000  0.4703000000000 1.0
C      1  0.4157580000000  0.5215190000000  0.5284850000000 1.0
C      1  0.5863720000000  0.5204880000000  0.4657280000000 1.0
C      1  0.5204910000000  0.4482270000000  0.4667790000000 1.0
C      1  0.4685730000000  0.4452620000000  0.5400080000000 1.0
C      1  0.5275040000000  0.5557540000000  0.4637690000000 1.0
C      1  0.4805220000000  0.5543810000000  0.5344170000000 1.0
C      1  0.4628000000000  0.4854530000000  0.5215500000000 1.0
C      1  0.5291680000000  0.4852380000000  0.4860110000000 1.0
C      1  0.4654240000000  0.5152380000000  0.5145880000000 1.0
C      1  0.5344510000000  0.5155500000000  0.4812320000000 1.0
END
