TITL C-1154802-8274-105 -0.000391242416382641 125000 -359.054225920781 0 0 60 (C1) n - 1
REM
REM in /home/nfs/bkarasulu/CARBON/AIRSS/Generating-Clusters/AIREBO/Higher-Symm/Only-C60
REM
REM
REM
REM
REM
REM ./C.cell (28575a23ae977d3b5fae324c64b13b57)
REM
REM compiler GCC version 9.2.1 20190827 (Red Hat 9.2.1-1)
REM options -cpp -mtune=generic -march=x86-64 -g -O0 -fpre-include=/usr/include/finclude/math-vector-fortran.h
REM seed 866922871 -1217349729 -561419274 1282652863 1274413556 -2043717804 -952524425 -854736514 -1654246080 1585376251 -109818777 665023474 237993968 -1212294274 295449748 -500256305 228858446 -1289535202 -1142736786 82721386 345466168 530887095 -36898250 -65066886 989097878 1200867874 -278182283 1713754156 314381641 -1898529806 -1893670602 964545467 -1237062939
REM
CELL 1.54180   50.00000   50.00000   50.00000   90.00000   90.00000   90.00000
LATT -1
SFAC C  
C      1  0.5552310000000  0.4819020000000  0.4534530000000 1.0
C      1  0.4255070000000  0.4844080000000  0.4766460000000 1.0
C      1  0.5149970000000  0.4822520000000  0.5657380000000 1.0
C      1  0.5571670000000  0.5157040000000  0.5460430000000 1.0
C      1  0.4269570000000  0.5156180000000  0.5239840000000 1.0
C      1  0.5156360000000  0.5192660000000  0.4369660000000 1.0
C      1  0.4451480000000  0.5184690000000  0.5479710000000 1.0
C      1  0.5766780000000  0.5194290000000  0.5233960000000 1.0
C      1  0.4843900000000  0.5161190000000  0.4352410000000 1.0
C      1  0.4429530000000  0.4802620000000  0.4523530000000 1.0
C      1  0.5727440000000  0.4858220000000  0.4779010000000 1.0
C      1  0.4837130000000  0.4801120000000  0.5643650000000 1.0
C      1  0.4342390000000  0.5279640000000  0.5003310000000 1.0
C      1  0.5316670000000  0.5264560000000  0.5470360000000 1.0
C      1  0.5367960000000  0.5298040000000  0.4514540000000 1.0
C      1  0.4323960000000  0.4715690000000  0.5002080000000 1.0
C      1  0.5287210000000  0.4736980000000  0.4538150000000 1.0
C      1  0.5357160000000  0.4699130000000  0.5516170000000 1.0
C      1  0.5647740000000  0.4744660000000  0.5019230000000 1.0
C      1  0.4689290000000  0.4705750000000  0.4517970000000 1.0
C      1  0.4625500000000  0.4701530000000  0.5493870000000 1.0
C      1  0.5684550000000  0.5310020000000  0.4996060000000 1.0
C      1  0.4718830000000  0.5260050000000  0.5470160000000 1.0
C      1  0.4640090000000  0.5273440000000  0.4507530000000 1.0
C      1  0.4519690000000  0.5763890000000  0.5096540000000 1.0
C      1  0.5274120000000  0.5729710000000  0.5256290000000 1.0
C      1  0.5136860000000  0.5694130000000  0.4648150000000 1.0
C      1  0.4551770000000  0.4272650000000  0.4860360000000 1.0
C      1  0.5226960000000  0.4239720000000  0.4702450000000 1.0
C      1  0.5124710000000  0.4311510000000  0.5351250000000 1.0
C      1  0.5436240000000  0.4296820000000  0.4867960000000 1.0
C      1  0.4766520000000  0.4219510000000  0.4700710000000 1.0
C      1  0.4853680000000  0.4306900000000  0.5347860000000 1.0
C      1  0.5494030000000  0.5786680000000  0.5105470000000 1.0
C      1  0.4744740000000  0.5719200000000  0.5243730000000 1.0
C      1  0.4866640000000  0.5677360000000  0.4637820000000 1.0
C      1  0.4665150000000  0.4504880000000  0.5298080000000 1.0
C      1  0.5405410000000  0.4561000000000  0.5029660000000 1.0
C      1  0.4820140000000  0.4547030000000  0.4749100000000 1.0
C      1  0.4685180000000  0.5475660000000  0.4697640000000 1.0
C      1  0.5434410000000  0.5483720000000  0.4985560000000 1.0
C      1  0.4844230000000  0.5421570000000  0.5240430000000 1.0
C      1  0.5329870000000  0.5501860000000  0.4702930000000 1.0
C      1  0.4587970000000  0.5459530000000  0.4983930000000 1.0
C      1  0.5184430000000  0.5429240000000  0.5245200000000 1.0
C      1  0.5311720000000  0.4512790000000  0.5310700000000 1.0
C      1  0.4571680000000  0.4541280000000  0.5015870000000 1.0
C      1  0.5160290000000  0.4564920000000  0.4759860000000 1.0
C      1  0.5596830000000  0.5134600000000  0.4524840000000 1.0
C      1  0.4233210000000  0.5158480000000  0.4775630000000 1.0
C      1  0.5164770000000  0.5144820000000  0.5668700000000 1.0
C      1  0.5596830000000  0.4847320000000  0.5513200000000 1.0
C      1  0.4224700000000  0.4844030000000  0.5230870000000 1.0
C      1  0.5130420000000  0.4886340000000  0.4369130000000 1.0
C      1  0.4400010000000  0.4869480000000  0.5482240000000 1.0
C      1  0.5749890000000  0.4873690000000  0.5246100000000 1.0
C      1  0.4841910000000  0.4838840000000  0.4329320000000 1.0
C      1  0.4404100000000  0.5120410000000  0.4522660000000 1.0
C      1  0.5774690000000  0.5169900000000  0.4771630000000 1.0
C      1  0.4873670000000  0.5107380000000  0.5638140000000 1.0
END
