TITL C-1154810-7815-164 8.15790937860508e-05 125000 -329.276243471384 0 0 60 (C1) n - 1
REM
REM in /home/nfs/bkarasulu/CARBON/AIRSS/Generating-Clusters/AIREBO/Higher-Symm/Only-C60
REM
REM
REM
REM
REM
REM ./C.cell (28575a23ae977d3b5fae324c64b13b57)
REM
REM compiler GCC version 9.2.1 20190827 (Red Hat 9.2.1-1)
REM options -cpp -mtune=generic -march=x86-64 -g -O0 -fpre-include=/usr/include/finclude/math-vector-fortran.h
REM seed -1467806190 -2055434341 1980960139 -629968573 -984750387 2091219041 -1935414568 802940038 -647402847 1094971384 1122777504 -840178072 1765255285 -1010204409 -1840874843 1748636928 1143529040 -1739898761 -1198342830 1205457316 -2019372531 610673450 333466919 -1883208284 -2012799560 -576856039 -1712136877 318376824 936459383 1871531293 -1381957573 -1155236861 1119331669
REM
CELL 1.54180   50.00000   50.00000   50.00000   90.00000   90.00000   90.00000
LATT -1
SFAC C  
C      1  0.5213780000000  0.4887930000000  0.4829940000000 1.0
C      1  0.5113700000000  0.5202800000000  0.4910310000000 1.0
C      1  0.5161980000000  0.5153300000000  0.5243220000000 1.0
C      1  0.5166980000000  0.4707350000000  0.5096460000000 1.0
C      1  0.4839950000000  0.5126370000000  0.4723670000000 1.0
C      1  0.4878150000000  0.4830230000000  0.4851760000000 1.0
C      1  0.4848100000000  0.4807500000000  0.5160910000000 1.0
C      1  0.4831400000000  0.5120540000000  0.5212470000000 1.0
C      1  0.5148270000000  0.5219800000000  0.4348720000000 1.0
C      1  0.5099470000000  0.5628430000000  0.5262240000000 1.0
C      1  0.5116000000000  0.4741580000000  0.5641870000000 1.0
C      1  0.5120400000000  0.4356050000000  0.4717680000000 1.0
C      1  0.4861010000000  0.4740210000000  0.4378870000000 1.0
C      1  0.4841930000000  0.4363060000000  0.5302250000000 1.0
C      1  0.4852320000000  0.5261070000000  0.5637280000000 1.0
C      1  0.4797350000000  0.5620630000000  0.4788750000000 1.0
C      1  0.4844310000000  0.4455520000000  0.4553860000000 1.0
C      1  0.4825140000000  0.5519360000000  0.4526070000000 1.0
C      1  0.4825550000000  0.5538790000000  0.5442850000000 1.0
C      1  0.4827660000000  0.4581480000000  0.5562530000000 1.0
C      1  0.5103680000000  0.5479030000000  0.4462230000000 1.0
C      1  0.5146470000000  0.4566280000000  0.4444850000000 1.0
C      1  0.5121340000000  0.4436800000000  0.5485180000000 1.0
C      1  0.5132470000000  0.5454450000000  0.5554170000000 1.0
C      1  0.4513790000000  0.4969750000000  0.4552960000000 1.0
C      1  0.4440340000000  0.5379130000000  0.4976860000000 1.0
C      1  0.4405100000000  0.5091620000000  0.5462750000000 1.0
C      1  0.4505140000000  0.4657250000000  0.5020980000000 1.0
C      1  0.5532860000000  0.5085240000000  0.4608900000000 1.0
C      1  0.5590360000000  0.4576590000000  0.4913050000000 1.0
C      1  0.5575620000000  0.4875200000000  0.5373500000000 1.0
C      1  0.5556220000000  0.5373660000000  0.5079690000000 1.0
C      1  0.4616470000000  0.4786580000000  0.5569660000000 1.0
C      1  0.4605920000000  0.4399080000000  0.4747940000000 1.0
C      1  0.4606640000000  0.5281380000000  0.4419830000000 1.0
C      1  0.4580080000000  0.5573290000000  0.5260930000000 1.0
C      1  0.5379320000000  0.5298230000000  0.5587660000000 1.0
C      1  0.5290410000000  0.5558110000000  0.4669010000000 1.0
C      1  0.5372590000000  0.4766000000000  0.4438290000000 1.0
C      1  0.5352310000000  0.4373860000000  0.5312520000000 1.0
C      1  0.5349450000000  0.4364430000000  0.4968840000000 1.0
C      1  0.5387880000000  0.5070940000000  0.4343890000000 1.0
C      1  0.5332630000000  0.5608760000000  0.5011630000000 1.0
C      1  0.5377300000000  0.4957230000000  0.5613100000000 1.0
C      1  0.4568390000000  0.5667330000000  0.4947290000000 1.0
C      1  0.4661690000000  0.4986650000000  0.4247720000000 1.0
C      1  0.4626580000000  0.4380990000000  0.5070080000000 1.0
C      1  0.4609750000000  0.5087330000000  0.5702950000000 1.0
C      1  0.5476020000000  0.4656280000000  0.5207890000000 1.0
C      1  0.5509130000000  0.4790490000000  0.4732590000000 1.0
C      1  0.5422770000000  0.5287760000000  0.4796650000000 1.0
C      1  0.5480640000000  0.5176210000000  0.5295950000000 1.0
C      1  0.4560640000000  0.5243680000000  0.5243460000000 1.0
C      1  0.4528820000000  0.5236750000000  0.4745290000000 1.0
C      1  0.4604630000000  0.4737230000000  0.4710770000000 1.0
C      1  0.4525000000000  0.4845940000000  0.5260520000000 1.0
C      1  0.5063660000000  0.5060120000000  0.5532020000000 1.0
C      1  0.4929460000000  0.5049670000000  0.4442450000000 1.0
C      1  0.5017530000000  0.5521580000000  0.4957220000000 1.0
C      1  0.5022270000000  0.4427070000000  0.5037040000000 1.0
END
