TITL C-1154810-7815-562 9.66027704967219e-05 125000 -322.687364425859 0 0 60 (C1) n - 1
REM
REM in /home/nfs/bkarasulu/CARBON/AIRSS/Generating-Clusters/AIREBO/Higher-Symm/Only-C60
REM
REM
REM
REM
REM
REM ./C.cell (28575a23ae977d3b5fae324c64b13b57)
REM
REM compiler GCC version 9.2.1 20190827 (Red Hat 9.2.1-1)
REM options -cpp -mtune=generic -march=x86-64 -g -O0 -fpre-include=/usr/include/finclude/math-vector-fortran.h
REM seed -1609853892 54190037 -156124192 564439052 1947087561 1739434043 1998462099 -1906060818 1885227521 1514254122 1140791061 263754942 2134238078 -1019979926 -295225384 1741163705 1457191206 139114047 -1180747037 1268851551 -649044528 1565323114 827471224 -750537681 -503954685 1410026331 755431429 1928364214 -1458495957 -1670453558 795721768 -2139243026 -1552892894
REM
CELL 1.54180   50.00000   50.00000   50.00000   90.00000   90.00000   90.00000
LATT -1
SFAC C  
C      1  0.4879820000000  0.4827770000000  0.4502470000000 1.0
C      1  0.4642500000000  0.4844240000000  0.4800850000000 1.0
C      1  0.4826630000000  0.4570360000000  0.4860630000000 1.0
C      1  0.5163320000000  0.4823520000000  0.5420190000000 1.0
C      1  0.4845680000000  0.5216350000000  0.5436170000000 1.0
C      1  0.5138370000000  0.5224830000000  0.4659820000000 1.0
C      1  0.5434850000000  0.4884340000000  0.5159160000000 1.0
C      1  0.4567000000000  0.5136210000000  0.5188440000000 1.0
C      1  0.5381870000000  0.5101430000000  0.4840450000000 1.0
C      1  0.5147440000000  0.4584810000000  0.5213020000000 1.0
C      1  0.4863950000000  0.5462110000000  0.5227400000000 1.0
C      1  0.5132880000000  0.5524260000000  0.4809380000000 1.0
C      1  0.4877910000000  0.5111390000000  0.4619030000000 1.0
C      1  0.4676850000000  0.5151840000000  0.4885150000000 1.0
C      1  0.4824240000000  0.5444010000000  0.4909640000000 1.0
C      1  0.5145170000000  0.5141810000000  0.5472590000000 1.0
C      1  0.4851090000000  0.4896120000000  0.5389760000000 1.0
C      1  0.5112860000000  0.4671350000000  0.4600260000000 1.0
C      1  0.5346590000000  0.5204940000000  0.5154570000000 1.0
C      1  0.4669650000000  0.4829820000000  0.5121810000000 1.0
C      1  0.5409230000000  0.4796600000000  0.4837040000000 1.0
C      1  0.5166280000000  0.5483500000000  0.5111630000000 1.0
C      1  0.4858120000000  0.4500730000000  0.5165540000000 1.0
C      1  0.5136780000000  0.4640540000000  0.4916740000000 1.0
C      1  0.5437360000000  0.5267040000000  0.5537950000000 1.0
C      1  0.5527370000000  0.5465600000000  0.5276970000000 1.0
C      1  0.5224460000000  0.5513630000000  0.5440220000000 1.0
C      1  0.4604460000000  0.5237380000000  0.4501330000000 1.0
C      1  0.5408260000000  0.4728440000000  0.4443380000000 1.0
C      1  0.4556030000000  0.4763950000000  0.5497320000000 1.0
C      1  0.4484570000000  0.5445840000000  0.4741700000000 1.0
C      1  0.5481840000000  0.4507480000000  0.4697540000000 1.0
C      1  0.4488320000000  0.4575330000000  0.5222530000000 1.0
C      1  0.4774860000000  0.5524950000000  0.4583230000000 1.0
C      1  0.5267660000000  0.4414680000000  0.4450230000000 1.0
C      1  0.4718670000000  0.4468340000000  0.5455230000000 1.0
C      1  0.5469390000000  0.4761620000000  0.5519270000000 1.0
C      1  0.5544630000000  0.4582680000000  0.5240060000000 1.0
C      1  0.5319870000000  0.4460060000000  0.5469930000000 1.0
C      1  0.4562710000000  0.4731150000000  0.4426730000000 1.0
C      1  0.5417860000000  0.5235970000000  0.4466520000000 1.0
C      1  0.4541060000000  0.5261040000000  0.5547000000000 1.0
C      1  0.4457450000000  0.4582220000000  0.4713720000000 1.0
C      1  0.5506070000000  0.5394240000000  0.4754460000000 1.0
C      1  0.4467200000000  0.5435110000000  0.5264310000000 1.0
C      1  0.4744610000000  0.4476050000000  0.4565270000000 1.0
C      1  0.5310030000000  0.5554000000000  0.4519880000000 1.0
C      1  0.4679910000000  0.5573980000000  0.5490520000000 1.0
C      1  0.4475310000000  0.5020450000000  0.4355290000000 1.0
C      1  0.5615590000000  0.4472100000000  0.4973630000000 1.0
C      1  0.4361110000000  0.5521970000000  0.4991310000000 1.0
C      1  0.4426590000000  0.5000110000000  0.5622210000000 1.0
C      1  0.5573600000000  0.5011440000000  0.5632940000000 1.0
C      1  0.5500900000000  0.4982590000000  0.4374990000000 1.0
C      1  0.5017880000000  0.4371360000000  0.5524130000000 1.0
C      1  0.5009690000000  0.5617660000000  0.4442210000000 1.0
C      1  0.4365420000000  0.4466650000000  0.4970130000000 1.0
C      1  0.4964550000000  0.4341480000000  0.4430670000000 1.0
C      1  0.5608030000000  0.5528640000000  0.4988940000000 1.0
C      1  0.4987620000000  0.5631880000000  0.5566530000000 1.0
END
