TITL C-1154821-8623-212 -8.44146742067741e-05 125000 -333.309634639406 0 0 60 (C1) n - 1
REM
REM in /home/nfs/bkarasulu/CARBON/AIRSS/Generating-Clusters/AIREBO/Higher-Symm/Only-C60
REM
REM
REM
REM
REM
REM ./C.cell (28575a23ae977d3b5fae324c64b13b57)
REM
REM compiler GCC version 9.2.1 20190827 (Red Hat 9.2.1-1)
REM options -cpp -mtune=generic -march=x86-64 -g -O0 -fpre-include=/usr/include/finclude/math-vector-fortran.h
REM seed -1156863985 -1524194594 378481804 1262968443 -1224808184 198383911 -1777138345 -1961674551 -322596408 -1749689033 -318505636 -747032957 -956730955 -638761596 1836581305 696358472 630750800 729225892 -1854093722 743231567 -1615391847 -1813570497 -1204182635 610018284 1139763900 -892303448 1926260736 666685995 -2072403154 -1088454334 10846878 -93852585 378858521
REM
CELL 1.54180   50.00000   50.00000   50.00000   90.00000   90.00000   90.00000
LATT -1
SFAC C  
C      1  0.4290290000000  0.5220910000000  0.4948130000000 1.0
C      1  0.4312570000000  0.5115190000000  0.5214690000000 1.0
C      1  0.4306460000000  0.4830820000000  0.5191670000000 1.0
C      1  0.4255880000000  0.4764310000000  0.4918750000000 1.0
C      1  0.4264140000000  0.5002410000000  0.4766100000000 1.0
C      1  0.5778610000000  0.4775900000000  0.4928240000000 1.0
C      1  0.5758790000000  0.4870310000000  0.5193060000000 1.0
C      1  0.5759430000000  0.5151100000000  0.5185970000000 1.0
C      1  0.5776710000000  0.5232300000000  0.4916580000000 1.0
C      1  0.5790020000000  0.5000170000000  0.4756310000000 1.0
C      1  0.5058730000000  0.5068430000000  0.5307440000000 1.0
C      1  0.5060500000000  0.4769470000000  0.5196650000000 1.0
C      1  0.5153100000000  0.4830160000000  0.4873390000000 1.0
C      1  0.5173620000000  0.5122860000000  0.4835330000000 1.0
C      1  0.5040240000000  0.5256690000000  0.5061540000000 1.0
C      1  0.4768460000000  0.4804080000000  0.5371670000000 1.0
C      1  0.4730010000000  0.5128390000000  0.5276640000000 1.0
C      1  0.4739090000000  0.5195940000000  0.4969040000000 1.0
C      1  0.4702370000000  0.4956550000000  0.4806050000000 1.0
C      1  0.4858920000000  0.4733580000000  0.4856300000000 1.0
C      1  0.5564960000000  0.5444930000000  0.4833670000000 1.0
C      1  0.5539840000000  0.5293560000000  0.5353140000000 1.0
C      1  0.5536600000000  0.4737470000000  0.5367810000000 1.0
C      1  0.5566190000000  0.4565100000000  0.4849290000000 1.0
C      1  0.5591080000000  0.4987170000000  0.4516240000000 1.0
C      1  0.4408810000000  0.4518760000000  0.4792730000000 1.0
C      1  0.4510180000000  0.4637300000000  0.5318400000000 1.0
C      1  0.4489550000000  0.5323790000000  0.5416680000000 1.0
C      1  0.4526130000000  0.5442570000000  0.4871890000000 1.0
C      1  0.4500610000000  0.4985800000000  0.4533920000000 1.0
C      1  0.5630090000000  0.5470600000000  0.5551990000000 1.0
C      1  0.5622700000000  0.4569820000000  0.5576230000000 1.0
C      1  0.5661940000000  0.4310760000000  0.4780900000000 1.0
C      1  0.5697230000000  0.4974100000000  0.4257860000000 1.0
C      1  0.5658100000000  0.5698060000000  0.4758480000000 1.0
C      1  0.4419430000000  0.4488360000000  0.5538070000000 1.0
C      1  0.4285800000000  0.5490280000000  0.5547740000000 1.0
C      1  0.4400890000000  0.5680170000000  0.4756750000000 1.0
C      1  0.4385410000000  0.5013900000000  0.4269340000000 1.0
C      1  0.4253230000000  0.4305220000000  0.4700400000000 1.0
C      1  0.5105070000000  0.5543580000000  0.5136280000000 1.0
C      1  0.5146810000000  0.5041830000000  0.5617280000000 1.0
C      1  0.5122830000000  0.4450110000000  0.5138320000000 1.0
C      1  0.5131200000000  0.4672970000000  0.4572550000000 1.0
C      1  0.5155320000000  0.5265550000000  0.4574970000000 1.0
C      1  0.4849450000000  0.4491040000000  0.5003540000000 1.0
C      1  0.4843450000000  0.4987380000000  0.5632410000000 1.0
C      1  0.4862590000000  0.5669100000000  0.5206450000000 1.0
C      1  0.4895040000000  0.5336510000000  0.4501720000000 1.0
C      1  0.4866420000000  0.4619930000000  0.4473800000000 1.0
C      1  0.5431890000000  0.4725880000000  0.4610760000000 1.0
C      1  0.5453470000000  0.5264210000000  0.4593730000000 1.0
C      1  0.5391800000000  0.5441440000000  0.5107660000000 1.0
C      1  0.5417940000000  0.5020310000000  0.5470300000000 1.0
C      1  0.5401090000000  0.4576860000000  0.5120130000000 1.0
C      1  0.4643760000000  0.5288730000000  0.4592260000000 1.0
C      1  0.4603130000000  0.4662330000000  0.4557290000000 1.0
C      1  0.4576880000000  0.4464570000000  0.5062530000000 1.0
C      1  0.4650410000000  0.5177710000000  0.5678280000000 1.0
C      1  0.4624760000000  0.5532660000000  0.5184650000000 1.0
END
