TITL C-1154824-75-720 -0.000183302831230057 125000 -315.377624783392 0 0 60 (C1) n - 1
REM
REM in /home/nfs/bkarasulu/CARBON/AIRSS/Generating-Clusters/AIREBO/Higher-Symm/Only-C60
REM
REM
REM
REM
REM
REM ./C.cell (28575a23ae977d3b5fae324c64b13b57)
REM
REM compiler GCC version 9.2.1 20190827 (Red Hat 9.2.1-1)
REM options -cpp -mtune=generic -march=x86-64 -g -O0 -fpre-include=/usr/include/finclude/math-vector-fortran.h
REM seed 340042867 1639675628 2109759480 1945498063 1540174153 1282607863 -1508875776 -349044525 278315425 603560901 -1454695363 -834493819 -965003585 -914202788 399306297 327474230 1608827729 -690736766 1482073392 -178935366 -1108102180 -794617614 1980749385 981580237 -1781513554 245909441 -720159105 -1472010801 -1164248248 -1012069027 759775456 1325325704 -51712047
REM
CELL 1.54180   50.00000   50.00000   50.00000   90.00000   90.00000   90.00000
LATT -1
SFAC C  
C      1  0.5260440000000  0.4693040000000  0.4421170000000 1.0
C      1  0.5336740000000  0.5265640000000  0.5670130000000 1.0
C      1  0.4779170000000  0.4573900000000  0.4501830000000 1.0
C      1  0.4851400000000  0.5467320000000  0.5454810000000 1.0
C      1  0.5277550000000  0.4727480000000  0.5654500000000 1.0
C      1  0.5331720000000  0.5332180000000  0.4394530000000 1.0
C      1  0.4819890000000  0.4565200000000  0.5426920000000 1.0
C      1  0.4776230000000  0.5411300000000  0.4474910000000 1.0
C      1  0.5695220000000  0.4814020000000  0.4877100000000 1.0
C      1  0.5701190000000  0.5234810000000  0.5155420000000 1.0
C      1  0.4315400000000  0.4892240000000  0.4837210000000 1.0
C      1  0.4314900000000  0.5242710000000  0.5276710000000 1.0
C      1  0.5643450000000  0.4731550000000  0.5149520000000 1.0
C      1  0.5729770000000  0.5152230000000  0.4871800000000 1.0
C      1  0.4302230000000  0.4771860000000  0.5147610000000 1.0
C      1  0.4301510000000  0.5221630000000  0.4938000000000 1.0
C      1  0.5492740000000  0.4706630000000  0.4625180000000 1.0
C      1  0.5493200000000  0.5241240000000  0.5430720000000 1.0
C      1  0.4544520000000  0.4754360000000  0.4676770000000 1.0
C      1  0.4606590000000  0.5240780000000  0.5459660000000 1.0
C      1  0.5458700000000  0.4739770000000  0.5443620000000 1.0
C      1  0.5492810000000  0.5273540000000  0.4654090000000 1.0
C      1  0.4517150000000  0.4719340000000  0.5409470000000 1.0
C      1  0.4589030000000  0.5157230000000  0.4578540000000 1.0
C      1  0.5478170000000  0.4464490000000  0.5254510000000 1.0
C      1  0.5408230000000  0.5545030000000  0.4827700000000 1.0
C      1  0.4549200000000  0.4550260000000  0.5132850000000 1.0
C      1  0.4510420000000  0.5392080000000  0.4777810000000 1.0
C      1  0.5419460000000  0.4521270000000  0.4865430000000 1.0
C      1  0.5487850000000  0.5481830000000  0.5210460000000 1.0
C      1  0.4567270000000  0.4456400000000  0.4819230000000 1.0
C      1  0.4589770000000  0.5374040000000  0.5168030000000 1.0
C      1  0.4818700000000  0.5280370000000  0.4934750000000 1.0
C      1  0.5250220000000  0.4682350000000  0.5107130000000 1.0
C      1  0.4802670000000  0.4668880000000  0.4944310000000 1.0
C      1  0.5285290000000  0.5284890000000  0.5008890000000 1.0
C      1  0.4957230000000  0.4781750000000  0.5650270000000 1.0
C      1  0.5009420000000  0.5356330000000  0.4326530000000 1.0
C      1  0.4956930000000  0.4818940000000  0.4367300000000 1.0
C      1  0.5039950000000  0.5393010000000  0.5652760000000 1.0
C      1  0.4924470000000  0.4411570000000  0.5223560000000 1.0
C      1  0.4897810000000  0.4353310000000  0.4623420000000 1.0
C      1  0.4758900000000  0.5661180000000  0.4618860000000 1.0
C      1  0.4927780000000  0.5611890000000  0.5211930000000 1.0
C      1  0.5219340000000  0.4344730000000  0.5081180000000 1.0
C      1  0.4709930000000  0.5606470000000  0.4950870000000 1.0
C      1  0.5199750000000  0.5600560000000  0.5094530000000 1.0
C      1  0.4841900000000  0.4294370000000  0.4937320000000 1.0
C      1  0.5679690000000  0.4976950000000  0.5369520000000 1.0
C      1  0.5666000000000  0.4989620000000  0.4583380000000 1.0
C      1  0.4178390000000  0.4985570000000  0.5317670000000 1.0
C      1  0.4060460000000  0.5081880000000  0.4767130000000 1.0
C      1  0.4655120000000  0.4931530000000  0.4408220000000 1.0
C      1  0.4732520000000  0.4952330000000  0.5470390000000 1.0
C      1  0.5166830000000  0.5055420000000  0.4285760000000 1.0
C      1  0.5085660000000  0.5074450000000  0.5702650000000 1.0
C      1  0.4907460000000  0.5020630000000  0.5241600000000 1.0
C      1  0.5100320000000  0.5098240000000  0.4614130000000 1.0
C      1  0.5020930000000  0.4843570000000  0.5028960000000 1.0
C      1  0.5066780000000  0.5123820000000  0.4890770000000 1.0
END
