TITL C-1154810-7815-314 0.00144318975734462 125000 -322.799386365284 0 0 60 (C1) n - 1
REM
REM in /home/nfs/bkarasulu/CARBON/AIRSS/Generating-Clusters/AIREBO/Higher-Symm/Only-C60
REM
REM
REM
REM
REM
REM ./C.cell (28575a23ae977d3b5fae324c64b13b57)
REM
REM compiler GCC version 9.2.1 20190827 (Red Hat 9.2.1-1)
REM options -cpp -mtune=generic -march=x86-64 -g -O0 -fpre-include=/usr/include/finclude/math-vector-fortran.h
REM seed 1708729641 -1776073153 -1694677822 -2056153327 562519452 -1592308466 -1940758485 -1132882539 546789252 1494864195 -1000392334 -1594434031 -933395645 2104705177 1618582651 400465552 -1662507734 725867412 694069341 -970339392 1204127251 548903428 32557329 -1779979308 1992568938 -949643585 -1111735698 -553465109 -1104670845 1860004587 1545488230 177193027 1362630031
REM
CELL 1.54180   50.00000   50.00000   50.00000   90.00000   90.00000   90.00000
LATT -1
SFAC C  
C      1  0.5314960000000  0.4450680000000  0.5011560000000 1.0
C      1  0.4775080000000  0.5316580000000  0.4852940000000 1.0
C      1  0.5691600000000  0.4873850000000  0.4751370000000 1.0
C      1  0.5176990000000  0.5441150000000  0.4582130000000 1.0
C      1  0.4898580000000  0.5476910000000  0.5501410000000 1.0
C      1  0.5243910000000  0.4834130000000  0.4925970000000 1.0
C      1  0.5063860000000  0.5453330000000  0.5730170000000 1.0
C      1  0.4668540000000  0.4999090000000  0.4912830000000 1.0
C      1  0.4683290000000  0.4756560000000  0.5498160000000 1.0
C      1  0.5454820000000  0.4757900000000  0.5378700000000 1.0
C      1  0.4551630000000  0.4685500000000  0.5163090000000 1.0
C      1  0.5576200000000  0.4598030000000  0.4916760000000 1.0
C      1  0.4976430000000  0.4874860000000  0.5623560000000 1.0
C      1  0.5220070000000  0.5232870000000  0.4938800000000 1.0
C      1  0.4696750000000  0.5602520000000  0.4722000000000 1.0
C      1  0.4893900000000  0.5200670000000  0.5330710000000 1.0
C      1  0.5407060000000  0.5343910000000  0.5418690000000 1.0
C      1  0.4298640000000  0.5046900000000  0.4505670000000 1.0
C      1  0.4571880000000  0.5261640000000  0.5421610000000 1.0
C      1  0.5022290000000  0.4610810000000  0.5017640000000 1.0
C      1  0.4969960000000  0.4621690000000  0.4413430000000 1.0
C      1  0.5335430000000  0.5169140000000  0.4453210000000 1.0
C      1  0.4791000000000  0.4706790000000  0.4844040000000 1.0
C      1  0.4868450000000  0.5067590000000  0.4648380000000 1.0
C      1  0.4257620000000  0.5256030000000  0.5077750000000 1.0
C      1  0.4951920000000  0.5553240000000  0.5020190000000 1.0
C      1  0.4775340000000  0.4482270000000  0.5174630000000 1.0
C      1  0.4453940000000  0.5426720000000  0.5218070000000 1.0
C      1  0.4725900000000  0.4956340000000  0.5226350000000 1.0
C      1  0.5177240000000  0.5176650000000  0.5247370000000 1.0
C      1  0.5246770000000  0.4996820000000  0.5731460000000 1.0
C      1  0.4600720000000  0.4478220000000  0.4735480000000 1.0
C      1  0.5284350000000  0.5279340000000  0.5682250000000 1.0
C      1  0.4619390000000  0.5616510000000  0.5054460000000 1.0
C      1  0.5189270000000  0.4875580000000  0.4354520000000 1.0
C      1  0.4912200000000  0.5653160000000  0.4550890000000 1.0
C      1  0.5954340000000  0.4872990000000  0.4632390000000 1.0
C      1  0.4849140000000  0.4400780000000  0.5423810000000 1.0
C      1  0.4988610000000  0.5321300000000  0.4325690000000 1.0
C      1  0.5111030000000  0.4301220000000  0.4783650000000 1.0
C      1  0.4900860000000  0.4393290000000  0.4627110000000 1.0
C      1  0.4396870000000  0.4707590000000  0.4882700000000 1.0
C      1  0.4911190000000  0.5678440000000  0.5316640000000 1.0
C      1  0.4762290000000  0.4860710000000  0.4431560000000 1.0
C      1  0.5469340000000  0.4871050000000  0.4547250000000 1.0
C      1  0.5283780000000  0.4542170000000  0.5337710000000 1.0
C      1  0.4477090000000  0.4809680000000  0.4568060000000 1.0
C      1  0.5486150000000  0.5370820000000  0.5087660000000 1.0
C      1  0.5397990000000  0.4953920000000  0.5162150000000 1.0
C      1  0.5059050000000  0.4564820000000  0.5510140000000 1.0
C      1  0.5751230000000  0.4775960000000  0.5111360000000 1.0
C      1  0.4171350000000  0.4931510000000  0.5009590000000 1.0
C      1  0.5471190000000  0.4845970000000  0.5644760000000 1.0
C      1  0.5220280000000  0.4670100000000  0.4636230000000 1.0
C      1  0.4373170000000  0.5101190000000  0.4818010000000 1.0
C      1  0.5266050000000  0.5552800000000  0.4892340000000 1.0
C      1  0.4691300000000  0.5064960000000  0.5641160000000 1.0
C      1  0.5655540000000  0.5087300000000  0.5013690000000 1.0
C      1  0.4850060000000  0.5126090000000  0.4254210000000 1.0
C      1  0.5156110000000  0.5061350000000  0.4705900000000 1.0
END
