TITL C-1154823-9327-212 0.00121477581541301 125000 -351.17834961487 0 0 60 (C1) n - 1
REM
REM in /home/nfs/bkarasulu/CARBON/AIRSS/Generating-Clusters/AIREBO/Higher-Symm/Only-C60
REM
REM
REM
REM
REM
REM ./C.cell (28575a23ae977d3b5fae324c64b13b57)
REM
REM compiler GCC version 9.2.1 20190827 (Red Hat 9.2.1-1)
REM options -cpp -mtune=generic -march=x86-64 -g -O0 -fpre-include=/usr/include/finclude/math-vector-fortran.h
REM seed 1953008421 -1617532657 1443979118 1447274519 1643982592 228615474 1537249049 -1774224563 -275166522 -1531847842 1989305522 1375810897 746137042 1453684174 909590703 -2095825398 116718772 2046952010 162685894 340459877 -1392251802 290464049 -1608910352 -559429257 -764441534 1371452182 -698458304 -231941837 183848623 -1228201735 -528920169 1058907902 -2109155181
REM
CELL 1.54180   50.00000   50.00000   50.00000   90.00000   90.00000   90.00000
LATT -1
SFAC C  
C      1  0.4612040000000  0.4940780000000  0.5455210000000 1.0
C      1  0.4253420000000  0.4859020000000  0.5007510000000 1.0
C      1  0.4578720000000  0.4934180000000  0.4525260000000 1.0
C      1  0.5124390000000  0.4878330000000  0.4343400000000 1.0
C      1  0.5689980000000  0.4823670000000  0.4737420000000 1.0
C      1  0.5559450000000  0.4910410000000  0.5405600000000 1.0
C      1  0.5160990000000  0.4812410000000  0.5716120000000 1.0
C      1  0.4647550000000  0.4490620000000  0.4988050000000 1.0
C      1  0.4770420000000  0.4502140000000  0.4731660000000 1.0
C      1  0.5054900000000  0.4496500000000  0.4680100000000 1.0
C      1  0.5315810000000  0.4452380000000  0.4893960000000 1.0
C      1  0.5379960000000  0.4452640000000  0.5228220000000 1.0
C      1  0.5120850000000  0.4396470000000  0.5405800000000 1.0
C      1  0.4808610000000  0.4392620000000  0.5271010000000 1.0
C      1  0.5527040000000  0.5308910000000  0.4718660000000 1.0
C      1  0.5597430000000  0.5373580000000  0.5245330000000 1.0
C      1  0.5194120000000  0.5308030000000  0.5584660000000 1.0
C      1  0.4624900000000  0.5403960000000  0.5528540000000 1.0
C      1  0.4389110000000  0.5348300000000  0.5057940000000 1.0
C      1  0.4571860000000  0.5332640000000  0.4555510000000 1.0
C      1  0.5074400000000  0.5379710000000  0.4358980000000 1.0
C      1  0.4678880000000  0.5708300000000  0.5160590000000 1.0
C      1  0.4655580000000  0.5699480000000  0.4874760000000 1.0
C      1  0.4889990000000  0.5675410000000  0.4703240000000 1.0
C      1  0.5171940000000  0.5654610000000  0.4757930000000 1.0
C      1  0.5345300000000  0.5678620000000  0.4988470000000 1.0
C      1  0.5248290000000  0.5682710000000  0.5259560000000 1.0
C      1  0.4958600000000  0.5615040000000  0.5278100000000 1.0
C      1  0.5058330000000  0.5117750000000  0.4563450000000 1.0
C      1  0.5265980000000  0.5146590000000  0.4768070000000 1.0
C      1  0.5292040000000  0.4938150000000  0.4947440000000 1.0
C      1  0.5273050000000  0.4999210000000  0.5464530000000 1.0
C      1  0.4828550000000  0.4977980000000  0.5191220000000 1.0
C      1  0.4773340000000  0.5194230000000  0.4987430000000 1.0
C      1  0.4785810000000  0.5107670000000  0.4689350000000 1.0
C      1  0.5134240000000  0.5118760000000  0.4172810000000 1.0
C      1  0.5733930000000  0.5084120000000  0.4649890000000 1.0
C      1  0.5718320000000  0.5133560000000  0.5336110000000 1.0
C      1  0.5167770000000  0.5086460000000  0.5836100000000 1.0
C      1  0.4542310000000  0.5151130000000  0.5613430000000 1.0
C      1  0.4212460000000  0.5126180000000  0.5066280000000 1.0
C      1  0.4395290000000  0.5112420000000  0.4379550000000 1.0
C      1  0.4398320000000  0.4625730000000  0.5018700000000 1.0
C      1  0.4619640000000  0.4658410000000  0.4545530000000 1.0
C      1  0.5130610000000  0.4620150000000  0.4436990000000 1.0
C      1  0.5455730000000  0.4730990000000  0.4864070000000 1.0
C      1  0.5562660000000  0.4633510000000  0.5335650000000 1.0
C      1  0.5129240000000  0.4550460000000  0.5662110000000 1.0
C      1  0.4721910000000  0.4685310000000  0.5327550000000 1.0
C      1  0.4817640000000  0.5526070000000  0.4463610000000 1.0
C      1  0.5299760000000  0.5486850000000  0.4561470000000 1.0
C      1  0.5564240000000  0.5480750000000  0.4978800000000 1.0
C      1  0.5394360000000  0.5491080000000  0.5415900000000 1.0
C      1  0.4908040000000  0.5451830000000  0.5528350000000 1.0
C      1  0.4484600000000  0.5519990000000  0.5291830000000 1.0
C      1  0.4455000000000  0.5489040000000  0.4806990000000 1.0
C      1  0.5042690000000  0.4345860000000  0.5047210000000 1.0
C      1  0.4930370000000  0.5432210000000  0.5017690000000 1.0
C      1  0.5058680000000  0.4660750000000  0.5115370000000 1.0
C      1  0.5134520000000  0.4953380000000  0.5210100000000 1.0
END
