TITL C-1154821-8623-609 -0.00104089116682924 125000 -314.844993077694 0 0 60 (C1) n - 1
REM
REM in /home/nfs/bkarasulu/CARBON/AIRSS/Generating-Clusters/AIREBO/Higher-Symm/Only-C60
REM
REM
REM
REM
REM
REM ./C.cell (28575a23ae977d3b5fae324c64b13b57)
REM
REM compiler GCC version 9.2.1 20190827 (Red Hat 9.2.1-1)
REM options -cpp -mtune=generic -march=x86-64 -g -O0 -fpre-include=/usr/include/finclude/math-vector-fortran.h
REM seed 332074210 1699192897 1781338601 1838630177 -2076858944 310055380 -1714548582 1526355250 -1136830526 708415992 -2038432242 -784482667 -1535328814 176476450 -1890129797 769529301 -1472871764 2108044376 1778579946 -1587484481 454789541 -189546632 1804425426 -60728395 392917018 -574917065 -932001514 -839898538 1048359273 -1285441196 -662123942 1081205224 -995678469
REM
CELL 1.54180   50.00000   50.00000   50.00000   90.00000   90.00000   90.00000
LATT -1
SFAC C  
C      1  0.5139340000000  0.5190680000000  0.5262620000000 1.0
C      1  0.5043050000000  0.4957430000000  0.4707490000000 1.0
C      1  0.4854610000000  0.5002710000000  0.5272980000000 1.0
C      1  0.4719010000000  0.4933120000000  0.4681340000000 1.0
C      1  0.4401330000000  0.5368080000000  0.4909470000000 1.0
C      1  0.4476740000000  0.4657530000000  0.5045410000000 1.0
C      1  0.5431550000000  0.5337450000000  0.4915480000000 1.0
C      1  0.5658270000000  0.4596990000000  0.5176830000000 1.0
C      1  0.4981480000000  0.4591910000000  0.5092560000000 1.0
C      1  0.4792110000000  0.5419820000000  0.4867300000000 1.0
C      1  0.5112600000000  0.4791060000000  0.4939680000000 1.0
C      1  0.5038150000000  0.5274800000000  0.4949080000000 1.0
C      1  0.5284660000000  0.5599620000000  0.5577130000000 1.0
C      1  0.5288910000000  0.4511170000000  0.4510300000000 1.0
C      1  0.4616440000000  0.5688440000000  0.5593150000000 1.0
C      1  0.4589740000000  0.4458590000000  0.4470160000000 1.0
C      1  0.5723620000000  0.5184660000000  0.5023500000000 1.0
C      1  0.5747480000000  0.4848450000000  0.4965820000000 1.0
C      1  0.4244760000000  0.5157130000000  0.5034270000000 1.0
C      1  0.4289000000000  0.4880000000000  0.4861210000000 1.0
C      1  0.4827320000000  0.4935320000000  0.4358920000000 1.0
C      1  0.4803410000000  0.5196510000000  0.5547640000000 1.0
C      1  0.5123950000000  0.4782730000000  0.4436080000000 1.0
C      1  0.5110970000000  0.5053520000000  0.5572480000000 1.0
C      1  0.5245950000000  0.4315600000000  0.5208220000000 1.0
C      1  0.5133950000000  0.5773540000000  0.4967010000000 1.0
C      1  0.4970320000000  0.4261940000000  0.5095240000000 1.0
C      1  0.4867720000000  0.5728430000000  0.4944130000000 1.0
C      1  0.5503140000000  0.4742150000000  0.5642030000000 1.0
C      1  0.5427120000000  0.5145140000000  0.4282100000000 1.0
C      1  0.4580560000000  0.4758480000000  0.5567930000000 1.0
C      1  0.4661760000000  0.5296580000000  0.4354640000000 1.0
C      1  0.4669290000000  0.5468490000000  0.5392940000000 1.0
C      1  0.4674740000000  0.4595280000000  0.4676810000000 1.0
C      1  0.5252200000000  0.5486530000000  0.5332890000000 1.0
C      1  0.5394910000000  0.4489500000000  0.4756900000000 1.0
C      1  0.4952090000000  0.5242680000000  0.4284330000000 1.0
C      1  0.4893620000000  0.4625930000000  0.5575030000000 1.0
C      1  0.5205880000000  0.5294140000000  0.4389280000000 1.0
C      1  0.5173930000000  0.4747060000000  0.5577970000000 1.0
C      1  0.4602480000000  0.5192540000000  0.5205300000000 1.0
C      1  0.4589150000000  0.4962610000000  0.4981960000000 1.0
C      1  0.5419870000000  0.5064320000000  0.5117910000000 1.0
C      1  0.5416050000000  0.4784260000000  0.4925120000000 1.0
C      1  0.5678610000000  0.5053740000000  0.5338320000000 1.0
C      1  0.5602470000000  0.4850730000000  0.4648570000000 1.0
C      1  0.4304970000000  0.5120080000000  0.5341820000000 1.0
C      1  0.4295960000000  0.4935870000000  0.4537830000000 1.0
C      1  0.4722920000000  0.4450460000000  0.4953220000000 1.0
C      1  0.4603380000000  0.5572780000000  0.5091910000000 1.0
C      1  0.5472460000000  0.4403020000000  0.5031220000000 1.0
C      1  0.5316350000000  0.5580700000000  0.5069680000000 1.0
C      1  0.4733420000000  0.4692320000000  0.5271460000000 1.0
C      1  0.4611610000000  0.5255500000000  0.4667120000000 1.0
C      1  0.5391010000000  0.4561290000000  0.5388070000000 1.0
C      1  0.5216010000000  0.5237690000000  0.4688430000000 1.0
C      1  0.4514360000000  0.5032520000000  0.5559970000000 1.0
C      1  0.4490740000000  0.5021610000000  0.4366960000000 1.0
C      1  0.5669410000000  0.4946920000000  0.5579520000000 1.0
C      1  0.5443100000000  0.4891840000000  0.4417240000000 1.0
END
