TITL C-1154803-8277-447 -0.000668650105069147 125000 -336.106301152807 0 0 60 (C1) n - 1
REM
REM in /home/nfs/bkarasulu/CARBON/AIRSS/Generating-Clusters/AIREBO/Higher-Symm/Only-C60
REM
REM
REM
REM
REM
REM ./C.cell (28575a23ae977d3b5fae324c64b13b57)
REM
REM compiler GCC version 9.2.1 20190827 (Red Hat 9.2.1-1)
REM options -cpp -mtune=generic -march=x86-64 -g -O0 -fpre-include=/usr/include/finclude/math-vector-fortran.h
REM seed -1370132635 -177913854 513885158 825913600 426117937 -894396394 -1714562779 1246941004 -729946235 652476419 -1482938119 1961363204 1272424492 360743459 236441729 1417760835 2064993317 -402837961 -1997318698 -702896234 -1817538625 -242765831 1377294292 -402235815 -889662397 186411330 827201195 1343669846 1794215525 -306152102 213221987 389606666 -1332175843
REM
CELL 1.54180   50.00000   50.00000   50.00000   90.00000   90.00000   90.00000
LATT -1
SFAC C  
C      1  0.5140340000000  0.4651130000000  0.5559810000000 1.0
C      1  0.5097370000000  0.5337250000000  0.4481170000000 1.0
C      1  0.4917830000000  0.4822050000000  0.4479800000000 1.0
C      1  0.4920110000000  0.5207270000000  0.5541820000000 1.0
C      1  0.4979310000000  0.5435320000000  0.4784650000000 1.0
C      1  0.5056710000000  0.4473340000000  0.5262500000000 1.0
C      1  0.4934010000000  0.4325900000000  0.4740940000000 1.0
C      1  0.4934350000000  0.5684390000000  0.5248790000000 1.0
C      1  0.5462360000000  0.4655460000000  0.5531080000000 1.0
C      1  0.5393170000000  0.5335740000000  0.4476980000000 1.0
C      1  0.4655910000000  0.4673960000000  0.4479340000000 1.0
C      1  0.4648630000000  0.5355870000000  0.5498930000000 1.0
C      1  0.5590440000000  0.5543590000000  0.4616510000000 1.0
C      1  0.5382770000000  0.4426990000000  0.5309880000000 1.0
C      1  0.4675150000000  0.4424990000000  0.4669610000000 1.0
C      1  0.4673320000000  0.5591700000000  0.5303840000000 1.0
C      1  0.4449530000000  0.4606620000000  0.4809370000000 1.0
C      1  0.4468070000000  0.5395530000000  0.5147420000000 1.0
C      1  0.5552380000000  0.4622620000000  0.5144080000000 1.0
C      1  0.5662930000000  0.5358170000000  0.4865900000000 1.0
C      1  0.4421780000000  0.4840180000000  0.4600530000000 1.0
C      1  0.4445770000000  0.5179750000000  0.5365240000000 1.0
C      1  0.5570940000000  0.5150730000000  0.4659000000000 1.0
C      1  0.5595820000000  0.4860160000000  0.5337330000000 1.0
C      1  0.4769660000000  0.4364910000000  0.5409020000000 1.0
C      1  0.4726500000000  0.5618070000000  0.4638910000000 1.0
C      1  0.5163460000000  0.4405050000000  0.4596030000000 1.0
C      1  0.5158850000000  0.5619820000000  0.5408630000000 1.0
C      1  0.4782130000000  0.5418450000000  0.4432840000000 1.0
C      1  0.4831790000000  0.4573700000000  0.5600240000000 1.0
C      1  0.5149720000000  0.4634710000000  0.4435190000000 1.0
C      1  0.5149140000000  0.5397180000000  0.5580410000000 1.0
C      1  0.4493980000000  0.4661340000000  0.5120050000000 1.0
C      1  0.4476980000000  0.5264220000000  0.4853930000000 1.0
C      1  0.5536170000000  0.4607820000000  0.4866380000000 1.0
C      1  0.5480730000000  0.5364150000000  0.5113850000000 1.0
C      1  0.4425380000000  0.5117850000000  0.4593040000000 1.0
C      1  0.4571200000000  0.4900260000000  0.5320730000000 1.0
C      1  0.5468300000000  0.4867570000000  0.4718970000000 1.0
C      1  0.5443290000000  0.5118540000000  0.5313080000000 1.0
C      1  0.5387810000000  0.4768830000000  0.4430910000000 1.0
C      1  0.5388950000000  0.5261410000000  0.5591240000000 1.0
C      1  0.4640680000000  0.4769180000000  0.5598460000000 1.0
C      1  0.4556030000000  0.5254410000000  0.4377190000000 1.0
C      1  0.5420170000000  0.4382930000000  0.4729040000000 1.0
C      1  0.5409770000000  0.5627440000000  0.5268260000000 1.0
C      1  0.4490760000000  0.5582630000000  0.4780420000000 1.0
C      1  0.4536640000000  0.4388860000000  0.5269540000000 1.0
C      1  0.4823900000000  0.5109180000000  0.5230640000000 1.0
C      1  0.4920080000000  0.4941850000000  0.4764090000000 1.0
C      1  0.5221360000000  0.4977500000000  0.4876170000000 1.0
C      1  0.5147240000000  0.5030910000000  0.5264780000000 1.0
C      1  0.4781760000000  0.5200390000000  0.4931400000000 1.0
C      1  0.4758850000000  0.4777010000000  0.4989830000000 1.0
C      1  0.5062260000000  0.4768440000000  0.5093140000000 1.0
C      1  0.5247570000000  0.5277460000000  0.4916440000000 1.0
C      1  0.4997730000000  0.5710470000000  0.4975890000000 1.0
C      1  0.4962010000000  0.5084440000000  0.4314170000000 1.0
C      1  0.4998920000000  0.4929280000000  0.5672370000000 1.0
C      1  0.4991240000000  0.4264990000000  0.5010190000000 1.0
END
