TITL C-1154829-9094-453 -0.00122101981115841 125000 -325.832386810056 0 0 60 (C1) n - 1
REM
REM in /home/nfs/bkarasulu/CARBON/AIRSS/Generating-Clusters/AIREBO/Higher-Symm/Only-C60
REM
REM
REM
REM
REM
REM ./C.cell (28575a23ae977d3b5fae324c64b13b57)
REM
REM compiler GCC version 9.2.1 20190827 (Red Hat 9.2.1-1)
REM options -cpp -mtune=generic -march=x86-64 -g -O0 -fpre-include=/usr/include/finclude/math-vector-fortran.h
REM seed 959004535 1032850851 21711443 1896584760 1208881853 -1536849861 1038591165 -535979093 -1557085936 -858231464 -554374708 -515716813 -1962227600 -1249989886 -1268454875 1430605355 71801746 1054100684 18165297 1649330951 601761061 45693468 -1025042050 1182097936 1512160924 456699120 964396349 1379253371 934203348 -1562557087 1268394829 1851962620 -1555846896
REM
CELL 1.54180   50.00000   50.00000   50.00000   90.00000   90.00000   90.00000
LATT -1
SFAC C  
C      1  0.5498170000000  0.4852620000000  0.4828590000000 1.0
C      1  0.4634770000000  0.5036840000000  0.4475500000000 1.0
C      1  0.4822440000000  0.4899690000000  0.5516620000000 1.0
C      1  0.4442560000000  0.4910860000000  0.5025300000000 1.0
C      1  0.5401530000000  0.4926300000000  0.4532340000000 1.0
C      1  0.5136630000000  0.4970420000000  0.5569980000000 1.0
C      1  0.4668130000000  0.4838910000000  0.4235330000000 1.0
C      1  0.4417050000000  0.4600790000000  0.5691020000000 1.0
C      1  0.5741720000000  0.4931730000000  0.5132170000000 1.0
C      1  0.5356980000000  0.4834210000000  0.4228410000000 1.0
C      1  0.5395840000000  0.4876530000000  0.5733760000000 1.0
C      1  0.4209460000000  0.4686520000000  0.5129890000000 1.0
C      1  0.5468320000000  0.5212550000000  0.4662960000000 1.0
C      1  0.4381830000000  0.5163650000000  0.4892870000000 1.0
C      1  0.5010060000000  0.5248940000000  0.5476190000000 1.0
C      1  0.4593170000000  0.5207490000000  0.4676250000000 1.0
C      1  0.5692350000000  0.5123470000000  0.4902870000000 1.0
C      1  0.4665290000000  0.5160960000000  0.5557920000000 1.0
C      1  0.4735990000000  0.4162180000000  0.5175770000000 1.0
C      1  0.5349730000000  0.4228210000000  0.5290240000000 1.0
C      1  0.5006390000000  0.4248210000000  0.4465440000000 1.0
C      1  0.5376770000000  0.4217740000000  0.5038630000000 1.0
C      1  0.4800620000000  0.4189690000000  0.5422250000000 1.0
C      1  0.4739770000000  0.4307520000000  0.4519430000000 1.0
C      1  0.5196940000000  0.4479660000000  0.5411370000000 1.0
C      1  0.5182390000000  0.4432010000000  0.4568760000000 1.0
C      1  0.4700140000000  0.4440830000000  0.5020850000000 1.0
C      1  0.4887110000000  0.4468680000000  0.5496730000000 1.0
C      1  0.4726300000000  0.4549530000000  0.4719110000000 1.0
C      1  0.5221830000000  0.4433910000000  0.4863690000000 1.0
C      1  0.5430180000000  0.5673520000000  0.5018740000000 1.0
C      1  0.4889670000000  0.5637590000000  0.4641860000000 1.0
C      1  0.4766430000000  0.5743380000000  0.5315940000000 1.0
C      1  0.4609240000000  0.5754100000000  0.5018460000000 1.0
C      1  0.5214940000000  0.5704170000000  0.4621300000000 1.0
C      1  0.5229820000000  0.5702350000000  0.5289500000000 1.0
C      1  0.5189710000000  0.5371750000000  0.4688220000000 1.0
C      1  0.4522540000000  0.5429890000000  0.4997970000000 1.0
C      1  0.5162280000000  0.5373570000000  0.5235140000000 1.0
C      1  0.4810980000000  0.5395420000000  0.4818200000000 1.0
C      1  0.5464480000000  0.5342490000000  0.4977130000000 1.0
C      1  0.4732160000000  0.5424200000000  0.5387650000000 1.0
C      1  0.5142850000000  0.4715940000000  0.4465700000000 1.0
C      1  0.4521210000000  0.4621820000000  0.5186630000000 1.0
C      1  0.5340240000000  0.4737030000000  0.5443120000000 1.0
C      1  0.4850470000000  0.4776120000000  0.4514370000000 1.0
C      1  0.5478340000000  0.4803920000000  0.5186650000000 1.0
C      1  0.4621040000000  0.4648790000000  0.5471940000000 1.0
C      1  0.4458450000000  0.5602320000000  0.5286590000000 1.0
C      1  0.5488290000000  0.5479000000000  0.5287890000000 1.0
C      1  0.5052740000000  0.5469590000000  0.4392770000000 1.0
C      1  0.4703240000000  0.5852370000000  0.4772340000000 1.0
C      1  0.5013670000000  0.5855780000000  0.5366970000000 1.0
C      1  0.5405870000000  0.5824880000000  0.4788030000000 1.0
C      1  0.4939020000000  0.4736820000000  0.5250410000000 1.0
C      1  0.5243030000000  0.4736510000000  0.4974280000000 1.0
C      1  0.4719350000000  0.4821270000000  0.4902750000000 1.0
C      1  0.5021330000000  0.4439590000000  0.5122850000000 1.0
C      1  0.5051260000000  0.5247620000000  0.4967700000000 1.0
C      1  0.4995950000000  0.4940710000000  0.4995370000000 1.0
END
