TITL C-1154825-9328-397 -0.000747861069782566 125000 -341.806990461392 0 0 60 (C1) n - 1
REM
REM in /home/nfs/bkarasulu/CARBON/AIRSS/Generating-Clusters/AIREBO/Higher-Symm/Only-C60
REM
REM
REM
REM
REM
REM ./C.cell (28575a23ae977d3b5fae324c64b13b57)
REM
REM compiler GCC version 9.2.1 20190827 (Red Hat 9.2.1-1)
REM options -cpp -mtune=generic -march=x86-64 -g -O0 -fpre-include=/usr/include/finclude/math-vector-fortran.h
REM seed 1444491503 509622532 1630154648 1353951706 -545306274 -767332553 -88844349 -1003624398 -1485149926 400649968 1218021959 -1716420043 1446165065 -685256061 321997908 1005589405 -1098095498 1676061655 1019766306 -1977326318 670029832 -1390355019 -1949847872 1450767478 -461472377 1082528910 -1935911614 -1521441918 1501588880 -1351405404 1471857521 582322175 273675354
REM
CELL 1.54180   50.00000   50.00000   50.00000   90.00000   90.00000   90.00000
LATT -1
SFAC C  
C      1  0.4965200000000  0.5621400000000  0.4859470000000 1.0
C      1  0.5583960000000  0.4745960000000  0.4856890000000 1.0
C      1  0.4509930000000  0.4646800000000  0.4879990000000 1.0
C      1  0.4869640000000  0.5604710000000  0.5147010000000 1.0
C      1  0.5575750000000  0.4794110000000  0.5148370000000 1.0
C      1  0.4549910000000  0.4603050000000  0.5174360000000 1.0
C      1  0.5132210000000  0.5654570000000  0.5327200000000 1.0
C      1  0.5446100000000  0.4527310000000  0.5314540000000 1.0
C      1  0.4351160000000  0.4800150000000  0.5333210000000 1.0
C      1  0.5294100000000  0.5635740000000  0.4850520000000 1.0
C      1  0.5383610000000  0.4580380000000  0.4769100000000 1.0
C      1  0.4329150000000  0.4922600000000  0.4828670000000 1.0
C      1  0.4608310000000  0.4977320000000  0.4278460000000 1.0
C      1  0.5194020000000  0.5349320000000  0.4293970000000 1.0
C      1  0.5152410000000  0.4728940000000  0.4379010000000 1.0
C      1  0.4674920000000  0.4898270000000  0.5729080000000 1.0
C      1  0.5043800000000  0.5377960000000  0.5750120000000 1.0
C      1  0.5286450000000  0.4839130000000  0.5546360000000 1.0
C      1  0.4945210000000  0.5326100000000  0.4421850000000 1.0
C      1  0.5399900000000  0.4904320000000  0.4334370000000 1.0
C      1  0.4702690000000  0.4762200000000  0.4428170000000 1.0
C      1  0.4835050000000  0.5312110000000  0.5574180000000 1.0
C      1  0.5394020000000  0.5050200000000  0.5694520000000 1.0
C      1  0.4834700000000  0.4739920000000  0.5563920000000 1.0
C      1  0.4929340000000  0.4380850000000  0.4668780000000 1.0
C      1  0.4578530000000  0.5315270000000  0.4652960000000 1.0
C      1  0.5498230000000  0.5217350000000  0.4677970000000 1.0
C      1  0.5118970000000  0.4435780000000  0.5297610000000 1.0
C      1  0.4465200000000  0.5091040000000  0.5340070000000 1.0
C      1  0.5315220000000  0.5404500000000  0.5358920000000 1.0
C      1  0.5071550000000  0.4167620000000  0.4839880000000 1.0
C      1  0.4372330000000  0.5193880000000  0.4862160000000 1.0
C      1  0.5491040000000  0.5446340000000  0.4896450000000 1.0
C      1  0.5150550000000  0.4193100000000  0.5076190000000 1.0
C      1  0.4410930000000  0.5306380000000  0.5118410000000 1.0
C      1  0.5551890000000  0.5350350000000  0.5155810000000 1.0
C      1  0.5413550000000  0.5195850000000  0.4384610000000 1.0
C      1  0.4929200000000  0.4581770000000  0.4414260000000 1.0
C      1  0.4672890000000  0.5237120000000  0.4362040000000 1.0
C      1  0.5300100000000  0.5312010000000  0.5647560000000 1.0
C      1  0.5094810000000  0.4630840000000  0.5575130000000 1.0
C      1  0.4612970000000  0.5147190000000  0.5608550000000 1.0
C      1  0.4970860000000  0.5331760000000  0.4724620000000 1.0
C      1  0.5227590000000  0.4925730000000  0.4641200000000 1.0
C      1  0.4753070000000  0.4815790000000  0.4736800000000 1.0
C      1  0.4925610000000  0.5315340000000  0.5280360000000 1.0
C      1  0.5286630000000  0.4887010000000  0.5242700000000 1.0
C      1  0.4791670000000  0.4793880000000  0.5260020000000 1.0
C      1  0.4549250000000  0.5541220000000  0.5158940000000 1.0
C      1  0.5672180000000  0.5105570000000  0.5200890000000 1.0
C      1  0.4781510000000  0.4398890000000  0.5318270000000 1.0
C      1  0.4683340000000  0.5607920000000  0.4695810000000 1.0
C      1  0.5678290000000  0.4963160000000  0.4721350000000 1.0
C      1  0.4610340000000  0.4393560000000  0.4710310000000 1.0
C      1  0.4747600000000  0.5093860000000  0.5150740000000 1.0
C      1  0.5199880000000  0.5163110000000  0.5149000000000 1.0
C      1  0.5059570000000  0.4707830000000  0.5115300000000 1.0
C      1  0.4759700000000  0.5101290000000  0.4845600000000 1.0
C      1  0.5206700000000  0.5172310000000  0.4837660000000 1.0
C      1  0.5056730000000  0.4671990000000  0.4789720000000 1.0
END
