TITL C-1154829-9094-95 -0.000356382159972696 125000 -336.33503074078 0 0 60 (C1) n - 1
REM
REM in /home/nfs/bkarasulu/CARBON/AIRSS/Generating-Clusters/AIREBO/Higher-Symm/Only-C60
REM
REM
REM
REM
REM
REM ./C.cell (28575a23ae977d3b5fae324c64b13b57)
REM
REM compiler GCC version 9.2.1 20190827 (Red Hat 9.2.1-1)
REM options -cpp -mtune=generic -march=x86-64 -g -O0 -fpre-include=/usr/include/finclude/math-vector-fortran.h
REM seed 757201655 -530739655 -1716512116 1750078293 1495535822 -1598038251 322775332 596791286 1559643858 626763836 922270577 675589206 453330372 -1717581257 2101022088 1981958812 625575539 -1809288064 -1236918044 1605932838 535959786 2020730917 -1046709942 -887311745 1683346325 -1542685316 -181531559 -1060219948 1230878073 1747469314 780737383 1441960361 663306998
REM
CELL 1.54180   50.00000   50.00000   50.00000   90.00000   90.00000   90.00000
LATT -1
SFAC C  
C      1  0.4720510000000  0.5598790000000  0.4765670000000 1.0
C      1  0.5568350000000  0.5545580000000  0.4784570000000 1.0
C      1  0.4975650000000  0.5099140000000  0.4125670000000 1.0
C      1  0.4916650000000  0.5175710000000  0.5048750000000 1.0
C      1  0.4725850000000  0.4961610000000  0.5409660000000 1.0
C      1  0.5328590000000  0.4710190000000  0.5438480000000 1.0
C      1  0.5065310000000  0.4703100000000  0.4489960000000 1.0
C      1  0.5361570000000  0.4508260000000  0.4966190000000 1.0
C      1  0.4508320000000  0.5199490000000  0.5369860000000 1.0
C      1  0.5087070000000  0.5361780000000  0.4550320000000 1.0
C      1  0.5780290000000  0.4580450000000  0.4801830000000 1.0
C      1  0.4801090000000  0.4892060000000  0.5679610000000 1.0
C      1  0.4761920000000  0.5431180000000  0.5733140000000 1.0
C      1  0.4946400000000  0.4661740000000  0.4805880000000 1.0
C      1  0.4555580000000  0.4623990000000  0.4377610000000 1.0
C      1  0.4355340000000  0.5025480000000  0.5605230000000 1.0
C      1  0.4951830000000  0.5010990000000  0.4414590000000 1.0
C      1  0.5419310000000  0.5198550000000  0.5486490000000 1.0
C      1  0.4204130000000  0.4538370000000  0.4801370000000 1.0
C      1  0.5073130000000  0.5616650000000  0.5351050000000 1.0
C      1  0.4679000000000  0.5106550000000  0.4559160000000 1.0
C      1  0.4983490000000  0.5294750000000  0.5830590000000 1.0
C      1  0.5407040000000  0.5348260000000  0.5222820000000 1.0
C      1  0.4806910000000  0.4513500000000  0.4376430000000 1.0
C      1  0.5168150000000  0.4907350000000  0.4893530000000 1.0
C      1  0.4812190000000  0.5396140000000  0.4597430000000 1.0
C      1  0.4774670000000  0.5619160000000  0.5303730000000 1.0
C      1  0.4805010000000  0.3981860000000  0.5218330000000 1.0
C      1  0.5278790000000  0.4985940000000  0.5581010000000 1.0
C      1  0.4695660000000  0.3764550000000  0.5315840000000 1.0
C      1  0.4305360000000  0.5436790000000  0.4960770000000 1.0
C      1  0.4440640000000  0.5227970000000  0.5070070000000 1.0
C      1  0.5124890000000  0.4740820000000  0.5186800000000 1.0
C      1  0.5314340000000  0.4498420000000  0.5623650000000 1.0
C      1  0.5444930000000  0.5641890000000  0.5054880000000 1.0
C      1  0.4442970000000  0.5625430000000  0.4810690000000 1.0
C      1  0.5280860000000  0.5407100000000  0.4779910000000 1.0
C      1  0.5379380000000  0.4703610000000  0.4512700000000 1.0
C      1  0.5060050000000  0.4447620000000  0.5044290000000 1.0
C      1  0.5213980000000  0.5055370000000  0.4604190000000 1.0
C      1  0.4526100000000  0.4885360000000  0.5778090000000 1.0
C      1  0.5508400000000  0.4629150000000  0.5179600000000 1.0
C      1  0.4405280000000  0.4669700000000  0.4676940000000 1.0
C      1  0.5109550000000  0.5422170000000  0.5071990000000 1.0
C      1  0.4660990000000  0.4805210000000  0.4821130000000 1.0
C      1  0.4928190000000  0.4964960000000  0.5232220000000 1.0
C      1  0.5501860000000  0.4538150000000  0.4710970000000 1.0
C      1  0.4903000000000  0.5681080000000  0.4994970000000 1.0
C      1  0.5778250000000  0.4648550000000  0.5080430000000 1.0
C      1  0.5046130000000  0.5028870000000  0.5743080000000 1.0
C      1  0.5367050000000  0.5138450000000  0.4962940000000 1.0
C      1  0.5218260000000  0.5803970000000  0.5030490000000 1.0
C      1  0.5681550000000  0.5183710000000  0.4469590000000 1.0
C      1  0.4889790000000  0.4372460000000  0.4628800000000 1.0
C      1  0.4664700000000  0.5119500000000  0.4891640000000 1.0
C      1  0.4936400000000  0.4194340000000  0.5133130000000 1.0
C      1  0.5493200000000  0.4980360000000  0.4485380000000 1.0
C      1  0.4468760000000  0.4921730000000  0.4460050000000 1.0
C      1  0.4640240000000  0.5456270000000  0.5478530000000 1.0
C      1  0.5747120000000  0.5409830000000  0.4617300000000 1.0
END
