TITL C-1154804-8633-404 -0.00179555637187581 125000 -326.487742939211 0 0 60 (C1) n - 1
REM
REM in /home/nfs/bkarasulu/CARBON/AIRSS/Generating-Clusters/AIREBO/Higher-Symm/Only-C60
REM
REM
REM
REM
REM
REM ./C.cell (28575a23ae977d3b5fae324c64b13b57)
REM
REM compiler GCC version 9.2.1 20190827 (Red Hat 9.2.1-1)
REM options -cpp -mtune=generic -march=x86-64 -g -O0 -fpre-include=/usr/include/finclude/math-vector-fortran.h
REM seed -1831625354 418695952 322958355 -845663579 1056010697 -751638053 717149642 1307036069 761560333 1803968906 -1453985179 -1597311768 -1663166777 167538822 -2004477766 1161246923 548972035 945192369 698720440 1051209931 -1561668219 -934474358 -779676945 1605405258 -96677183 -969167770 1452194594 -1553434139 1285995392 1455530879 306860191 -216130384 -1530230034
REM
CELL 1.54180   50.00000   50.00000   50.00000   90.00000   90.00000   90.00000
LATT -1
SFAC C  
C      1  0.5529490000000  0.5117860000000  0.5490670000000 1.0
C      1  0.5462870000000  0.4588140000000  0.5416280000000 1.0
C      1  0.5028200000000  0.4250710000000  0.5510880000000 1.0
C      1  0.4537580000000  0.4597150000000  0.5369050000000 1.0
C      1  0.4339280000000  0.5113000000000  0.5461290000000 1.0
C      1  0.4740280000000  0.5601310000000  0.5504740000000 1.0
C      1  0.5259070000000  0.5638850000000  0.5533210000000 1.0
C      1  0.4229610000000  0.4944830000000  0.4842360000000 1.0
C      1  0.4392050000000  0.5523630000000  0.4808980000000 1.0
C      1  0.5017700000000  0.5771300000000  0.4837780000000 1.0
C      1  0.5611690000000  0.5458020000000  0.4831070000000 1.0
C      1  0.5806900000000  0.4843120000000  0.4801640000000 1.0
C      1  0.5364130000000  0.4252310000000  0.4850850000000 1.0
C      1  0.4545010000000  0.4371040000000  0.4847880000000 1.0
C      1  0.4544150000000  0.4377510000000  0.5127650000000 1.0
C      1  0.4302980000000  0.4972500000000  0.5121330000000 1.0
C      1  0.4442720000000  0.5516000000000  0.5073950000000 1.0
C      1  0.5019740000000  0.5681760000000  0.5104810000000 1.0
C      1  0.5551930000000  0.5442160000000  0.5091000000000 1.0
C      1  0.5743680000000  0.4842470000000  0.5063440000000 1.0
C      1  0.5343650000000  0.4331740000000  0.5118200000000 1.0
C      1  0.5166270000000  0.4665550000000  0.4800600000000 1.0
C      1  0.4898710000000  0.4679330000000  0.4923010000000 1.0
C      1  0.4708910000000  0.4919790000000  0.4821180000000 1.0
C      1  0.4688620000000  0.5239800000000  0.4837380000000 1.0
C      1  0.4975500000000  0.5375070000000  0.4852540000000 1.0
C      1  0.5222430000000  0.5178850000000  0.4796810000000 1.0
C      1  0.5344650000000  0.4896580000000  0.4837580000000 1.0
C      1  0.5489940000000  0.5452290000000  0.5429500000000 1.0
C      1  0.5650870000000  0.4839410000000  0.5394410000000 1.0
C      1  0.5295560000000  0.4313360000000  0.5434300000000 1.0
C      1  0.4793670000000  0.4373570000000  0.5352030000000 1.0
C      1  0.4342570000000  0.4781580000000  0.5384940000000 1.0
C      1  0.4490610000000  0.5410990000000  0.5398820000000 1.0
C      1  0.5001630000000  0.5662960000000  0.5409810000000 1.0
C      1  0.4434120000000  0.4937830000000  0.4664260000000 1.0
C      1  0.4550520000000  0.5387500000000  0.4589570000000 1.0
C      1  0.5006330000000  0.5574570000000  0.4603310000000 1.0
C      1  0.5435360000000  0.5347870000000  0.4640860000000 1.0
C      1  0.5587590000000  0.4867120000000  0.4634770000000 1.0
C      1  0.5260380000000  0.4427740000000  0.4656820000000 1.0
C      1  0.4714010000000  0.4535900000000  0.4709260000000 1.0
C      1  0.4999620000000  0.5378410000000  0.4376810000000 1.0
C      1  0.5256810000000  0.5222830000000  0.4402080000000 1.0
C      1  0.5357410000000  0.4897940000000  0.4394640000000 1.0
C      1  0.5164050000000  0.4595530000000  0.4408920000000 1.0
C      1  0.4805140000000  0.4661660000000  0.4432920000000 1.0
C      1  0.4641500000000  0.4959730000000  0.4429250000000 1.0
C      1  0.4714190000000  0.5253710000000  0.4369930000000 1.0
C      1  0.5062780000000  0.5350500000000  0.5168580000000 1.0
C      1  0.5334140000000  0.5222730000000  0.5232810000000 1.0
C      1  0.5420160000000  0.4899110000000  0.5151700000000 1.0
C      1  0.5214180000000  0.4633410000000  0.5210190000000 1.0
C      1  0.4908210000000  0.4651200000000  0.5229050000000 1.0
C      1  0.4608880000000  0.5051860000000  0.5263320000000 1.0
C      1  0.4722950000000  0.5343310000000  0.5159490000000 1.0
C      1  0.4922090000000  0.4943400000000  0.5620650000000 1.0
C      1  0.4818090000000  0.4885630000000  0.5386500000000 1.0
C      1  0.5034680000000  0.4893380000000  0.4447150000000 1.0
C      1  0.4982980000000  0.5006200000000  0.4710150000000 1.0
END
