TITL C-1154830-9999-102 0.000721388446586009 125000 -334.459778817239 0 0 60 (C1) n - 1
REM
REM in /home/nfs/bkarasulu/CARBON/AIRSS/Generating-Clusters/AIREBO/Higher-Symm/Only-C60
REM
REM
REM
REM
REM
REM ./C.cell (28575a23ae977d3b5fae324c64b13b57)
REM
REM compiler GCC version 9.2.1 20190827 (Red Hat 9.2.1-1)
REM options -cpp -mtune=generic -march=x86-64 -g -O0 -fpre-include=/usr/include/finclude/math-vector-fortran.h
REM seed 1253917917 -83293749 -1562084480 -1370053560 -26320741 -888290227 2046230466 -196545186 -551007452 1516586718 1882690223 -1350048096 -493471278 -1470806646 -26899992 863553462 -1756323646 1176704942 -677270629 1473130077 1245188592 218722688 -505269396 -1682235425 -1299726390 -342729581 1174649581 1886091327 906841013 -131040694 2086847735 874574295 793498878
REM
CELL 1.54180   50.00000   50.00000   50.00000   90.00000   90.00000   90.00000
LATT -1
SFAC C  
C      1  0.5133630000000  0.4596220000000  0.4568060000000 1.0
C      1  0.5136560000000  0.4423480000000  0.5172390000000 1.0
C      1  0.5266230000000  0.4809580000000  0.5583440000000 1.0
C      1  0.5159770000000  0.5435850000000  0.5472360000000 1.0
C      1  0.5133340000000  0.5601250000000  0.4843350000000 1.0
C      1  0.5144790000000  0.5162600000000  0.4412790000000 1.0
C      1  0.4802890000000  0.4517720000000  0.4556130000000 1.0
C      1  0.4826340000000  0.4410530000000  0.5231300000000 1.0
C      1  0.4764760000000  0.4860780000000  0.5552920000000 1.0
C      1  0.4833880000000  0.5415740000000  0.5396540000000 1.0
C      1  0.4813910000000  0.5562190000000  0.4830180000000 1.0
C      1  0.4816800000000  0.5120220000000  0.4352630000000 1.0
C      1  0.4429510000000  0.5297840000000  0.5122070000000 1.0
C      1  0.4429610000000  0.5234890000000  0.4788160000000 1.0
C      1  0.4418340000000  0.4935900000000  0.4665540000000 1.0
C      1  0.4423120000000  0.4713670000000  0.4856740000000 1.0
C      1  0.4441660000000  0.4785610000000  0.5187300000000 1.0
C      1  0.4395790000000  0.5075620000000  0.5313340000000 1.0
C      1  0.5577550000000  0.5281650000000  0.5162030000000 1.0
C      1  0.5547320000000  0.5249190000000  0.4824830000000 1.0
C      1  0.5577020000000  0.4973380000000  0.4671950000000 1.0
C      1  0.5564970000000  0.4727480000000  0.4840550000000 1.0
C      1  0.5552660000000  0.4756370000000  0.5179420000000 1.0
C      1  0.5599240000000  0.5040670000000  0.5319160000000 1.0
C      1  0.5195020000000  0.5675660000000  0.5155840000000 1.0
C      1  0.5151330000000  0.5486730000000  0.4461740000000 1.0
C      1  0.5182460000000  0.4779590000000  0.4308010000000 1.0
C      1  0.5176470000000  0.4331520000000  0.4862550000000 1.0
C      1  0.5140200000000  0.4537320000000  0.5583010000000 1.0
C      1  0.5201600000000  0.5191420000000  0.5680870000000 1.0
C      1  0.4870640000000  0.5702210000000  0.5123580000000 1.0
C      1  0.4844890000000  0.5420730000000  0.4458910000000 1.0
C      1  0.4861740000000  0.4730130000000  0.4311680000000 1.0
C      1  0.4840900000000  0.4352530000000  0.4914100000000 1.0
C      1  0.4848510000000  0.4570800000000  0.5596070000000 1.0
C      1  0.4876640000000  0.5225980000000  0.5658110000000 1.0
C      1  0.5416740000000  0.5494940000000  0.5266170000000 1.0
C      1  0.5399580000000  0.5506250000000  0.4654300000000 1.0
C      1  0.5412390000000  0.4962910000000  0.4431960000000 1.0
C      1  0.5401680000000  0.4508990000000  0.4742620000000 1.0
C      1  0.5401850000000  0.4509120000000  0.5367070000000 1.0
C      1  0.5459010000000  0.5045620000000  0.5577210000000 1.0
C      1  0.4594730000000  0.5520070000000  0.5203320000000 1.0
C      1  0.4574130000000  0.5486630000000  0.4604080000000 1.0
C      1  0.4594930000000  0.4895020000000  0.4443160000000 1.0
C      1  0.4566220000000  0.4468690000000  0.4782510000000 1.0
C      1  0.4574230000000  0.4550490000000  0.5396010000000 1.0
C      1  0.4576610000000  0.5102020000000  0.5555890000000 1.0
C      1  0.4872990000000  0.4919530000000  0.5268760000000 1.0
C      1  0.4827470000000  0.5201480000000  0.5147690000000 1.0
C      1  0.4742000000000  0.5254170000000  0.4876810000000 1.0
C      1  0.4869910000000  0.5058420000000  0.4682880000000 1.0
C      1  0.4846490000000  0.4749150000000  0.4798850000000 1.0
C      1  0.4754160000000  0.4706110000000  0.5079480000000 1.0
C      1  0.5187080000000  0.4918830000000  0.5302960000000 1.0
C      1  0.5131600000000  0.5219880000000  0.5217540000000 1.0
C      1  0.5239050000000  0.5305720000000  0.4954320000000 1.0
C      1  0.5188570000000  0.5098520000000  0.4733790000000 1.0
C      1  0.5145960000000  0.4805360000000  0.4820400000000 1.0
C      1  0.5242490000000  0.4719040000000  0.5074540000000 1.0
END
