TITL C-1154804-8633-296 0.00276277231108256 125000 -307.510167407046 0 0 60 (C1) n - 1
REM
REM in /home/nfs/bkarasulu/CARBON/AIRSS/Generating-Clusters/AIREBO/Higher-Symm/Only-C60
REM
REM
REM
REM
REM
REM ./C.cell (28575a23ae977d3b5fae324c64b13b57)
REM
REM compiler GCC version 9.2.1 20190827 (Red Hat 9.2.1-1)
REM options -cpp -mtune=generic -march=x86-64 -g -O0 -fpre-include=/usr/include/finclude/math-vector-fortran.h
REM seed -241141524 1395118626 -664917066 -236026500 1744042552 -101828742 1594173432 1060363675 -795720282 -1290760898 1066215835 -490311484 1015009882 -890430221 -1491752944 -587884593 -1796344825 1649080036 1730355592 232349923 -617198354 -2018050615 -29578699 805853216 1273886411 -303046108 -877366042 1534214448 2009513139 1186290515 413480706 -681188179 889071346
REM
CELL 1.54180   50.00000   50.00000   50.00000   90.00000   90.00000   90.00000
LATT -1
SFAC C  
C      1  0.5511510000000  0.4774390000000  0.5297650000000 1.0
C      1  0.5405450000000  0.4818520000000  0.4392530000000 1.0
C      1  0.5406970000000  0.5552680000000  0.5452490000000 1.0
C      1  0.4644470000000  0.4692350000000  0.5323500000000 1.0
C      1  0.4513150000000  0.4835070000000  0.4560650000000 1.0
C      1  0.4610330000000  0.5416500000000  0.5165620000000 1.0
C      1  0.5078020000000  0.3988500000000  0.4897920000000 1.0
C      1  0.5376230000000  0.5720780000000  0.4352110000000 1.0
C      1  0.5075640000000  0.5163130000000  0.6252650000000 1.0
C      1  0.4704160000000  0.4135270000000  0.4386450000000 1.0
C      1  0.4770420000000  0.5835190000000  0.4377750000000 1.0
C      1  0.4539760000000  0.5202210000000  0.6085440000000 1.0
C      1  0.5232240000000  0.5518030000000  0.5250120000000 1.0
C      1  0.5270220000000  0.4598710000000  0.5362130000000 1.0
C      1  0.5092790000000  0.4833600000000  0.4296590000000 1.0
C      1  0.4919730000000  0.5501390000000  0.5200190000000 1.0
C      1  0.4941260000000  0.4560860000000  0.5404880000000 1.0
C      1  0.4764830000000  0.4909650000000  0.4344500000000 1.0
C      1  0.4477860000000  0.4548120000000  0.5064470000000 1.0
C      1  0.4438310000000  0.5144560000000  0.4682440000000 1.0
C      1  0.4515450000000  0.5327060000000  0.5479630000000 1.0
C      1  0.5571400000000  0.4559310000000  0.4832230000000 1.0
C      1  0.5495320000000  0.5143730000000  0.4434780000000 1.0
C      1  0.5473720000000  0.5276590000000  0.5624100000000 1.0
C      1  0.4313950000000  0.5498530000000  0.5311430000000 1.0
C      1  0.4309680000000  0.4630350000000  0.5327390000000 1.0
C      1  0.4213720000000  0.4959270000000  0.4545450000000 1.0
C      1  0.5613960000000  0.5583500000000  0.5683770000000 1.0
C      1  0.5667000000000  0.4653720000000  0.5085350000000 1.0
C      1  0.5723590000000  0.4916940000000  0.4323970000000 1.0
C      1  0.5231510000000  0.5395080000000  0.4818680000000 1.0
C      1  0.5144370000000  0.5075430000000  0.5531290000000 1.0
C      1  0.5074630000000  0.4534500000000  0.4632840000000 1.0
C      1  0.4899970000000  0.5417690000000  0.4814630000000 1.0
C      1  0.4879690000000  0.5042740000000  0.5473830000000 1.0
C      1  0.4804100000000  0.4653880000000  0.4549740000000 1.0
C      1  0.4691300000000  0.5180990000000  0.5627690000000 1.0
C      1  0.4604040000000  0.4472740000000  0.4756590000000 1.0
C      1  0.4658140000000  0.5385100000000  0.4577760000000 1.0
C      1  0.5203050000000  0.5199010000000  0.5793900000000 1.0
C      1  0.5371110000000  0.4363400000000  0.4686810000000 1.0
C      1  0.5407970000000  0.5408290000000  0.4353170000000 1.0
C      1  0.5239520000000  0.4662670000000  0.5029860000000 1.0
C      1  0.5095570000000  0.5027240000000  0.4529450000000 1.0
C      1  0.5320790000000  0.5224100000000  0.5098790000000 1.0
C      1  0.4969900000000  0.4618480000000  0.5104220000000 1.0
C      1  0.4825380000000  0.5067620000000  0.4642410000000 1.0
C      1  0.5011140000000  0.5210410000000  0.5136460000000 1.0
C      1  0.4784560000000  0.4259150000000  0.4602010000000 1.0
C      1  0.4854650000000  0.5605660000000  0.4469830000000 1.0
C      1  0.4741700000000  0.5189620000000  0.5906900000000 1.0
C      1  0.5073290000000  0.4209540000000  0.4732910000000 1.0
C      1  0.5142840000000  0.5537630000000  0.4522260000000 1.0
C      1  0.5013360000000  0.5183490000000  0.5991050000000 1.0
C      1  0.4674830000000  0.5186990000000  0.4923100000000 1.0
C      1  0.4777400000000  0.4964500000000  0.5159110000000 1.0
C      1  0.4739120000000  0.4709550000000  0.4937450000000 1.0
C      1  0.5339210000000  0.5095210000000  0.4722320000000 1.0
C      1  0.5437230000000  0.5064960000000  0.5358840000000 1.0
C      1  0.5318540000000  0.4755830000000  0.4717920000000 1.0
END
