TITL C-1154816-9297-114 -0.000424562480301137 125000 -330.645725903234 0 0 60 (C1) n - 1
REM
REM in /home/nfs/bkarasulu/CARBON/AIRSS/Generating-Clusters/AIREBO/Higher-Symm/Only-C60
REM
REM
REM
REM
REM
REM ./C.cell (28575a23ae977d3b5fae324c64b13b57)
REM
REM compiler GCC version 9.2.1 20190827 (Red Hat 9.2.1-1)
REM options -cpp -mtune=generic -march=x86-64 -g -O0 -fpre-include=/usr/include/finclude/math-vector-fortran.h
REM seed -637405100 -1055429785 146110257 -36071350 -2002325370 2047363003 1931952082 -1829627643 1400201813 -280066846 -537412583 -1477163357 -1956133926 -200131875 26553119 1635832454 -2110646658 593776920 1800916418 -1573146784 -1501262515 875599791 -1156452459 744340214 -862547 -685433902 -716666190 1276422082 -1923333615 1348914477 -637273565 259057472 -2118019459
REM
CELL 1.54180   50.00000   50.00000   50.00000   90.00000   90.00000   90.00000
LATT -1
SFAC C  
C      1  0.4847240000000  0.4652260000000  0.4281530000000 1.0
C      1  0.4310370000000  0.4742510000000  0.4889130000000 1.0
C      1  0.4693050000000  0.4720650000000  0.5668280000000 1.0
C      1  0.5552160000000  0.4718530000000  0.5490880000000 1.0
C      1  0.5619440000000  0.4724180000000  0.4656320000000 1.0
C      1  0.4412140000000  0.4724430000000  0.5623660000000 1.0
C      1  0.5434410000000  0.4721930000000  0.5749840000000 1.0
C      1  0.5826470000000  0.4720260000000  0.4851260000000 1.0
C      1  0.5083890000000  0.4680640000000  0.4128170000000 1.0
C      1  0.4250090000000  0.4746190000000  0.4611750000000 1.0
C      1  0.5023520000000  0.5394710000000  0.4813910000000 1.0
C      1  0.4730630000000  0.5489640000000  0.4883220000000 1.0
C      1  0.4748160000000  0.5589280000000  0.5191120000000 1.0
C      1  0.5043590000000  0.5534150000000  0.5281880000000 1.0
C      1  0.5226830000000  0.5479930000000  0.5034970000000 1.0
C      1  0.5317010000000  0.5479440000000  0.5482160000000 1.0
C      1  0.5516200000000  0.5495970000000  0.4850540000000 1.0
C      1  0.5151320000000  0.5538010000000  0.4562360000000 1.0
C      1  0.4432450000000  0.5494280000000  0.4719800000000 1.0
C      1  0.4604000000000  0.5474820000000  0.5477020000000 1.0
C      1  0.4762460000000  0.4481470000000  0.5139840000000 1.0
C      1  0.5065670000000  0.4458930000000  0.5274040000000 1.0
C      1  0.5283040000000  0.4449530000000  0.5023720000000 1.0
C      1  0.5107680000000  0.4447970000000  0.4742740000000 1.0
C      1  0.4781830000000  0.4425840000000  0.4815370000000 1.0
C      1  0.5143320000000  0.4909670000000  0.5244260000000 1.0
C      1  0.5267500000000  0.4943660000000  0.4933160000000 1.0
C      1  0.5041200000000  0.5078520000000  0.4762540000000 1.0
C      1  0.4773310000000  0.4947840000000  0.4869300000000 1.0
C      1  0.4808880000000  0.4911820000000  0.5200140000000 1.0
C      1  0.4509860000000  0.5343320000000  0.5182640000000 1.0
C      1  0.5020940000000  0.5328820000000  0.5539150000000 1.0
C      1  0.5501880000000  0.5338820000000  0.5147010000000 1.0
C      1  0.5306280000000  0.5327340000000  0.4457140000000 1.0
C      1  0.4712560000000  0.5376300000000  0.4563050000000 1.0
C      1  0.4345270000000  0.4930760000000  0.5450870000000 1.0
C      1  0.5245810000000  0.4924340000000  0.5766680000000 1.0
C      1  0.5799590000000  0.4946410000000  0.5009060000000 1.0
C      1  0.5241670000000  0.4889580000000  0.4213130000000 1.0
C      1  0.4374330000000  0.4966380000000  0.4498560000000 1.0
C      1  0.5128650000000  0.5080320000000  0.4433540000000 1.0
C      1  0.4558110000000  0.5118880000000  0.4708500000000 1.0
C      1  0.4599330000000  0.5095670000000  0.5353550000000 1.0
C      1  0.5220170000000  0.5091930000000  0.5497160000000 1.0
C      1  0.5536110000000  0.5108760000000  0.4937230000000 1.0
C      1  0.4779660000000  0.4953740000000  0.5791860000000 1.0
C      1  0.5691990000000  0.4954740000000  0.5439870000000 1.0
C      1  0.5639970000000  0.4954170000000  0.4500270000000 1.0
C      1  0.4702260000000  0.4901540000000  0.4287730000000 1.0
C      1  0.4218010000000  0.4973780000000  0.5012090000000 1.0
C      1  0.4837160000000  0.4652440000000  0.5416530000000 1.0
C      1  0.5346350000000  0.4646960000000  0.5285590000000 1.0
C      1  0.5349350000000  0.4675320000000  0.4787820000000 1.0
C      1  0.4877070000000  0.4518090000000  0.4514010000000 1.0
C      1  0.4601970000000  0.4680220000000  0.4934810000000 1.0
C      1  0.4818710000000  0.5121150000000  0.4405280000000 1.0
C      1  0.4368510000000  0.5252840000000  0.4943430000000 1.0
C      1  0.4752710000000  0.5216150000000  0.5617020000000 1.0
C      1  0.5511320000000  0.5213790000000  0.5425230000000 1.0
C      1  0.5546560000000  0.5240370000000  0.4628280000000 1.0
END
