TITL C-1154826-9507-587 0.000364783068505365 125000 -330.274681953255 0 0 60 (C1) n - 1
REM
REM in /home/nfs/bkarasulu/CARBON/AIRSS/Generating-Clusters/AIREBO/Higher-Symm/Only-C60
REM
REM
REM
REM
REM
REM ./C.cell (28575a23ae977d3b5fae324c64b13b57)
REM
REM compiler GCC version 9.2.1 20190827 (Red Hat 9.2.1-1)
REM options -cpp -mtune=generic -march=x86-64 -g -O0 -fpre-include=/usr/include/finclude/math-vector-fortran.h
REM seed -905383847 838203259 784603384 280281918 -908834757 1634705963 589759751 1726301930 1074045351 339324297 1787197370 1152542237 -84245187 -1489198743 1670066298 622063844 654553053 -1873401594 -287718662 -954694204 -735078231 -152900496 1538055129 -486439432 -459785242 -1256486272 -1829155479 -842593886 11583038 -1728285187 -319302053 419529317 953429937
REM
CELL 1.54180   50.00000   50.00000   50.00000   90.00000   90.00000   90.00000
LATT -1
SFAC C  
C      1  0.4683710000000  0.4869390000000  0.4307810000000 1.0
C      1  0.4706220000000  0.5125470000000  0.5714060000000 1.0
C      1  0.4880060000000  0.5564610000000  0.4989040000000 1.0
C      1  0.4882330000000  0.4439100000000  0.5012150000000 1.0
C      1  0.5096110000000  0.5594260000000  0.5430530000000 1.0
C      1  0.5114900000000  0.4397780000000  0.4586010000000 1.0
C      1  0.4979980000000  0.5047850000000  0.5703970000000 1.0
C      1  0.4964400000000  0.4928830000000  0.4291030000000 1.0
C      1  0.5313110000000  0.5252520000000  0.4454350000000 1.0
C      1  0.5314030000000  0.4741420000000  0.5539200000000 1.0
C      1  0.5704920000000  0.4721160000000  0.5121900000000 1.0
C      1  0.5693350000000  0.5288690000000  0.4878170000000 1.0
C      1  0.4536180000000  0.5106540000000  0.4377860000000 1.0
C      1  0.4537490000000  0.4925500000000  0.5603590000000 1.0
C      1  0.4673200000000  0.5328870000000  0.4595750000000 1.0
C      1  0.4652630000000  0.4687590000000  0.5389570000000 1.0
C      1  0.4499870000000  0.4681710000000  0.4788900000000 1.0
C      1  0.4521200000000  0.5320720000000  0.5155020000000 1.0
C      1  0.5364260000000  0.4932950000000  0.5192380000000 1.0
C      1  0.5366170000000  0.5068960000000  0.4805100000000 1.0
C      1  0.5256880000000  0.4674050000000  0.4447750000000 1.0
C      1  0.5251600000000  0.5321470000000  0.5560980000000 1.0
C      1  0.4857750000000  0.4638950000000  0.5206700000000 1.0
C      1  0.4871400000000  0.5360420000000  0.4791730000000 1.0
C      1  0.4130090000000  0.4976710000000  0.5147780000000 1.0
C      1  0.4136020000000  0.5028600000000  0.4830270000000 1.0
C      1  0.4670200000000  0.5411770000000  0.5673450000000 1.0
C      1  0.4621860000000  0.4635940000000  0.4474170000000 1.0
C      1  0.4346230000000  0.5258490000000  0.4966520000000 1.0
C      1  0.4335870000000  0.4739090000000  0.5018150000000 1.0
C      1  0.4993730000000  0.4706390000000  0.4661460000000 1.0
C      1  0.4999840000000  0.5282470000000  0.5334930000000 1.0
C      1  0.5656300000000  0.4890950000000  0.4877680000000 1.0
C      1  0.5649650000000  0.5116380000000  0.5119650000000 1.0
C      1  0.4685430000000  0.4426350000000  0.4807500000000 1.0
C      1  0.4670720000000  0.5558300000000  0.5192630000000 1.0
C      1  0.5026450000000  0.4929310000000  0.5153070000000 1.0
C      1  0.5027930000000  0.5062330000000  0.4840080000000 1.0
C      1  0.5258940000000  0.5126850000000  0.5808340000000 1.0
C      1  0.5254730000000  0.4862060000000  0.4198310000000 1.0
C      1  0.4797380000000  0.4385450000000  0.4526240000000 1.0
C      1  0.4771260000000  0.5581720000000  0.5463130000000 1.0
C      1  0.5127610000000  0.5627470000000  0.5100500000000 1.0
C      1  0.5136740000000  0.4378360000000  0.4912720000000 1.0
C      1  0.5072510000000  0.5108580000000  0.4506200000000 1.0
C      1  0.5068090000000  0.4873210000000  0.5485860000000 1.0
C      1  0.5422750000000  0.4884200000000  0.5767250000000 1.0
C      1  0.5416280000000  0.5105060000000  0.4226160000000 1.0
C      1  0.5385410000000  0.4432400000000  0.5018850000000 1.0
C      1  0.5374400000000  0.5572470000000  0.4988870000000 1.0
C      1  0.5433190000000  0.5221720000000  0.5338210000000 1.0
C      1  0.5439180000000  0.4779320000000  0.4664790000000 1.0
C      1  0.5422090000000  0.5390700000000  0.4723060000000 1.0
C      1  0.5434580000000  0.4614820000000  0.5275860000000 1.0
C      1  0.4456490000000  0.4936920000000  0.5267160000000 1.0
C      1  0.4459960000000  0.5070180000000  0.4707220000000 1.0
C      1  0.5555980000000  0.4510910000000  0.4816320000000 1.0
C      1  0.5547590000000  0.5493960000000  0.5188760000000 1.0
C      1  0.4746330000000  0.5109140000000  0.5222440000000 1.0
C      1  0.4746490000000  0.4892630000000  0.4752880000000 1.0
END
