TITL C-1154810-7815-498 -0.000237726423526075 125000 -338.443151168353 0 0 60 (C1) n - 1
REM
REM in /home/nfs/bkarasulu/CARBON/AIRSS/Generating-Clusters/AIREBO/Higher-Symm/Only-C60
REM
REM
REM
REM
REM
REM ./C.cell (28575a23ae977d3b5fae324c64b13b57)
REM
REM compiler GCC version 9.2.1 20190827 (Red Hat 9.2.1-1)
REM options -cpp -mtune=generic -march=x86-64 -g -O0 -fpre-include=/usr/include/finclude/math-vector-fortran.h
REM seed 88375965 1769800786 -1905973792 471989488 -575050481 1741407560 780107052 1199607098 -1312590487 -663175836 -1321915499 -1558530991 936492670 -1737425423 160354141 -362484293 -507071575 -1803538511 -1501934477 945315784 2104985689 -1809603921 1503222312 -417464331 -618377635 -1178533375 274356960 416671677 -1962219812 -881199729 846172397 2062315852 -159675779
REM
CELL 1.54180   50.00000   50.00000   50.00000   90.00000   90.00000   90.00000
LATT -1
SFAC C  
C      1  0.4743060000000  0.4893340000000  0.4274200000000 1.0
C      1  0.5216410000000  0.4967150000000  0.5719150000000 1.0
C      1  0.5105470000000  0.5152700000000  0.4486660000000 1.0
C      1  0.4853220000000  0.5220220000000  0.5479270000000 1.0
C      1  0.4895160000000  0.5092850000000  0.5213800000000 1.0
C      1  0.5210680000000  0.5183220000000  0.4798570000000 1.0
C      1  0.4643920000000  0.4807720000000  0.4813080000000 1.0
C      1  0.5338860000000  0.4853850000000  0.5204680000000 1.0
C      1  0.4945550000000  0.5019380000000  0.5704730000000 1.0
C      1  0.5011820000000  0.4951240000000  0.4252130000000 1.0
C      1  0.4373180000000  0.4892910000000  0.5257710000000 1.0
C      1  0.5575570000000  0.4929350000000  0.4739200000000 1.0
C      1  0.5394140000000  0.4497090000000  0.4860740000000 1.0
C      1  0.4512540000000  0.4448990000000  0.5126130000000 1.0
C      1  0.4721620000000  0.4428290000000  0.5313400000000 1.0
C      1  0.5147130000000  0.4534270000000  0.4733650000000 1.0
C      1  0.4896720000000  0.5676350000000  0.5241680000000 1.0
C      1  0.5169340000000  0.5661720000000  0.4791020000000 1.0
C      1  0.4663050000000  0.4434210000000  0.4142400000000 1.0
C      1  0.5291490000000  0.4509900000000  0.5869280000000 1.0
C      1  0.5487310000000  0.5693700000000  0.5222980000000 1.0
C      1  0.4609040000000  0.5661840000000  0.4795560000000 1.0
C      1  0.4416680000000  0.5311080000000  0.4444450000000 1.0
C      1  0.5613960000000  0.5326520000000  0.5569780000000 1.0
C      1  0.5480700000000  0.4759190000000  0.4944530000000 1.0
C      1  0.4468720000000  0.4722660000000  0.5056320000000 1.0
C      1  0.4434840000000  0.4364860000000  0.4667940000000 1.0
C      1  0.5662480000000  0.4517680000000  0.5400840000000 1.0
C      1  0.5317850000000  0.4705120000000  0.5686630000000 1.0
C      1  0.4653010000000  0.4631760000000  0.4324310000000 1.0
C      1  0.4601550000000  0.5140790000000  0.4755320000000 1.0
C      1  0.5409510000000  0.5182430000000  0.5258140000000 1.0
C      1  0.5378630000000  0.5155420000000  0.5605170000000 1.0
C      1  0.4594180000000  0.5083890000000  0.4406380000000 1.0
C      1  0.5375820000000  0.5343120000000  0.4474900000000 1.0
C      1  0.4534290000000  0.5313320000000  0.5523280000000 1.0
C      1  0.4737600000000  0.4849610000000  0.5571190000000 1.0
C      1  0.5318290000000  0.4862630000000  0.4320100000000 1.0
C      1  0.5024950000000  0.4819080000000  0.5167420000000 1.0
C      1  0.4943200000000  0.4758310000000  0.4872620000000 1.0
C      1  0.5957230000000  0.5070500000000  0.5058700000000 1.0
C      1  0.4044320000000  0.5108100000000  0.4958160000000 1.0
C      1  0.4873200000000  0.5586850000000  0.4923750000000 1.0
C      1  0.5208850000000  0.5650700000000  0.5122250000000 1.0
C      1  0.5527490000000  0.4267820000000  0.4896170000000 1.0
C      1  0.4432160000000  0.4269390000000  0.4926220000000 1.0
C      1  0.4762200000000  0.5530940000000  0.5432040000000 1.0
C      1  0.5323670000000  0.5594410000000  0.4584870000000 1.0
C      1  0.4850650000000  0.4668310000000  0.5380370000000 1.0
C      1  0.5141140000000  0.4838490000000  0.4611650000000 1.0
C      1  0.4514130000000  0.5008530000000  0.5473550000000 1.0
C      1  0.5490640000000  0.5051620000000  0.4495330000000 1.0
C      1  0.4483560000000  0.5453200000000  0.4690700000000 1.0
C      1  0.5591680000000  0.5464660000000  0.5311670000000 1.0
C      1  0.5171940000000  0.5325460000000  0.5056610000000 1.0
C      1  0.4853420000000  0.5262690000000  0.4954020000000 1.0
C      1  0.4559390000000  0.4601700000000  0.4582970000000 1.0
C      1  0.5439450000000  0.4673480000000  0.5436620000000 1.0
C      1  0.4290860000000  0.5110870000000  0.4890170000000 1.0
C      1  0.5712480000000  0.5104570000000  0.5124840000000 1.0
END
