TITL C-1154810-7815-648 0.00150038141503309 125000 -325.603848521665 0 0 60 (C1) n - 1
REM
REM in /home/nfs/bkarasulu/CARBON/AIRSS/Generating-Clusters/AIREBO/Higher-Symm/Only-C60
REM
REM
REM
REM
REM
REM ./C.cell (28575a23ae977d3b5fae324c64b13b57)
REM
REM compiler GCC version 9.2.1 20190827 (Red Hat 9.2.1-1)
REM options -cpp -mtune=generic -march=x86-64 -g -O0 -fpre-include=/usr/include/finclude/math-vector-fortran.h
REM seed -276902638 -1835860463 1500626111 1495423443 -468485197 247350064 1741934862 -1881298900 898582596 -1813200210 1151111221 -1667360659 1669190509 -1357732934 1275164321 247657202 1286398325 1160302314 1531348451 328682436 853147240 2123627808 515596529 -294993554 1294622672 -2307662 -944951052 1773642104 561137911 655008361 58390453 412865995 496580703
REM
CELL 1.54180   50.00000   50.00000   50.00000   90.00000   90.00000   90.00000
LATT -1
SFAC C  
C      1  0.4979310000000  0.4361960000000  0.4948130000000 1.0
C      1  0.4873120000000  0.5689920000000  0.5470030000000 1.0
C      1  0.4522080000000  0.4980790000000  0.4353950000000 1.0
C      1  0.4252680000000  0.4812840000000  0.4864270000000 1.0
C      1  0.5661130000000  0.4639040000000  0.5292200000000 1.0
C      1  0.4967500000000  0.4749720000000  0.5675030000000 1.0
C      1  0.5424660000000  0.4670210000000  0.5443620000000 1.0
C      1  0.5478370000000  0.5140060000000  0.4235560000000 1.0
C      1  0.4757600000000  0.5653410000000  0.4671090000000 1.0
C      1  0.5319750000000  0.5308500000000  0.5338710000000 1.0
C      1  0.4513510000000  0.5149770000000  0.4542300000000 1.0
C      1  0.5601550000000  0.5333330000000  0.4926700000000 1.0
C      1  0.4536290000000  0.4384070000000  0.5144270000000 1.0
C      1  0.5223700000000  0.4984090000000  0.5304700000000 1.0
C      1  0.4680940000000  0.5082680000000  0.4830570000000 1.0
C      1  0.5168110000000  0.4664940000000  0.5251080000000 1.0
C      1  0.4437300000000  0.4604330000000  0.5296470000000 1.0
C      1  0.4407790000000  0.4646830000000  0.4694870000000 1.0
C      1  0.4384840000000  0.5123020000000  0.5265030000000 1.0
C      1  0.5214240000000  0.5392380000000  0.4851620000000 1.0
C      1  0.4954250000000  0.5094970000000  0.5135990000000 1.0
C      1  0.4899800000000  0.4518900000000  0.4464940000000 1.0
C      1  0.4832370000000  0.4303380000000  0.4684260000000 1.0
C      1  0.4987720000000  0.5286170000000  0.5415210000000 1.0
C      1  0.4743780000000  0.5555210000000  0.5247650000000 1.0
C      1  0.4910360000000  0.5169760000000  0.4500130000000 1.0
C      1  0.5056450000000  0.5276810000000  0.5748100000000 1.0
C      1  0.5778390000000  0.5095180000000  0.5093000000000 1.0
C      1  0.4924100000000  0.4546070000000  0.5403620000000 1.0
C      1  0.5082630000000  0.4684880000000  0.4922580000000 1.0
C      1  0.5122130000000  0.5019520000000  0.5821080000000 1.0
C      1  0.4755750000000  0.5563200000000  0.4968870000000 1.0
C      1  0.5306490000000  0.4774770000000  0.5683100000000 1.0
C      1  0.4913680000000  0.4864710000000  0.4481170000000 1.0
C      1  0.5271500000000  0.5280130000000  0.4121080000000 1.0
C      1  0.5463510000000  0.4746680000000  0.4573680000000 1.0
C      1  0.5182960000000  0.5001080000000  0.4909330000000 1.0
C      1  0.5169020000000  0.4671680000000  0.4596040000000 1.0
C      1  0.4886860000000  0.5514200000000  0.4465340000000 1.0
C      1  0.4272090000000  0.4802670000000  0.5183680000000 1.0
C      1  0.4687110000000  0.4749980000000  0.5390770000000 1.0
C      1  0.4359090000000  0.5094170000000  0.4934830000000 1.0
C      1  0.4647860000000  0.5285570000000  0.5398520000000 1.0
C      1  0.5452570000000  0.5035200000000  0.5082140000000 1.0
C      1  0.5631130000000  0.5286080000000  0.5333300000000 1.0
C      1  0.4766560000000  0.4753560000000  0.4834540000000 1.0
C      1  0.5740290000000  0.4765000000000  0.5047670000000 1.0
C      1  0.4604680000000  0.4465530000000  0.4855260000000 1.0
C      1  0.5375360000000  0.5509100000000  0.5099320000000 1.0
C      1  0.4985770000000  0.5569600000000  0.5696180000000 1.0
C      1  0.4922640000000  0.5316160000000  0.4807210000000 1.0
C      1  0.5401790000000  0.5172990000000  0.4713290000000 1.0
C      1  0.4671960000000  0.4974060000000  0.5152720000000 1.0
C      1  0.4815630000000  0.5013510000000  0.5523390000000 1.0
C      1  0.5484610000000  0.5013190000000  0.4482490000000 1.0
C      1  0.5400790000000  0.5778670000000  0.5152390000000 1.0
C      1  0.5036850000000  0.5353500000000  0.4244020000000 1.0
C      1  0.4615280000000  0.4701820000000  0.4456500000000 1.0
C      1  0.5653410000000  0.4685140000000  0.4783930000000 1.0
C      1  0.4828300000000  0.4335330000000  0.5192480000000 1.0
END
