TITL C-1154825-9328-395 -0.00188157179859591 125000 -317.545278872994 0 0 60 (C1) n - 1
REM
REM in /home/nfs/bkarasulu/CARBON/AIRSS/Generating-Clusters/AIREBO/Higher-Symm/Only-C60
REM
REM
REM
REM
REM
REM ./C.cell (28575a23ae977d3b5fae324c64b13b57)
REM
REM compiler GCC version 9.2.1 20190827 (Red Hat 9.2.1-1)
REM options -cpp -mtune=generic -march=x86-64 -g -O0 -fpre-include=/usr/include/finclude/math-vector-fortran.h
REM seed -364450071 -1884186674 -948116303 444770085 425173548 2007194169 -410598290 47496621 152986878 -1283535565 1702443996 2132491861 -1546356934 -1446862300 -23347086 1319727886 -1427430808 -917906807 -1421419357 985432464 679732872 1252362271 -620889913 1730848840 -582495123 1138665452 -738861797 -1228881804 1989779898 -1592783278 162675448 956263858 -918642820
REM
CELL 1.54180   50.00000   50.00000   50.00000   90.00000   90.00000   90.00000
LATT -1
SFAC C  
C      1  0.5113420000000  0.5201100000000  0.5754170000000 1.0
C      1  0.4551010000000  0.5480290000000  0.5225890000000 1.0
C      1  0.5052530000000  0.5002730000000  0.4495360000000 1.0
C      1  0.5068950000000  0.4931910000000  0.5716320000000 1.0
C      1  0.5376050000000  0.5421310000000  0.4719890000000 1.0
C      1  0.4568290000000  0.4890500000000  0.5107070000000 1.0
C      1  0.5601380000000  0.5188230000000  0.4609110000000 1.0
C      1  0.5174380000000  0.5751340000000  0.5097680000000 1.0
C      1  0.5162460000000  0.4508690000000  0.5084560000000 1.0
C      1  0.4423890000000  0.4446980000000  0.4598270000000 1.0
C      1  0.5156200000000  0.4218700000000  0.4906050000000 1.0
C      1  0.4976690000000  0.5377970000000  0.5528800000000 1.0
C      1  0.5402970000000  0.4998270000000  0.5100790000000 1.0
C      1  0.4580430000000  0.5201340000000  0.4666130000000 1.0
C      1  0.4898120000000  0.4985950000000  0.4209650000000 1.0
C      1  0.5157190000000  0.5588300000000  0.5324810000000 1.0
C      1  0.4933510000000  0.5051950000000  0.5108490000000 1.0
C      1  0.5400370000000  0.4689420000000  0.4398140000000 1.0
C      1  0.4927020000000  0.5462020000000  0.4452720000000 1.0
C      1  0.4677310000000  0.5349010000000  0.5509770000000 1.0
C      1  0.5582930000000  0.4938780000000  0.4503420000000 1.0
C      1  0.4360540000000  0.5232900000000  0.5467010000000 1.0
C      1  0.4831700000000  0.4825420000000  0.5304960000000 1.0
C      1  0.4902800000000  0.4412770000000  0.4797970000000 1.0
C      1  0.5274620000000  0.4771310000000  0.4928220000000 1.0
C      1  0.4078000000000  0.4782690000000  0.4645100000000 1.0
C      1  0.4986960000000  0.4905850000000  0.4806000000000 1.0
C      1  0.4893990000000  0.5291000000000  0.4908180000000 1.0
C      1  0.5393570000000  0.5323530000000  0.5045100000000 1.0
C      1  0.4746690000000  0.5566780000000  0.4979930000000 1.0
C      1  0.5074290000000  0.5272090000000  0.4671950000000 1.0
C      1  0.5124310000000  0.4714180000000  0.4396320000000 1.0
C      1  0.5615600000000  0.4486920000000  0.5256510000000 1.0
C      1  0.4666840000000  0.4569500000000  0.4653370000000 1.0
C      1  0.4320150000000  0.4822940000000  0.4714910000000 1.0
C      1  0.4455180000000  0.4695600000000  0.5339570000000 1.0
C      1  0.5668230000000  0.5214430000000  0.4898310000000 1.0
C      1  0.5374180000000  0.5712970000000  0.4894800000000 1.0
C      1  0.4678360000000  0.5154110000000  0.4198770000000 1.0
C      1  0.4811670000000  0.4894080000000  0.5603450000000 1.0
C      1  0.5042080000000  0.4593920000000  0.5366000000000 1.0
C      1  0.4883440000000  0.4318320000000  0.5124040000000 1.0
C      1  0.4928830000000  0.4529080000000  0.4450130000000 1.0
C      1  0.5195900000000  0.5597050000000  0.4476940000000 1.0
C      1  0.5511150000000  0.4682010000000  0.4700730000000 1.0
C      1  0.4430600000000  0.4778570000000  0.5577510000000 1.0
C      1  0.4674470000000  0.5325440000000  0.4426430000000 1.0
C      1  0.5586730000000  0.4677820000000  0.5467210000000 1.0
C      1  0.4498910000000  0.5359240000000  0.4905940000000 1.0
C      1  0.5313960000000  0.5019550000000  0.5413010000000 1.0
C      1  0.4433140000000  0.5159360000000  0.5155480000000 1.0
C      1  0.4917410000000  0.5811590000000  0.4997630000000 1.0
C      1  0.4882110000000  0.4334620000000  0.5450400000000 1.0
C      1  0.4557610000000  0.5070280000000  0.5674450000000 1.0
C      1  0.5277470000000  0.4740030000000  0.5550710000000 1.0
C      1  0.5140520000000  0.5255380000000  0.5257130000000 1.0
C      1  0.4648610000000  0.4885960000000  0.4776350000000 1.0
C      1  0.5759820000000  0.4905750000000  0.5417340000000 1.0
C      1  0.5719170000000  0.5049000000000  0.5172200000000 1.0
C      1  0.5555310000000  0.4573200000000  0.5012860000000 1.0
END
