TITL C-1154830-9999-16 0.000349871019124299 125000 -338.177639049722 0 0 60 (C1) n - 1
REM
REM in /home/nfs/bkarasulu/CARBON/AIRSS/Generating-Clusters/AIREBO/Higher-Symm/Only-C60
REM
REM
REM
REM
REM
REM ./C.cell (28575a23ae977d3b5fae324c64b13b57)
REM
REM compiler GCC version 9.2.1 20190827 (Red Hat 9.2.1-1)
REM options -cpp -mtune=generic -march=x86-64 -g -O0 -fpre-include=/usr/include/finclude/math-vector-fortran.h
REM seed -1481984359 -1639464682 1820417923 645990823 -1036945986 405509611 -239847689 2117089230 1808976785 46789624 270287279 1488716967 2053665508 328592883 148592798 -695785742 1086403695 -582254984 -848609901 -1617086776 -133045880 -2109125950 -1637547416 -1792586241 -1831301689 -164341469 302720052 756034062 -1514196609 -1421199689 -1809324102 1905842046 5263970
REM
CELL 1.54180   50.00000   50.00000   50.00000   90.00000   90.00000   90.00000
LATT -1
SFAC C  
C      1  0.4731190000000  0.5557100000000  0.5255140000000 1.0
C      1  0.5136480000000  0.4377420000000  0.5495690000000 1.0
C      1  0.4905870000000  0.4107790000000  0.5024700000000 1.0
C      1  0.5026410000000  0.5335680000000  0.5676360000000 1.0
C      1  0.4713050000000  0.4222280000000  0.5145690000000 1.0
C      1  0.4785010000000  0.5499360000000  0.4736990000000 1.0
C      1  0.4376940000000  0.5384220000000  0.4970540000000 1.0
C      1  0.5614380000000  0.5037400000000  0.5027120000000 1.0
C      1  0.5441860000000  0.5709400000000  0.5101320000000 1.0
C      1  0.4943620000000  0.4571220000000  0.4899580000000 1.0
C      1  0.4653020000000  0.4971870000000  0.4898760000000 1.0
C      1  0.5440330000000  0.5038740000000  0.5520010000000 1.0
C      1  0.5248320000000  0.4970600000000  0.4336690000000 1.0
C      1  0.5298480000000  0.5417570000000  0.4540610000000 1.0
C      1  0.4964820000000  0.5733840000000  0.5398890000000 1.0
C      1  0.5469920000000  0.5276510000000  0.4738840000000 1.0
C      1  0.5088270000000  0.5053410000000  0.4954980000000 1.0
C      1  0.4657970000000  0.4978220000000  0.5514690000000 1.0
C      1  0.5129010000000  0.5136430000000  0.5240760000000 1.0
C      1  0.5104420000000  0.5250860000000  0.4366060000000 1.0
C      1  0.4283900000000  0.4329300000000  0.4793800000000 1.0
C      1  0.4653190000000  0.4978670000000  0.4499750000000 1.0
C      1  0.4279320000000  0.5276060000000  0.4723910000000 1.0
C      1  0.4906510000000  0.4539240000000  0.4575790000000 1.0
C      1  0.5213950000000  0.5670700000000  0.4591520000000 1.0
C      1  0.4842430000000  0.5057980000000  0.5698530000000 1.0
C      1  0.4294660000000  0.4802200000000  0.4937060000000 1.0
C      1  0.5277160000000  0.4360650000000  0.5223630000000 1.0
C      1  0.5611550000000  0.4392620000000  0.4414540000000 1.0
C      1  0.5774240000000  0.5356270000000  0.4849970000000 1.0
C      1  0.4660620000000  0.4524880000000  0.5072770000000 1.0
C      1  0.5313530000000  0.4651190000000  0.5265190000000 1.0
C      1  0.5398960000000  0.4527320000000  0.4510190000000 1.0
C      1  0.4757850000000  0.4734120000000  0.4447650000000 1.0
C      1  0.5494660000000  0.4766760000000  0.5452890000000 1.0
C      1  0.4955000000000  0.5716950000000  0.4674590000000 1.0
C      1  0.5178090000000  0.4400690000000  0.4630740000000 1.0
C      1  0.5238940000000  0.5085590000000  0.5707730000000 1.0
C      1  0.4362140000000  0.4936640000000  0.5185950000000 1.0
C      1  0.5894790000000  0.5116540000000  0.4969400000000 1.0
C      1  0.4844100000000  0.5239300000000  0.4535550000000 1.0
C      1  0.5051660000000  0.4641550000000  0.5565400000000 1.0
C      1  0.5017440000000  0.4818260000000  0.5285320000000 1.0
C      1  0.5429560000000  0.4948710000000  0.4776720000000 1.0
C      1  0.4686440000000  0.4836340000000  0.5206930000000 1.0
C      1  0.4387900000000  0.4541140000000  0.4930620000000 1.0
C      1  0.5385370000000  0.4811990000000  0.4507910000000 1.0
C      1  0.5050770000000  0.4844230000000  0.5766050000000 1.0
C      1  0.5508200000000  0.5423700000000  0.5037770000000 1.0
C      1  0.5438290000000  0.5201430000000  0.5255330000000 1.0
C      1  0.4307410000000  0.5216110000000  0.5193590000000 1.0
C      1  0.5181480000000  0.4779390000000  0.4919140000000 1.0
C      1  0.4496390000000  0.5585890000000  0.5418470000000 1.0
C      1  0.5144560000000  0.4300260000000  0.4953860000000 1.0
C      1  0.4947290000000  0.5336700000000  0.5364530000000 1.0
C      1  0.4867760000000  0.5113560000000  0.4817230000000 1.0
C      1  0.5059600000000  0.5367110000000  0.4111100000000 1.0
C      1  0.4632990000000  0.5506160000000  0.4971470000000 1.0
C      1  0.5050630000000  0.5646790000000  0.5622880000000 1.0
C      1  0.4391300000000  0.4987070000000  0.4691110000000 1.0
END
