TITL C-1154801-8518-483 -0.000445188572052405 125000 -283.829635921365 0 0 60 (Ci) n - 1
REM
REM in /home/nfs/bkarasulu/CARBON/AIRSS/Generating-Clusters/AIREBO/Higher-Symm/Only-C60
REM
REM
REM
REM
REM
REM ./C.cell (28575a23ae977d3b5fae324c64b13b57)
REM
REM compiler GCC version 9.2.1 20190827 (Red Hat 9.2.1-1)
REM options -cpp -mtune=generic -march=x86-64 -g -O0 -fpre-include=/usr/include/finclude/math-vector-fortran.h
REM seed 1513063524 1986052344 938169063 -181743364 2030242515 64385701 691499334 1441722050 -986171547 -1173233862 -1595325353 974952083 -1126104308 257944053 1809470720 43009065 -808066721 -1731270356 -158806104 497436723 1575656717 888293756 -1877177091 -262773713 -1907810066 159439009 -1562475516 1670899774 1438594296 893086115 1699441380 195260633 -1042390053
REM
CELL 1.54180   50.00000   50.00000   50.00000   90.00000   90.00000   90.00000
LATT -1
SFAC C  
C      1  0.4756810000000  0.4588820000000  0.4472520000000 1.0
C      1  0.4761010000000  0.5249270000000  0.4375050000000 1.0
C      1  0.4752320000000  0.5661950000000  0.4901170000000 1.0
C      1  0.4766540000000  0.5417990000000  0.5521510000000 1.0
C      1  0.4760090000000  0.4757560000000  0.5612500000000 1.0
C      1  0.4770500000000  0.4342160000000  0.5093100000000 1.0
C      1  0.5233480000000  0.4582000000000  0.4478530000000 1.0
C      1  0.5240050000000  0.5242400000000  0.4387540000000 1.0
C      1  0.5229450000000  0.5657800000000  0.4906880000000 1.0
C      1  0.5243190000000  0.5411200000000  0.5527490000000 1.0
C      1  0.5239010000000  0.4750750000000  0.5625000000000 1.0
C      1  0.5247660000000  0.4338080000000  0.5098880000000 1.0
C      1  0.4378760000000  0.4687650000000  0.5106700000000 1.0
C      1  0.4368490000000  0.4735720000000  0.4770610000000 1.0
C      1  0.4372320000000  0.5062970000000  0.4678450000000 1.0
C      1  0.4371190000000  0.5328360000000  0.4887450000000 1.0
C      1  0.4383320000000  0.5243580000000  0.5216500000000 1.0
C      1  0.4383530000000  0.4929410000000  0.5345720000000 1.0
C      1  0.5628820000000  0.4671610000000  0.5112570000000 1.0
C      1  0.5616670000000  0.4756390000000  0.4783520000000 1.0
C      1  0.5616580000000  0.5070530000000  0.4654270000000 1.0
C      1  0.5621160000000  0.5312410000000  0.4893180000000 1.0
C      1  0.5631510000000  0.5264290000000  0.5229320000000 1.0
C      1  0.5627670000000  0.4937050000000  0.5321500000000 1.0
C      1  0.5241110000000  0.5198360000000  0.4843320000000 1.0
C      1  0.5235710000000  0.5237090000000  0.5103460000000 1.0
C      1  0.5226780000000  0.5031660000000  0.5267920000000 1.0
C      1  0.5223110000000  0.4787390000000  0.5171150000000 1.0
C      1  0.5225180000000  0.4747510000000  0.4911330000000 1.0
C      1  0.5237220000000  0.4953010000000  0.4748170000000 1.0
C      1  0.4776860000000  0.5212610000000  0.4828850000000 1.0
C      1  0.4774800000000  0.5252460000000  0.5088680000000 1.0
C      1  0.4762790000000  0.5046950000000  0.5251830000000 1.0
C      1  0.4758820000000  0.4801600000000  0.5156690000000 1.0
C      1  0.4764270000000  0.4762900000000  0.4896540000000 1.0
C      1  0.4773190000000  0.4968330000000  0.4732080000000 1.0
C      1  0.5170300000000  0.4449710000000  0.4786990000000 1.0
C      1  0.5167430000000  0.4913340000000  0.4438890000000 1.0
C      1  0.5162110000000  0.5442710000000  0.4651170000000 1.0
C      1  0.5169470000000  0.5529600000000  0.5216200000000 1.0
C      1  0.5172080000000  0.5083780000000  0.5586250000000 1.0
C      1  0.5176770000000  0.4534070000000  0.5370210000000 1.0
C      1  0.4830510000000  0.4470400000000  0.4783800000000 1.0
C      1  0.4827950000000  0.4916230000000  0.4413740000000 1.0
C      1  0.4823210000000  0.5465980000000  0.4629820000000 1.0
C      1  0.4829690000000  0.5550260000000  0.5213040000000 1.0
C      1  0.4832600000000  0.5086640000000  0.5561120000000 1.0
C      1  0.4837860000000  0.4557200000000  0.5348850000000 1.0
C      1  0.5495550000000  0.4455620000000  0.4886390000000 1.0
C      1  0.5490800000000  0.4813370000000  0.4472440000000 1.0
C      1  0.5489930000000  0.5379100000000  0.4586650000000 1.0
C      1  0.5490090000000  0.5545500000000  0.5103770000000 1.0
C      1  0.5494870000000  0.5173290000000  0.5527080000000 1.0
C      1  0.5495800000000  0.4639960000000  0.5422340000000 1.0
C      1  0.4509880000000  0.4454500000000  0.4896210000000 1.0
C      1  0.4505140000000  0.4826750000000  0.4472860000000 1.0
C      1  0.4504190000000  0.5360070000000  0.4577660000000 1.0
C      1  0.4504440000000  0.5544360000000  0.5113640000000 1.0
C      1  0.4509230000000  0.5186610000000  0.5527570000000 1.0
C      1  0.4510100000000  0.4621140000000  0.5413380000000 1.0
END
