TITL C-1154827-9204-248 -0.0010643161491703 125000 -308.673478073697 0 0 60 (C1) n - 1
REM
REM in /home/nfs/bkarasulu/CARBON/AIRSS/Generating-Clusters/AIREBO/Higher-Symm/Only-C60
REM
REM
REM
REM
REM
REM ./C.cell (28575a23ae977d3b5fae324c64b13b57)
REM
REM compiler GCC version 9.2.1 20190827 (Red Hat 9.2.1-1)
REM options -cpp -mtune=generic -march=x86-64 -g -O0 -fpre-include=/usr/include/finclude/math-vector-fortran.h
REM seed 884531213 1490163251 -1677512530 -1583537119 1012900002 974920690 -244474654 -1893225416 -1874619259 1553179794 400733964 796074427 600062616 -1383150814 -1547836392 1042771100 -653235429 -266550448 -124823073 653729465 -827318099 836851994 -1502069411 508838975 1705834995 1486145504 -1228485119 -1649418992 -1304202922 -1957242700 1685181630 1434152685 363224313
REM
CELL 1.54180   50.00000   50.00000   50.00000   90.00000   90.00000   90.00000
LATT -1
SFAC C  
C      1  0.5175510000000  0.5536460000000  0.4551410000000 1.0
C      1  0.4536340000000  0.5131790000000  0.5534550000000 1.0
C      1  0.5537740000000  0.4470700000000  0.5085800000000 1.0
C      1  0.4887580000000  0.5558240000000  0.5469230000000 1.0
C      1  0.5176160000000  0.4451410000000  0.5507860000000 1.0
C      1  0.4785140000000  0.4504010000000  0.4574300000000 1.0
C      1  0.5447650000000  0.5174880000000  0.4485460000000 1.0
C      1  0.4533370000000  0.4784780000000  0.4346140000000 1.0
C      1  0.5456240000000  0.4854650000000  0.5514210000000 1.0
C      1  0.4449150000000  0.4573830000000  0.4863730000000 1.0
C      1  0.5559560000000  0.5534420000000  0.4915550000000 1.0
C      1  0.4485670000000  0.5461800000000  0.5116820000000 1.0
C      1  0.5085440000000  0.4505440000000  0.4484020000000 1.0
C      1  0.4558690000000  0.4835270000000  0.5598770000000 1.0
C      1  0.5597040000000  0.5424860000000  0.5196590000000 1.0
C      1  0.4887230000000  0.4490400000000  0.5492860000000 1.0
C      1  0.5188610000000  0.5598240000000  0.5500780000000 1.0
C      1  0.4866650000000  0.5536220000000  0.4522920000000 1.0
C      1  0.5494460000000  0.4882420000000  0.4480940000000 1.0
C      1  0.4519890000000  0.5103010000000  0.4412530000000 1.0
C      1  0.5454390000000  0.5168500000000  0.5539540000000 1.0
C      1  0.4432890000000  0.5436980000000  0.4809360000000 1.0
C      1  0.5513800000000  0.4467580000000  0.4801020000000 1.0
C      1  0.4513020000000  0.4622480000000  0.5147210000000 1.0
C      1  0.4805480000000  0.4527970000000  0.5198860000000 1.0
C      1  0.5173500000000  0.4815740000000  0.4423850000000 1.0
C      1  0.4398000000000  0.5131490000000  0.4705140000000 1.0
C      1  0.5259650000000  0.4384510000000  0.4701740000000 1.0
C      1  0.4739580000000  0.5546050000000  0.4821120000000 1.0
C      1  0.5295530000000  0.5553500000000  0.5210810000000 1.0
C      1  0.4806140000000  0.4718060000000  0.5658670000000 1.0
C      1  0.5145080000000  0.5286850000000  0.5612380000000 1.0
C      1  0.4790160000000  0.5254680000000  0.4399420000000 1.0
C      1  0.5508410000000  0.5106590000000  0.5209010000000 1.0
C      1  0.4429370000000  0.4826380000000  0.5311280000000 1.0
C      1  0.5540560000000  0.4757940000000  0.4731290000000 1.0
C      1  0.4816340000000  0.5520110000000  0.5153520000000 1.0
C      1  0.5114880000000  0.5208630000000  0.4470690000000 1.0
C      1  0.4509650000000  0.4813060000000  0.4684350000000 1.0
C      1  0.5224070000000  0.5570950000000  0.4873650000000 1.0
C      1  0.4730130000000  0.4398030000000  0.4893110000000 1.0
C      1  0.5292070000000  0.4462490000000  0.5241540000000 1.0
C      1  0.4815300000000  0.5254700000000  0.5527590000000 1.0
C      1  0.5148180000000  0.4761280000000  0.5625480000000 1.0
C      1  0.4845740000000  0.4822700000000  0.4467920000000 1.0
C      1  0.5524290000000  0.4783750000000  0.5203350000000 1.0
C      1  0.4396350000000  0.5154820000000  0.5225530000000 1.0
C      1  0.5487270000000  0.5303320000000  0.4735970000000 1.0
C      1  0.4788120000000  0.5107470000000  0.5222270000000 1.0
C      1  0.5193350000000  0.4979740000000  0.4721110000000 1.0
C      1  0.4807120000000  0.5077940000000  0.4689480000000 1.0
C      1  0.4802140000000  0.4783420000000  0.4859490000000 1.0
C      1  0.5037590000000  0.4542370000000  0.4877620000000 1.0
C      1  0.5112060000000  0.5018480000000  0.5406020000000 1.0
C      1  0.5288310000000  0.4756830000000  0.4959840000000 1.0
C      1  0.4614650000000  0.5119130000000  0.4966920000000 1.0
C      1  0.5274370000000  0.5190010000000  0.4975780000000 1.0
C      1  0.5081400000000  0.4729280000000  0.5228490000000 1.0
C      1  0.5067680000000  0.5301190000000  0.5222070000000 1.0
C      1  0.4995250000000  0.5322170000000  0.4833040000000 1.0
END
