TITL C-1154808-8168-616 -0.0017517400236953 125000 -330.587532955321 0 0 60 (C1) n - 1
REM
REM in /home/nfs/bkarasulu/CARBON/AIRSS/Generating-Clusters/AIREBO/Higher-Symm/Only-C60
REM
REM
REM
REM
REM
REM ./C.cell (28575a23ae977d3b5fae324c64b13b57)
REM
REM compiler GCC version 9.2.1 20190827 (Red Hat 9.2.1-1)
REM options -cpp -mtune=generic -march=x86-64 -g -O0 -fpre-include=/usr/include/finclude/math-vector-fortran.h
REM seed 1890759166 1046011508 -110730610 1393758881 1026278526 -289143007 1191664127 -509997790 99324706 25467061 291813192 499692620 1899293924 -1211031935 1372204424 -1210228614 -1855605342 1082836609 1495301673 2054457872 -247796756 -823853883 1237520362 1005517665 -1640973593 1362744448 -260562950 1967827969 1894369029 2128704645 968484849 -1893691159 2033762323
REM
CELL 1.54180   50.00000   50.00000   50.00000   90.00000   90.00000   90.00000
LATT -1
SFAC C  
C      1  0.5567710000000  0.4749330000000  0.5083080000000 1.0
C      1  0.5214920000000  0.5237150000000  0.5533970000000 1.0
C      1  0.4618120000000  0.4786420000000  0.5428940000000 1.0
C      1  0.4441920000000  0.5237590000000  0.4866380000000 1.0
C      1  0.4797750000000  0.4749640000000  0.4465560000000 1.0
C      1  0.5330470000000  0.5248700000000  0.4555660000000 1.0
C      1  0.5278250000000  0.5376120000000  0.4929960000000 1.0
C      1  0.5208080000000  0.4635530000000  0.5215480000000 1.0
C      1  0.4911890000000  0.5347790000000  0.5298090000000 1.0
C      1  0.4715470000000  0.4639130000000  0.5071570000000 1.0
C      1  0.4800560000000  0.5402990000000  0.4810090000000 1.0
C      1  0.5078350000000  0.4619300000000  0.4717890000000 1.0
C      1  0.5297410000000  0.4618740000000  0.5616210000000 1.0
C      1  0.4600480000000  0.5329220000000  0.5573410000000 1.0
C      1  0.4322240000000  0.4668920000000  0.4890170000000 1.0
C      1  0.4757860000000  0.5319420000000  0.4303290000000 1.0
C      1  0.5409800000000  0.4628970000000  0.4483340000000 1.0
C      1  0.5644320000000  0.5362680000000  0.5090380000000 1.0
C      1  0.5572560000000  0.4671330000000  0.4692800000000 1.0
C      1  0.5552390000000  0.5326290000000  0.5341430000000 1.0
C      1  0.5040970000000  0.4660570000000  0.5671630000000 1.0
C      1  0.4428300000000  0.5308030000000  0.5371240000000 1.0
C      1  0.4448420000000  0.4699150000000  0.4652640000000 1.0
C      1  0.5030970000000  0.5303340000000  0.4297620000000 1.0
C      1  0.4760390000000  0.4506980000000  0.5569430000000 1.0
C      1  0.4380970000000  0.5492740000000  0.5090190000000 1.0
C      1  0.4626490000000  0.4459650000000  0.4525940000000 1.0
C      1  0.5190110000000  0.5538910000000  0.4445870000000 1.0
C      1  0.5589590000000  0.4445780000000  0.4925750000000 1.0
C      1  0.5353800000000  0.5545860000000  0.5475460000000 1.0
C      1  0.4203500000000  0.5696370000000  0.5064070000000 1.0
C      1  0.4563530000000  0.4240010000000  0.4383580000000 1.0
C      1  0.5271840000000  0.5768540000000  0.4325800000000 1.0
C      1  0.5737820000000  0.4222920000000  0.4954430000000 1.0
C      1  0.5398300000000  0.5769670000000  0.5618130000000 1.0
C      1  0.4635910000000  0.4304660000000  0.5700430000000 1.0
C      1  0.5458830000000  0.4782590000000  0.5393320000000 1.0
C      1  0.4890990000000  0.5188930000000  0.5599120000000 1.0
C      1  0.4429090000000  0.4801360000000  0.5160130000000 1.0
C      1  0.4618530000000  0.5267410000000  0.4576870000000 1.0
C      1  0.5130400000000  0.4772030000000  0.4417710000000 1.0
C      1  0.5557180000000  0.5224650000000  0.4807920000000 1.0
C      1  0.4741780000000  0.5083080000000  0.4909270000000 1.0
C      1  0.4929340000000  0.4924860000000  0.4725570000000 1.0
C      1  0.5192490000000  0.5066340000000  0.4807270000000 1.0
C      1  0.5282190000000  0.4933500000000  0.5069400000000 1.0
C      1  0.5084480000000  0.5055500000000  0.5277790000000 1.0
C      1  0.4799010000000  0.4946830000000  0.5189780000000 1.0
C      1  0.5072650000000  0.5491920000000  0.4736280000000 1.0
C      1  0.5274990000000  0.4537620000000  0.4923500000000 1.0
C      1  0.5198260000000  0.5449700000000  0.5204340000000 1.0
C      1  0.4928620000000  0.4578180000000  0.5296710000000 1.0
C      1  0.4699850000000  0.5428430000000  0.5103960000000 1.0
C      1  0.4785150000000  0.4543670000000  0.4802140000000 1.0
C      1  0.5498470000000  0.5062960000000  0.5480000000000 1.0
C      1  0.4857330000000  0.4890300000000  0.5614650000000 1.0
C      1  0.4387040000000  0.5101300000000  0.5154480000000 1.0
C      1  0.4561870000000  0.4962160000000  0.4573600000000 1.0
C      1  0.5191220000000  0.5049510000000  0.4323690000000 1.0
C      1  0.5648800000000  0.4938730000000  0.4812590000000 1.0
END
