TITL C-1154816-9297-498 0.000762246115141456 125000 -325.269097914608 0 0 60 (C4) n - 1
REM
REM in /home/nfs/bkarasulu/CARBON/AIRSS/Generating-Clusters/AIREBO/Higher-Symm/Only-C60
REM
REM
REM
REM
REM
REM ./C.cell (28575a23ae977d3b5fae324c64b13b57)
REM
REM compiler GCC version 9.2.1 20190827 (Red Hat 9.2.1-1)
REM options -cpp -mtune=generic -march=x86-64 -g -O0 -fpre-include=/usr/include/finclude/math-vector-fortran.h
REM seed -1087160817 1377192374 1113229835 1722387044 -112580595 -1164330936 1531562278 -1212115477 1522665388 205579185 1339586565 -1847282989 -1428060180 1678167128 -2057815640 -290502378 2123386769 -864001708 1695390756 401444267 -1444407347 423195551 1832132399 796872775 1165682256 -2013324382 153624022 1321010114 2040091946 -1058704714 485284161 678755410 -1037274234
REM
CELL 1.54180   50.00000   50.00000   50.00000   90.00000   90.00000   90.00000
LATT -1
SFAC C  
C      1  0.4874220000000  0.5860400000000  0.5152470000000 1.0
C      1  0.4475910000000  0.5593890000000  0.5121840000000 1.0
C      1  0.4326980000000  0.5223730000000  0.5108210000000 1.0
C      1  0.4141380000000  0.4874830000000  0.5157440000000 1.0
C      1  0.4409490000000  0.4481020000000  0.5122150000000 1.0
C      1  0.4778970000000  0.4330360000000  0.5105660000000 1.0
C      1  0.5125560000000  0.4139870000000  0.5151260000000 1.0
C      1  0.5520930000000  0.4406980000000  0.5120910000000 1.0
C      1  0.5672090000000  0.4776290000000  0.5107710000000 1.0
C      1  0.5858160000000  0.5124930000000  0.5156950000000 1.0
C      1  0.5588470000000  0.5519150000000  0.5120850000000 1.0
C      1  0.5217450000000  0.5665970000000  0.5100040000000 1.0
C      1  0.4854520000000  0.4489230000000  0.4466590000000 1.0
C      1  0.5124640000000  0.4476190000000  0.4578250000000 1.0
C      1  0.5382740000000  0.4605290000000  0.4524700000000 1.0
C      1  0.5523360000000  0.4852090000000  0.4466430000000 1.0
C      1  0.5537950000000  0.5123330000000  0.4576240000000 1.0
C      1  0.5405820000000  0.5379400000000  0.4519380000000 1.0
C      1  0.5148030000000  0.5511120000000  0.4472970000000 1.0
C      1  0.4874600000000  0.5522510000000  0.4579650000000 1.0
C      1  0.4615480000000  0.5396950000000  0.4525140000000 1.0
C      1  0.4477770000000  0.5148210000000  0.4467720000000 1.0
C      1  0.4467940000000  0.4877460000000  0.4578900000000 1.0
C      1  0.4603540000000  0.4622650000000  0.4524950000000 1.0
C      1  0.6066720000000  0.5299950000000  0.5216150000000 1.0
C      1  0.5786780000000  0.5701090000000  0.5169380000000 1.0
C      1  0.5194300000000  0.5950890000000  0.5158190000000 1.0
C      1  0.4703070000000  0.6071850000000  0.5210070000000 1.0
C      1  0.4297170000000  0.5795960000000  0.5165090000000 1.0
C      1  0.4043220000000  0.5191630000000  0.5165120000000 1.0
C      1  0.3932120000000  0.4700120000000  0.5215500000000 1.0
C      1  0.4208740000000  0.4300560000000  0.5165840000000 1.0
C      1  0.4807350000000  0.4045650000000  0.5160400000000 1.0
C      1  0.5298630000000  0.3928530000000  0.5205440000000 1.0
C      1  0.5699960000000  0.4204820000000  0.5163560000000 1.0
C      1  0.5955640000000  0.4808070000000  0.5166230000000 1.0
C      1  0.4533700000000  0.5174410000000  0.5325770000000 1.0
C      1  0.4428480000000  0.4894750000000  0.5329650000000 1.0
C      1  0.4555590000000  0.4644030000000  0.5316320000000 1.0
C      1  0.4826940000000  0.4535300000000  0.5324720000000 1.0
C      1  0.5106000000000  0.4426800000000  0.5325750000000 1.0
C      1  0.5357490000000  0.4552410000000  0.5314970000000 1.0
C      1  0.5464090000000  0.4824590000000  0.5324380000000 1.0
C      1  0.5569840000000  0.5104310000000  0.5326560000000 1.0
C      1  0.5441380000000  0.5353760000000  0.5311510000000 1.0
C      1  0.5170400000000  0.5461990000000  0.5320150000000 1.0
C      1  0.4892170000000  0.5570710000000  0.5322370000000 1.0
C      1  0.4639860000000  0.5447250000000  0.5314610000000 1.0
C      1  0.5664180000000  0.5124300000000  0.4889740000000 1.0
C      1  0.5504870000000  0.5420610000000  0.4839500000000 1.0
C      1  0.5200250000000  0.5568000000000  0.4804110000000 1.0
C      1  0.4876170000000  0.5657580000000  0.4889340000000 1.0
C      1  0.4577310000000  0.5501190000000  0.4843800000000 1.0
C      1  0.4432060000000  0.5195020000000  0.4816000000000 1.0
C      1  0.4338560000000  0.4876450000000  0.4891460000000 1.0
C      1  0.4499940000000  0.4580890000000  0.4842850000000 1.0
C      1  0.4806070000000  0.4435920000000  0.4813440000000 1.0
C      1  0.5124600000000  0.4341820000000  0.4888480000000 1.0
C      1  0.5421940000000  0.4500670000000  0.4842240000000 1.0
C      1  0.5568420000000  0.4806290000000  0.4814880000000 1.0
END
