TITL C-1154804-8633-642 0.00131705166524226 125000 -359.324214460543 0 0 60 (C1) n - 1
REM
REM in /home/nfs/bkarasulu/CARBON/AIRSS/Generating-Clusters/AIREBO/Higher-Symm/Only-C60
REM
REM
REM
REM
REM
REM ./C.cell (28575a23ae977d3b5fae324c64b13b57)
REM
REM compiler GCC version 9.2.1 20190827 (Red Hat 9.2.1-1)
REM options -cpp -mtune=generic -march=x86-64 -g -O0 -fpre-include=/usr/include/finclude/math-vector-fortran.h
REM seed -472221429 -572042967 -334394080 1639665141 -2107171334 -263941146 -1245691157 -221942275 291614686 -1605349716 1790007973 -1307754762 183509558 1493916208 1501416424 1742402070 689073809 -1536925203 1461291315 -707374856 -1264347681 289304080 -2044758241 11822864 -93860790 223780589 -1878158249 -1634446752 437323752 17472603 -488649039 1710324736 -723649069
REM
CELL 1.54180   50.00000   50.00000   50.00000   90.00000   90.00000   90.00000
LATT -1
SFAC C  
C      1  0.5159580000000  0.4438520000000  0.5386390000000 1.0
C      1  0.4439350000000  0.5477010000000  0.5151860000000 1.0
C      1  0.5473600000000  0.5143710000000  0.4439110000000 1.0
C      1  0.4858490000000  0.5595430000000  0.5388580000000 1.0
C      1  0.5142120000000  0.5517400000000  0.4590010000000 1.0
C      1  0.4861860000000  0.4473700000000  0.4610930000000 1.0
C      1  0.5598650000000  0.4642580000000  0.5180820000000 1.0
C      1  0.4397170000000  0.4596760000000  0.4862530000000 1.0
C      1  0.5626450000000  0.5395820000000  0.4847690000000 1.0
C      1  0.4490230000000  0.4846180000000  0.4446270000000 1.0
C      1  0.5431030000000  0.4827830000000  0.5603390000000 1.0
C      1  0.4592560000000  0.5149520000000  0.5550280000000 1.0
C      1  0.5149100000000  0.4480990000000  0.4614270000000 1.0
C      1  0.4387620000000  0.5410500000000  0.4857650000000 1.0
C      1  0.5381960000000  0.5074100000000  0.5743310000000 1.0
C      1  0.4856380000000  0.5539760000000  0.4570670000000 1.0
C      1  0.5151610000000  0.5528190000000  0.5403190000000 1.0
C      1  0.4865820000000  0.4399840000000  0.5370750000000 1.0
C      1  0.5589420000000  0.4585720000000  0.4877750000000 1.0
C      1  0.4429290000000  0.4520060000000  0.5156290000000 1.0
C      1  0.5573030000000  0.5399890000000  0.5141060000000 1.0
C      1  0.4610910000000  0.4861770000000  0.5544960000000 1.0
C      1  0.5484170000000  0.4845740000000  0.4462780000000 1.0
C      1  0.4498950000000  0.5153680000000  0.4403720000000 1.0
C      1  0.4733230000000  0.4705150000000  0.4445020000000 1.0
C      1  0.4724000000000  0.4506560000000  0.4888410000000 1.0
C      1  0.4316230000000  0.4793680000000  0.4691640000000 1.0
C      1  0.5241530000000  0.5283570000000  0.4436590000000 1.0
C      1  0.4854940000000  0.5309450000000  0.5554820000000 1.0
C      1  0.5210780000000  0.4658550000000  0.5580720000000 1.0
C      1  0.5325500000000  0.5560330000000  0.4857090000000 1.0
C      1  0.4695190000000  0.5634940000000  0.5173920000000 1.0
C      1  0.5303400000000  0.4484560000000  0.5134330000000 1.0
C      1  0.5598450000000  0.5107710000000  0.4740330000000 1.0
C      1  0.4422240000000  0.5259080000000  0.5328180000000 1.0
C      1  0.5595020000000  0.4855720000000  0.5366410000000 1.0
C      1  0.4892670000000  0.4720000000000  0.5477350000000 1.0
C      1  0.4682400000000  0.4352360000000  0.5175420000000 1.0
C      1  0.4423300000000  0.4739620000000  0.5329880000000 1.0
C      1  0.5188270000000  0.5260670000000  0.5600790000000 1.0
C      1  0.4730470000000  0.5304330000000  0.4397190000000 1.0
C      1  0.5238400000000  0.4720610000000  0.4468130000000 1.0
C      1  0.5324580000000  0.5559930000000  0.5197190000000 1.0
C      1  0.4708420000000  0.5524050000000  0.4861180000000 1.0
C      1  0.5342850000000  0.4400620000000  0.4807130000000 1.0
C      1  0.5579280000000  0.5117860000000  0.5261280000000 1.0
C      1  0.4384780000000  0.5126900000000  0.4708250000000 1.0
C      1  0.5670250000000  0.4778450000000  0.4691940000000 1.0
C      1  0.5012990000000  0.5084330000000  0.5368530000000 1.0
C      1  0.5222800000000  0.4747050000000  0.4963860000000 1.0
C      1  0.4890990000000  0.5248450000000  0.4840220000000 1.0
C      1  0.4827290000000  0.4901410000000  0.5197100000000 1.0
C      1  0.4976190000000  0.4855830000000  0.4595430000000 1.0
C      1  0.4972360000000  0.5158260000000  0.4546580000000 1.0
C      1  0.5170100000000  0.5286570000000  0.4939750000000 1.0
C      1  0.5259430000000  0.5166220000000  0.5218120000000 1.0
C      1  0.4916970000000  0.4769680000000  0.4919460000000 1.0
C      1  0.4524630000000  0.5006140000000  0.5183740000000 1.0
C      1  0.5363270000000  0.5011700000000  0.4939690000000 1.0
C      1  0.4627440000000  0.5095000000000  0.4910110000000 1.0
END
