TITL C-1154810-7815-349 0.00159728398151607 125000 -326.855115413337 0 0 60 (C1) n - 1
REM
REM in /home/nfs/bkarasulu/CARBON/AIRSS/Generating-Clusters/AIREBO/Higher-Symm/Only-C60
REM
REM
REM
REM
REM
REM ./C.cell (28575a23ae977d3b5fae324c64b13b57)
REM
REM compiler GCC version 9.2.1 20190827 (Red Hat 9.2.1-1)
REM options -cpp -mtune=generic -march=x86-64 -g -O0 -fpre-include=/usr/include/finclude/math-vector-fortran.h
REM seed 151713732 1766218564 -1566289715 -1661727242 414002005 -1928404155 330655975 -1881477412 714604179 -399095349 1206188097 411524858 -1184411180 1725456812 -894837017 -309848843 -1082370971 -894986042 -940988081 191852851 -1970475234 -2064609610 2129250076 1156134048 351866286 1608629684 -428270955 -1436732940 1295380987 -407469988 318202569 -1748670596 -1018767469
REM
CELL 1.54180   50.00000   50.00000   50.00000   90.00000   90.00000   90.00000
LATT -1
SFAC C  
C      1  0.4786420000000  0.5195770000000  0.5633090000000 1.0
C      1  0.4886360000000  0.4675600000000  0.4530660000000 1.0
C      1  0.4798130000000  0.5286400000000  0.4231940000000 1.0
C      1  0.4860060000000  0.4566940000000  0.5601170000000 1.0
C      1  0.4654460000000  0.5305030000000  0.4717110000000 1.0
C      1  0.4651460000000  0.4709350000000  0.5163000000000 1.0
C      1  0.4587280000000  0.5351160000000  0.5243900000000 1.0
C      1  0.4579380000000  0.4794850000000  0.4877870000000 1.0
C      1  0.4616940000000  0.4745770000000  0.4564400000000 1.0
C      1  0.4805390000000  0.5421690000000  0.5471040000000 1.0
C      1  0.4621410000000  0.4590310000000  0.5465540000000 1.0
C      1  0.4596710000000  0.5329130000000  0.4400600000000 1.0
C      1  0.5024190000000  0.5557020000000  0.5311140000000 1.0
C      1  0.4960780000000  0.4444870000000  0.4673480000000 1.0
C      1  0.5026180000000  0.5662050000000  0.4687650000000 1.0
C      1  0.5019410000000  0.4351500000000  0.5304630000000 1.0
C      1  0.5405770000000  0.4915730000000  0.4556670000000 1.0
C      1  0.5494040000000  0.5089250000000  0.5498200000000 1.0
C      1  0.5400810000000  0.4827690000000  0.5475710000000 1.0
C      1  0.5540830000000  0.5160220000000  0.4494220000000 1.0
C      1  0.5565440000000  0.4646610000000  0.5275750000000 1.0
C      1  0.5554300000000  0.5361220000000  0.4768150000000 1.0
C      1  0.5548490000000  0.4813870000000  0.4845140000000 1.0
C      1  0.5537110000000  0.5299190000000  0.5245540000000 1.0
C      1  0.4279110000000  0.5113550000000  0.5332990000000 1.0
C      1  0.4179250000000  0.4929530000000  0.4666130000000 1.0
C      1  0.4333200000000  0.5190510000000  0.4510020000000 1.0
C      1  0.4364740000000  0.4796110000000  0.5426250000000 1.0
C      1  0.5805880000000  0.4856350000000  0.5157760000000 1.0
C      1  0.5865090000000  0.5241710000000  0.4837500000000 1.0
C      1  0.5869480000000  0.4925570000000  0.4834850000000 1.0
C      1  0.5834860000000  0.5166110000000  0.5149210000000 1.0
C      1  0.4794830000000  0.4421000000000  0.5136220000000 1.0
C      1  0.4791760000000  0.5565370000000  0.4826330000000 1.0
C      1  0.4786690000000  0.4325510000000  0.4866210000000 1.0
C      1  0.4782190000000  0.5576750000000  0.5106000000000 1.0
C      1  0.5284090000000  0.4659730000000  0.4929110000000 1.0
C      1  0.5103740000000  0.5215540000000  0.5018930000000 1.0
C      1  0.5124780000000  0.4785950000000  0.5189630000000 1.0
C      1  0.5172420000000  0.5226580000000  0.4755740000000 1.0
C      1  0.4312290000000  0.5317590000000  0.5111540000000 1.0
C      1  0.4271540000000  0.4824930000000  0.4907190000000 1.0
C      1  0.4340540000000  0.5261960000000  0.4840950000000 1.0
C      1  0.4185020000000  0.4767280000000  0.5156840000000 1.0
C      1  0.5221780000000  0.4454260000000  0.4768240000000 1.0
C      1  0.5218600000000  0.5383820000000  0.5210860000000 1.0
C      1  0.5258670000000  0.4498100000000  0.5289560000000 1.0
C      1  0.5257010000000  0.5496580000000  0.4673340000000 1.0
C      1  0.4507350000000  0.5062480000000  0.5579810000000 1.0
C      1  0.4393320000000  0.4865190000000  0.4442240000000 1.0
C      1  0.5681500000000  0.4530440000000  0.4977980000000 1.0
C      1  0.5608950000000  0.5562350000000  0.5036870000000 1.0
C      1  0.5068430000000  0.4959930000000  0.4572110000000 1.0
C      1  0.5093240000000  0.4772580000000  0.5527970000000 1.0
C      1  0.4994130000000  0.5101740000000  0.4280980000000 1.0
C      1  0.4990430000000  0.5028560000000  0.5685640000000 1.0
C      1  0.4677890000000  0.5026060000000  0.5287840000000 1.0
C      1  0.4805720000000  0.5027970000000  0.4777290000000 1.0
C      1  0.5482200000000  0.5100960000000  0.4974780000000 1.0
C      1  0.4925880000000  0.4988370000000  0.5092270000000 1.0
END
