TITL C-1154802-8274-178 -4.38181136806306e-06 125000 -329.478762882508 0 0 60 (C1) n - 1
REM
REM in /home/nfs/bkarasulu/CARBON/AIRSS/Generating-Clusters/AIREBO/Higher-Symm/Only-C60
REM
REM
REM
REM
REM
REM ./C.cell (28575a23ae977d3b5fae324c64b13b57)
REM
REM compiler GCC version 9.2.1 20190827 (Red Hat 9.2.1-1)
REM options -cpp -mtune=generic -march=x86-64 -g -O0 -fpre-include=/usr/include/finclude/math-vector-fortran.h
REM seed -1593446911 1902244336 -1293957022 33490441 -19271934 359201179 -1465359651 -627140085 762190591 363876141 -164428801 554331896 -2025692244 -1682568628 1996015729 -316897935 611534997 148032103 1348615350 -222859982 790860772 -860925327 -1317708207 -1890392153 924395 1087978020 699429075 1339678360 14250805 2083626070 -2117230419 -1388308810 897783771
REM
CELL 1.54180   50.00000   50.00000   50.00000   90.00000   90.00000   90.00000
LATT -1
SFAC C  
C      1  0.5163370000000  0.4509230000000  0.5413050000000 1.0
C      1  0.4776870000000  0.4545830000000  0.4551140000000 1.0
C      1  0.4859930000000  0.4634930000000  0.5422930000000 1.0
C      1  0.5209300000000  0.4591660000000  0.4607160000000 1.0
C      1  0.5485330000000  0.4576460000000  0.5447200000000 1.0
C      1  0.4491770000000  0.4572330000000  0.4541910000000 1.0
C      1  0.4531910000000  0.4617040000000  0.5510500000000 1.0
C      1  0.5514630000000  0.4601240000000  0.4457830000000 1.0
C      1  0.4620330000000  0.4828790000000  0.4935000000000 1.0
C      1  0.5361440000000  0.4676170000000  0.5080210000000 1.0
C      1  0.5283660000000  0.4874710000000  0.4815270000000 1.0
C      1  0.4670860000000  0.4601120000000  0.5140310000000 1.0
C      1  0.4399850000000  0.4757110000000  0.4714590000000 1.0
C      1  0.5638810000000  0.4693030000000  0.5227750000000 1.0
C      1  0.5563210000000  0.4746890000000  0.4708930000000 1.0
C      1  0.4379940000000  0.4721220000000  0.5269270000000 1.0
C      1  0.5795890000000  0.4897800000000  0.4817080000000 1.0
C      1  0.4320120000000  0.5017440000000  0.5202490000000 1.0
C      1  0.4271110000000  0.5011460000000  0.4872330000000 1.0
C      1  0.5822900000000  0.4923900000000  0.5122900000000 1.0
C      1  0.5595660000000  0.5080720000000  0.5312260000000 1.0
C      1  0.4541840000000  0.5129090000000  0.4739490000000 1.0
C      1  0.4474790000000  0.5131710000000  0.5437780000000 1.0
C      1  0.5651980000000  0.5135470000000  0.4689540000000 1.0
C      1  0.4879480000000  0.4912740000000  0.5606060000000 1.0
C      1  0.5227780000000  0.4877860000000  0.4424520000000 1.0
C      1  0.5185590000000  0.4808600000000  0.5573110000000 1.0
C      1  0.4905540000000  0.4831950000000  0.4523410000000 1.0
C      1  0.5501260000000  0.5074640000000  0.4471460000000 1.0
C      1  0.4584470000000  0.5016350000000  0.5690850000000 1.0
C      1  0.4660890000000  0.5042450000000  0.4492710000000 1.0
C      1  0.5445050000000  0.4998130000000  0.5516920000000 1.0
C      1  0.5140650000000  0.4244840000000  0.5254610000000 1.0
C      1  0.4880980000000  0.4369390000000  0.4750780000000 1.0
C      1  0.4879870000000  0.4159530000000  0.5181710000000 1.0
C      1  0.5176550000000  0.4347670000000  0.4772380000000 1.0
C      1  0.5150880000000  0.5539320000000  0.5480250000000 1.0
C      1  0.4818310000000  0.5509840000000  0.4536010000000 1.0
C      1  0.4705750000000  0.5650980000000  0.5341560000000 1.0
C      1  0.5289250000000  0.5588010000000  0.4539700000000 1.0
C      1  0.4594860000000  0.5647140000000  0.4722380000000 1.0
C      1  0.5326150000000  0.5533140000000  0.5282830000000 1.0
C      1  0.5393930000000  0.5606290000000  0.4784060000000 1.0
C      1  0.4600300000000  0.5630980000000  0.5063290000000 1.0
C      1  0.4809330000000  0.5181830000000  0.5408190000000 1.0
C      1  0.5144570000000  0.5129490000000  0.4637560000000 1.0
C      1  0.5180550000000  0.4869050000000  0.5247140000000 1.0
C      1  0.4902770000000  0.4985040000000  0.4828100000000 1.0
C      1  0.5673550000000  0.5229200000000  0.5016460000000 1.0
C      1  0.4203850000000  0.5288320000000  0.5027510000000 1.0
C      1  0.4315080000000  0.5524560000000  0.4927440000000 1.0
C      1  0.5575420000000  0.5527640000000  0.5051310000000 1.0
C      1  0.4674890000000  0.5358450000000  0.4876090000000 1.0
C      1  0.5239350000000  0.5408380000000  0.4997810000000 1.0
C      1  0.5071670000000  0.5408560000000  0.4530670000000 1.0
C      1  0.4879750000000  0.5471550000000  0.5450010000000 1.0
C      1  0.5274580000000  0.4385650000000  0.5031250000000 1.0
C      1  0.4751110000000  0.4342210000000  0.5004010000000 1.0
C      1  0.4972110000000  0.5297820000000  0.4956220000000 1.0
C      1  0.4954840000000  0.5033550000000  0.5160690000000 1.0
END
