TITL C-1154825-9328-310 -0.00279380016468279 125000 -348.860481529051 0 0 60 (C1) n - 1
REM
REM in /home/nfs/bkarasulu/CARBON/AIRSS/Generating-Clusters/AIREBO/Higher-Symm/Only-C60
REM
REM
REM
REM
REM
REM ./C.cell (28575a23ae977d3b5fae324c64b13b57)
REM
REM compiler GCC version 9.2.1 20190827 (Red Hat 9.2.1-1)
REM options -cpp -mtune=generic -march=x86-64 -g -O0 -fpre-include=/usr/include/finclude/math-vector-fortran.h
REM seed 263726921 -751809330 1619726955 -886555850 1375950691 -1938008752 -761869155 -297371103 -491592308 -590112202 250706386 31700428 -404099123 -2020480538 -493014243 -105729952 -863766760 -114093917 1474280961 -592297062 658605564 -2054863468 -117683948 728769072 1467027399 672112221 2019403321 -1428228443 236307702 636259891 313717087 242096588 1758766033
REM
CELL 1.54180   50.00000   50.00000   50.00000   90.00000   90.00000   90.00000
LATT -1
SFAC C  
C      1  0.5162730000000  0.5556660000000  0.4557610000000 1.0
C      1  0.5351740000000  0.4559120000000  0.4569850000000 1.0
C      1  0.4496520000000  0.4939510000000  0.4571090000000 1.0
C      1  0.5569140000000  0.4478450000000  0.4739710000000 1.0
C      1  0.4318730000000  0.4783830000000  0.4735780000000 1.0
C      1  0.5116560000000  0.5747220000000  0.4752870000000 1.0
C      1  0.5316780000000  0.5354110000000  0.5007300000000 1.0
C      1  0.5145480000000  0.4518000000000  0.5001970000000 1.0
C      1  0.4478370000000  0.5149110000000  0.5005170000000 1.0
C      1  0.4997610000000  0.5357680000000  0.4384460000000 1.0
C      1  0.5334760000000  0.4823440000000  0.4453920000000 1.0
C      1  0.4697620000000  0.4783980000000  0.4431160000000 1.0
C      1  0.4750110000000  0.5865730000000  0.5159790000000 1.0
C      1  0.5833870000000  0.4826690000000  0.5109260000000 1.0
C      1  0.4439720000000  0.4432160000000  0.5068210000000 1.0
C      1  0.4453770000000  0.4537450000000  0.4791580000000 1.0
C      1  0.4861070000000  0.5718880000000  0.4895950000000 1.0
C      1  0.5719940000000  0.4700610000000  0.4847220000000 1.0
C      1  0.4394110000000  0.5409360000000  0.5178580000000 1.0
C      1  0.5624490000000  0.5341750000000  0.5151410000000 1.0
C      1  0.4968010000000  0.4296840000000  0.5163710000000 1.0
C      1  0.4291960000000  0.4887010000000  0.5042950000000 1.0
C      1  0.5229240000000  0.5661490000000  0.5038120000000 1.0
C      1  0.5475560000000  0.4463810000000  0.5056920000000 1.0
C      1  0.4575680000000  0.5617300000000  0.5145200000000 1.0
C      1  0.5746040000000  0.5113600000000  0.5067540000000 1.0
C      1  0.4699220000000  0.4309820000000  0.5104640000000 1.0
C      1  0.4787110000000  0.5399160000000  0.4965750000000 1.0
C      1  0.5514540000000  0.4946470000000  0.4902230000000 1.0
C      1  0.4763200000000  0.4607710000000  0.4914030000000 1.0
C      1  0.5502350000000  0.4747540000000  0.5477140000000 1.0
C      1  0.4512800000000  0.4692080000000  0.5474410000000 1.0
C      1  0.4976980000000  0.5560670000000  0.5525450000000 1.0
C      1  0.5103500000000  0.4504510000000  0.4694810000000 1.0
C      1  0.4590570000000  0.5161450000000  0.4712950000000 1.0
C      1  0.5224580000000  0.5268040000000  0.4701020000000 1.0
C      1  0.4730720000000  0.5120680000000  0.5421140000000 1.0
C      1  0.5238330000000  0.5170510000000  0.5400460000000 1.0
C      1  0.5015500000000  0.4718650000000  0.5403290000000 1.0
C      1  0.5333900000000  0.5664370000000  0.5361990000000 1.0
C      1  0.5373620000000  0.4381500000000  0.5362770000000 1.0
C      1  0.4241640000000  0.5007970000000  0.5345810000000 1.0
C      1  0.4974480000000  0.5287450000000  0.5499890000000 1.0
C      1  0.5265190000000  0.4875850000000  0.5493190000000 1.0
C      1  0.4746190000000  0.4826390000000  0.5508670000000 1.0
C      1  0.4841580000000  0.4603430000000  0.4595060000000 1.0
C      1  0.4884920000000  0.5279860000000  0.4679300000000 1.0
C      1  0.5391960000000  0.5029110000000  0.4634250000000 1.0
C      1  0.5642050000000  0.4655310000000  0.5252850000000 1.0
C      1  0.4369040000000  0.4644590000000  0.5238850000000 1.0
C      1  0.5018290000000  0.5752260000000  0.5271070000000 1.0
C      1  0.4426110000000  0.5209290000000  0.5396740000000 1.0
C      1  0.5445850000000  0.5398190000000  0.5382830000000 1.0
C      1  0.5103600000000  0.4424630000000  0.5388480000000 1.0
C      1  0.5006400000000  0.5149190000000  0.4208500000000 1.0
C      1  0.5098460000000  0.4858350000000  0.4318410000000 1.0
C      1  0.4812930000000  0.4893320000000  0.4168720000000 1.0
C      1  0.4984750000000  0.4808360000000  0.5076710000000 1.0
C      1  0.4788480000000  0.5087310000000  0.5103630000000 1.0
C      1  0.5241570000000  0.5032180000000  0.5087650000000 1.0
END
