TITL C-1154828-9214-631 0.00376806870690396 125000 -335.756258754359 0 0 60 (C1) n - 1
REM
REM in /home/nfs/bkarasulu/CARBON/AIRSS/Generating-Clusters/AIREBO/Higher-Symm/Only-C60
REM
REM
REM
REM
REM
REM ./C.cell (28575a23ae977d3b5fae324c64b13b57)
REM
REM compiler GCC version 9.2.1 20190827 (Red Hat 9.2.1-1)
REM options -cpp -mtune=generic -march=x86-64 -g -O0 -fpre-include=/usr/include/finclude/math-vector-fortran.h
REM seed -1582914151 1234287644 1337365968 -1911831228 1536314437 -663805969 118228202 -1926342965 -1484697136 1984580237 -1844682731 -457184190 -1611840094 1303099842 1702917630 643949199 -376106643 1944025617 1164570090 -636604223 74160810 -1213101072 -519174550 1940369599 1271200750 -367065162 -114515252 -499978407 375620874 -955292919 294271620 1455245890 -361131048
REM
CELL 1.54180   50.00000   50.00000   50.00000   90.00000   90.00000   90.00000
LATT -1
SFAC C  
C      1  0.4231730000000  0.5148930000000  0.4946010000000 1.0
C      1  0.5265010000000  0.5245160000000  0.5733610000000 1.0
C      1  0.5451290000000  0.5225170000000  0.4352780000000 1.0
C      1  0.4639780000000  0.5485340000000  0.4427380000000 1.0
C      1  0.4763810000000  0.5515310000000  0.5623910000000 1.0
C      1  0.5658370000000  0.5381380000000  0.5040900000000 1.0
C      1  0.4815000000000  0.4574520000000  0.5568040000000 1.0
C      1  0.5588280000000  0.4578020000000  0.4829700000000 1.0
C      1  0.4538840000000  0.4545830000000  0.4580990000000 1.0
C      1  0.5091700000000  0.4433610000000  0.5502010000000 1.0
C      1  0.5441470000000  0.4390690000000  0.4636370000000 1.0
C      1  0.4534130000000  0.4392060000000  0.4884920000000 1.0
C      1  0.4612880000000  0.4511090000000  0.5375240000000 1.0
C      1  0.5497820000000  0.4552530000000  0.5099450000000 1.0
C      1  0.4870600000000  0.4473790000000  0.4560960000000 1.0
C      1  0.5179730000000  0.4973550000000  0.4499950000000 1.0
C      1  0.4575830000000  0.5102690000000  0.5135090000000 1.0
C      1  0.5278500000000  0.4965320000000  0.5337200000000 1.0
C      1  0.5254030000000  0.5415040000000  0.4823030000000 1.0
C      1  0.4713890000000  0.5491900000000  0.4876180000000 1.0
C      1  0.5007080000000  0.5443530000000  0.5315460000000 1.0
C      1  0.4475260000000  0.4333710000000  0.5156110000000 1.0
C      1  0.5383380000000  0.4439100000000  0.5370080000000 1.0
C      1  0.5165020000000  0.4334560000000  0.4462960000000 1.0
C      1  0.5086530000000  0.4667720000000  0.4383840000000 1.0
C      1  0.4599680000000  0.4710700000000  0.5114570000000 1.0
C      1  0.5258720000000  0.4742640000000  0.5142060000000 1.0
C      1  0.5217080000000  0.4626430000000  0.4689820000000 1.0
C      1  0.4797740000000  0.4599180000000  0.4856740000000 1.0
C      1  0.5029970000000  0.4566600000000  0.5235110000000 1.0
C      1  0.4750910000000  0.5600850000000  0.5332830000000 1.0
C      1  0.5399700000000  0.5511720000000  0.5056130000000 1.0
C      1  0.4838290000000  0.5589470000000  0.4628000000000 1.0
C      1  0.4836780000000  0.5217320000000  0.5617220000000 1.0
C      1  0.5604240000000  0.5068040000000  0.4950830000000 1.0
C      1  0.4611850000000  0.5190420000000  0.4524560000000 1.0
C      1  0.4979730000000  0.5127340000000  0.5324860000000 1.0
C      1  0.5308730000000  0.5110220000000  0.4787800000000 1.0
C      1  0.4707830000000  0.5180090000000  0.4834310000000 1.0
C      1  0.4330850000000  0.5371430000000  0.5165450000000 1.0
C      1  0.5422100000000  0.5405550000000  0.5541300000000 1.0
C      1  0.5189960000000  0.5353910000000  0.4359880000000 1.0
C      1  0.5275390000000  0.5520950000000  0.5316770000000 1.0
C      1  0.5114920000000  0.5508060000000  0.4594140000000 1.0
C      1  0.4579730000000  0.5555310000000  0.5114600000000 1.0
C      1  0.5165820000000  0.4843350000000  0.4876750000000 1.0
C      1  0.4856280000000  0.4919520000000  0.4890430000000 1.0
C      1  0.4882290000000  0.4858680000000  0.5205050000000 1.0
C      1  0.5624760000000  0.4848130000000  0.4730090000000 1.0
C      1  0.4557610000000  0.4866280000000  0.4611920000000 1.0
C      1  0.4846720000000  0.4877900000000  0.5636210000000 1.0
C      1  0.4610500000000  0.5047250000000  0.5455510000000 1.0
C      1  0.5558740000000  0.5066970000000  0.5265940000000 1.0
C      1  0.4842790000000  0.4974550000000  0.4454010000000 1.0
C      1  0.4348180000000  0.5209490000000  0.5441710000000 1.0
C      1  0.5644450000000  0.5257330000000  0.5440330000000 1.0
C      1  0.4975970000000  0.5201690000000  0.4245450000000 1.0
C      1  0.4426960000000  0.4905370000000  0.4901600000000 1.0
C      1  0.5166710000000  0.4995010000000  0.5646990000000 1.0
C      1  0.5518080000000  0.4951690000000  0.4488850000000 1.0
END
