TITL C-1154828-9214-34 0.00113491598513832 125000 -348.507838401838 0 0 60 (C1) n - 1
REM
REM in /home/nfs/bkarasulu/CARBON/AIRSS/Generating-Clusters/AIREBO/Higher-Symm/Only-C60
REM
REM
REM
REM
REM
REM ./C.cell (28575a23ae977d3b5fae324c64b13b57)
REM
REM compiler GCC version 9.2.1 20190827 (Red Hat 9.2.1-1)
REM options -cpp -mtune=generic -march=x86-64 -g -O0 -fpre-include=/usr/include/finclude/math-vector-fortran.h
REM seed -475082256 631961284 395050593 -131694472 2056146778 1366535071 -2038645032 760880881 906455577 245518879 2111680034 -1616847038 -917764218 1457928138 301717786 5010798 1023925548 -1963007695 -1003069824 1260538665 -1308692739 281120436 -2078915847 835574276 686647314 -755552145 -1151235907 1504279134 531335229 961170313 -855681136 1314937107 -159930512
REM
CELL 1.54180   50.00000   50.00000   50.00000   90.00000   90.00000   90.00000
LATT -1
SFAC C  
C      1  0.5118250000000  0.5388660000000  0.4392760000000 1.0
C      1  0.5122860000000  0.4395400000000  0.4611470000000 1.0
C      1  0.5127130000000  0.4605730000000  0.5608110000000 1.0
C      1  0.5123840000000  0.5599780000000  0.5390850000000 1.0
C      1  0.5135630000000  0.4591480000000  0.4380250000000 1.0
C      1  0.5124950000000  0.5616560000000  0.4593870000000 1.0
C      1  0.5106030000000  0.5386820000000  0.5609540000000 1.0
C      1  0.5129330000000  0.4381330000000  0.5401890000000 1.0
C      1  0.5315420000000  0.4869830000000  0.5639410000000 1.0
C      1  0.5313300000000  0.5649010000000  0.5118900000000 1.0
C      1  0.5311000000000  0.5121850000000  0.4357810000000 1.0
C      1  0.5313920000000  0.4347240000000  0.4869760000000 1.0
C      1  0.5310580000000  0.5188550000000  0.5635340000000 1.0
C      1  0.5333170000000  0.4355500000000  0.5200930000000 1.0
C      1  0.5338900000000  0.4794150000000  0.4364830000000 1.0
C      1  0.5331640000000  0.5636390000000  0.4790840000000 1.0
C      1  0.4491350000000  0.5327780000000  0.4884760000000 1.0
C      1  0.4497140000000  0.4869920000000  0.4649590000000 1.0
C      1  0.4495750000000  0.4687510000000  0.5130330000000 1.0
C      1  0.4416470000000  0.5150670000000  0.5383740000000 1.0
C      1  0.4430340000000  0.4635960000000  0.4832110000000 1.0
C      1  0.4425740000000  0.5164630000000  0.4629430000000 1.0
C      1  0.4416180000000  0.5354040000000  0.5182650000000 1.0
C      1  0.4422250000000  0.4865190000000  0.5371720000000 1.0
C      1  0.5409490000000  0.5346220000000  0.4876420000000 1.0
C      1  0.5404340000000  0.4876880000000  0.4658920000000 1.0
C      1  0.5416390000000  0.4644440000000  0.5114800000000 1.0
C      1  0.5411700000000  0.5120980000000  0.5343520000000 1.0
C      1  0.5273970000000  0.4684120000000  0.4841210000000 1.0
C      1  0.5253700000000  0.5157560000000  0.4687850000000 1.0
C      1  0.5285070000000  0.5317380000000  0.5158880000000 1.0
C      1  0.5275720000000  0.4827510000000  0.5311790000000 1.0
C      1  0.4831860000000  0.4398560000000  0.4714700000000 1.0
C      1  0.4835010000000  0.4715300000000  0.5602610000000 1.0
C      1  0.4831500000000  0.5601470000000  0.5282320000000 1.0
C      1  0.4825040000000  0.5291060000000  0.4394390000000 1.0
C      1  0.4869950000000  0.5626230000000  0.4717600000000 1.0
C      1  0.4824700000000  0.5263450000000  0.5615530000000 1.0
C      1  0.4872570000000  0.4379380000000  0.5282340000000 1.0
C      1  0.4880760000000  0.4713230000000  0.4362810000000 1.0
C      1  0.4964360000000  0.5332600000000  0.5142100000000 1.0
C      1  0.4944950000000  0.5150640000000  0.4663300000000 1.0
C      1  0.4955560000000  0.4670820000000  0.4848180000000 1.0
C      1  0.4968260000000  0.4849450000000  0.5334560000000 1.0
C      1  0.4831770000000  0.4669290000000  0.5124410000000 1.0
C      1  0.4831160000000  0.4872520000000  0.4649250000000 1.0
C      1  0.4826490000000  0.5337540000000  0.4876020000000 1.0
C      1  0.4907820000000  0.5135830000000  0.5359640000000 1.0
C      1  0.4549500000000  0.4398380000000  0.4740200000000 1.0
C      1  0.4553860000000  0.4747810000000  0.5606690000000 1.0
C      1  0.4548990000000  0.5600530000000  0.5272630000000 1.0
C      1  0.4541500000000  0.5277710000000  0.4399020000000 1.0
C      1  0.4580920000000  0.5633050000000  0.4773090000000 1.0
C      1  0.4541570000000  0.5247380000000  0.5630760000000 1.0
C      1  0.4581930000000  0.4382430000000  0.5241470000000 1.0
C      1  0.4592050000000  0.4758920000000  0.4351690000000 1.0
C      1  0.5690510000000  0.4985860000000  0.4733450000000 1.0
C      1  0.5697870000000  0.4778110000000  0.5150500000000 1.0
C      1  0.5696750000000  0.5005000000000  0.5267210000000 1.0
C      1  0.5692720000000  0.5218420000000  0.4839250000000 1.0
END
