TITL C-1154828-9214-451 0.00055857607950386 125000 -319.530535988946 0 0 60 (C1) n - 1
REM
REM in /home/nfs/bkarasulu/CARBON/AIRSS/Generating-Clusters/AIREBO/Higher-Symm/Only-C60
REM
REM
REM
REM
REM
REM ./C.cell (28575a23ae977d3b5fae324c64b13b57)
REM
REM compiler GCC version 9.2.1 20190827 (Red Hat 9.2.1-1)
REM options -cpp -mtune=generic -march=x86-64 -g -O0 -fpre-include=/usr/include/finclude/math-vector-fortran.h
REM seed 1946940517 186005567 -2031996574 -754426748 -1331322896 -1366367814 67899130 357284027 783102789 -1377034938 1308287200 269903165 1617593032 -1369746658 -1586596291 408174316 -1154720503 2141736934 1850670561 2095570860 1925245658 -1583924950 177881826 -117682074 -1700143833 388169501 -162290638 294409867 -1654088461 -1789827653 -1097775103 -1199345174 1420602060
REM
CELL 1.54180   50.00000   50.00000   50.00000   90.00000   90.00000   90.00000
LATT -1
SFAC C  
C      1  0.4369400000000  0.4567880000000  0.4743070000000 1.0
C      1  0.5594060000000  0.4920610000000  0.4886880000000 1.0
C      1  0.5713460000000  0.4533660000000  0.4792530000000 1.0
C      1  0.5634890000000  0.5365280000000  0.4605230000000 1.0
C      1  0.5378360000000  0.4823890000000  0.5573340000000 1.0
C      1  0.4514180000000  0.5291220000000  0.4714770000000 1.0
C      1  0.4343130000000  0.5074450000000  0.4790670000000 1.0
C      1  0.5555250000000  0.4771610000000  0.4608250000000 1.0
C      1  0.4928000000000  0.5464720000000  0.5451630000000 1.0
C      1  0.4962990000000  0.4628830000000  0.4857150000000 1.0
C      1  0.4925830000000  0.5407240000000  0.4348740000000 1.0
C      1  0.5091920000000  0.5238610000000  0.4590250000000 1.0
C      1  0.5512620000000  0.5579240000000  0.4778170000000 1.0
C      1  0.4657160000000  0.4941790000000  0.5849810000000 1.0
C      1  0.4912970000000  0.4883010000000  0.5931400000000 1.0
C      1  0.4714480000000  0.4947080000000  0.4703780000000 1.0
C      1  0.5451380000000  0.4549860000000  0.4923910000000 1.0
C      1  0.5234220000000  0.4757760000000  0.4496520000000 1.0
C      1  0.4666770000000  0.4890950000000  0.5015880000000 1.0
C      1  0.4824440000000  0.5077000000000  0.5190710000000 1.0
C      1  0.5145860000000  0.5441750000000  0.4857520000000 1.0
C      1  0.5053020000000  0.4931660000000  0.4731260000000 1.0
C      1  0.5451830000000  0.4978040000000  0.4355830000000 1.0
C      1  0.5500840000000  0.5299170000000  0.4973730000000 1.0
C      1  0.4713000000000  0.5195260000000  0.4471220000000 1.0
C      1  0.4980690000000  0.4747390000000  0.4296450000000 1.0
C      1  0.5072780000000  0.4732470000000  0.5454790000000 1.0
C      1  0.5394970000000  0.5261640000000  0.4434380000000 1.0
C      1  0.5215780000000  0.5543870000000  0.4370230000000 1.0
C      1  0.4533700000000  0.4861160000000  0.5622680000000 1.0
C      1  0.4415830000000  0.4822860000000  0.4634750000000 1.0
C      1  0.4241070000000  0.5021420000000  0.5058530000000 1.0
C      1  0.5060790000000  0.5583380000000  0.5161560000000 1.0
C      1  0.4319990000000  0.4770500000000  0.5168000000000 1.0
C      1  0.5224660000000  0.5126210000000  0.4956860000000 1.0
C      1  0.4429090000000  0.5357230000000  0.5359180000000 1.0
C      1  0.4871660000000  0.4301070000000  0.4851390000000 1.0
C      1  0.4743150000000  0.4504320000000  0.5073150000000 1.0
C      1  0.4445790000000  0.4553540000000  0.5015000000000 1.0
C      1  0.5267650000000  0.5669770000000  0.4636650000000 1.0
C      1  0.4200170000000  0.5234120000000  0.5247790000000 1.0
C      1  0.4661040000000  0.5313100000000  0.5175950000000 1.0
C      1  0.5644810000000  0.4965460000000  0.5414500000000 1.0
C      1  0.5188510000000  0.5244390000000  0.5444080000000 1.0
C      1  0.5410590000000  0.4790120000000  0.5143360000000 1.0
C      1  0.5240160000000  0.4524710000000  0.4744040000000 1.0
C      1  0.4791110000000  0.4912000000000  0.4313460000000 1.0
C      1  0.5248020000000  0.5579140000000  0.5440790000000 1.0
C      1  0.4899240000000  0.4068840000000  0.4755020000000 1.0
C      1  0.4600850000000  0.4775610000000  0.5329030000000 1.0
C      1  0.5111340000000  0.4855050000000  0.5760970000000 1.0
C      1  0.4837240000000  0.4563400000000  0.5374320000000 1.0
C      1  0.4783790000000  0.4329100000000  0.5560420000000 1.0
C      1  0.5147620000000  0.4982790000000  0.5242420000000 1.0
C      1  0.4637540000000  0.5477700000000  0.5539080000000 1.0
C      1  0.5773100000000  0.5181950000000  0.4805310000000 1.0
C      1  0.4853690000000  0.5611980000000  0.4893350000000 1.0
C      1  0.5673300000000  0.5090260000000  0.5170710000000 1.0
C      1  0.4637950000000  0.5438740000000  0.4918470000000 1.0
C      1  0.5592270000000  0.4644160000000  0.5391050000000 1.0
END
