TITL C-1154803-8277-537 0.177245201870784 125000 -299.859111257152 0 0 60 (C1) n - 1
REM
REM in /home/nfs/bkarasulu/CARBON/AIRSS/Generating-Clusters/AIREBO/Higher-Symm/Only-C60
REM
REM
REM
REM
REM
REM ./C.cell (28575a23ae977d3b5fae324c64b13b57)
REM
REM compiler GCC version 9.2.1 20190827 (Red Hat 9.2.1-1)
REM options -cpp -mtune=generic -march=x86-64 -g -O0 -fpre-include=/usr/include/finclude/math-vector-fortran.h
REM seed -609578702 -1952892994 -1187373320 1351301879 2130115390 795069182 1442517908 -1486012624 -1950529993 -124417947 512671130 -1662568120 -172733943 -2058573474 731949324 670951066 487151428 1300978610 1437555369 -1076349486 2147125652 -121247558 1400215553 931284955 -2034981131 -1344108167 1500700144 -520925148 -1961883648 -1755519015 272498388 1630565341 -801299857
REM
CELL 1.54180   50.00000   50.00000   50.00000   90.00000   90.00000   90.00000
LATT -1
SFAC C  
C      1  0.5463770000000  0.5098160000000  0.4687320000000 1.0
C      1  0.4664000000000  0.5470690000000  0.5099540000000 1.0
C      1  0.4997740000000  0.4804710000000  0.5426030000000 1.0
C      1  0.4512400000000  0.5002550000000  0.4715150000000 1.0
C      1  0.4512720000000  0.4907920000000  0.5304760000000 1.0
C      1  0.5446690000000  0.5005900000000  0.5237540000000 1.0
C      1  0.5254240000000  0.4568350000000  0.5058270000000 1.0
C      1  0.5214850000000  0.5435280000000  0.4996590000000 1.0
C      1  0.4670480000000  0.4540400000000  0.4902960000000 1.0
C      1  0.4992770000000  0.5209500000000  0.5418080000000 1.0
C      1  0.5041480000000  0.4749880000000  0.4603290000000 1.0
C      1  0.4983420000000  0.5271190000000  0.4570440000000 1.0
C      1  0.5108060000000  0.5514610000000  0.4692140000000 1.0
C      1  0.5518120000000  0.4699530000000  0.5145470000000 1.0
C      1  0.4743650000000  0.5002160000000  0.5535900000000 1.0
C      1  0.5002110000000  0.4572260000000  0.4834370000000 1.0
C      1  0.5093150000000  0.4526600000000  0.5356580000000 1.0
C      1  0.4969330000000  0.5387520000000  0.5200710000000 1.0
C      1  0.4542860000000  0.5293080000000  0.4894350000000 1.0
C      1  0.5419780000000  0.5215640000000  0.4988770000000 1.0
C      1  0.4524110000000  0.4791320000000  0.4989540000000 1.0
C      1  0.5257930000000  0.5008490000000  0.5458550000000 1.0
C      1  0.4801350000000  0.4978520000000  0.4527170000000 1.0
C      1  0.5215960000000  0.5024890000000  0.4543530000000 1.0
C      1  0.5320610000000  0.5017540000000  0.5782000000000 1.0
C      1  0.5769640000000  0.5247040000000  0.4887350000000 1.0
C      1  0.4976480000000  0.5710590000000  0.5158670000000 1.0
C      1  0.4834890000000  0.4944820000000  0.5858450000000 1.0
C      1  0.4773290000000  0.4992000000000  0.4188440000000 1.0
C      1  0.5271170000000  0.5024740000000  0.4204890000000 1.0
C      1  0.4202380000000  0.4814400000000  0.4881830000000 1.0
C      1  0.4254550000000  0.5203520000000  0.4944140000000 1.0
C      1  0.5768920000000  0.4741580000000  0.4942980000000 1.0
C      1  0.4904990000000  0.4272790000000  0.5267610000000 1.0
C      1  0.4944460000000  0.5785630000000  0.4771080000000 1.0
C      1  0.4918520000000  0.4233950000000  0.4871810000000 1.0
C      1  0.5036880000000  0.5176430000000  0.5742810000000 1.0
C      1  0.5223170000000  0.5779340000000  0.4965900000000 1.0
C      1  0.5746940000000  0.5023300000000  0.5110960000000 1.0
C      1  0.5117030000000  0.4846480000000  0.5946790000000 1.0
C      1  0.5042540000000  0.4798270000000  0.4266610000000 1.0
C      1  0.5000480000000  0.5192960000000  0.4254520000000 1.0
C      1  0.4667350000000  0.4277090000000  0.5085420000000 1.0
C      1  0.5163430000000  0.4258290000000  0.5070920000000 1.0
C      1  0.4718390000000  0.5770140000000  0.4978510000000 1.0
C      1  0.4218290000000  0.4981900000000  0.5156810000000 1.0
C      1  0.5750250000000  0.4950070000000  0.4722250000000 1.0
C      1  0.4180710000000  0.5060830000000  0.4667530000000 1.0
C      1  0.5327870000000  0.4434840000000  0.5526400000000 1.0
C      1  0.5609650000000  0.5604620000000  0.4352860000000 1.0
C      1  0.5587770000000  0.5369810000000  0.4582270000000 1.0
C      1  0.4391810000000  0.5172570000000  0.5452210000000 1.0
C      1  0.4510300000000  0.5458050000000  0.5362010000000 1.0
C      1  0.5358590000000  0.5586690000000  0.4543940000000 1.0
C      1  0.4689330000000  0.4679930000000  0.4409000000000 1.0
C      1  0.4618690000000  0.5307580000000  0.5626150000000 1.0
C      1  0.5603410000000  0.4425170000000  0.5694300000000 1.0
C      1  0.5594400000000  0.4539060000000  0.5391510000000 1.0
C      1  0.4555370000000  0.4489730000000  0.4623760000000 1.0
C      1  0.4396480000000  0.4749140000000  0.4520250000000 1.0
END
