TITL C-1154824-75-644 0.000729315815870329 125000 -314.497635264017 0 0 60 (C1) n - 1
REM
REM in /home/nfs/bkarasulu/CARBON/AIRSS/Generating-Clusters/AIREBO/Higher-Symm/Only-C60
REM
REM
REM
REM
REM
REM ./C.cell (28575a23ae977d3b5fae324c64b13b57)
REM
REM compiler GCC version 9.2.1 20190827 (Red Hat 9.2.1-1)
REM options -cpp -mtune=generic -march=x86-64 -g -O0 -fpre-include=/usr/include/finclude/math-vector-fortran.h
REM seed 1757746559 -1243373303 694077737 -622130258 702508094 535264380 -934081667 -1170853621 -813492584 -1002748904 -1341504336 -262288220 1956152636 -338224276 1136002464 -1525415085 -1433358500 1438773770 -1315968834 237866445 514137299 -1961933176 1728530548 801569066 2011534759 775504899 2057553513 -1150147778 -1295535987 -262851421 1047651165 -1781695928 -979877699
REM
CELL 1.54180   50.00000   50.00000   50.00000   90.00000   90.00000   90.00000
LATT -1
SFAC C  
C      1  0.5320630000000  0.4535240000000  0.5326460000000 1.0
C      1  0.4572030000000  0.4588280000000  0.5279800000000 1.0
C      1  0.4972260000000  0.4337080000000  0.4696410000000 1.0
C      1  0.4788530000000  0.4788810000000  0.5110930000000 1.0
C      1  0.5075070000000  0.4842350000000  0.4645410000000 1.0
C      1  0.5341900000000  0.4812610000000  0.5130540000000 1.0
C      1  0.5324370000000  0.5052370000000  0.4889900000000 1.0
C      1  0.4955950000000  0.4994650000000  0.5285980000000 1.0
C      1  0.4800950000000  0.4965370000000  0.4742950000000 1.0
C      1  0.5641930000000  0.5438500000000  0.4810430000000 1.0
C      1  0.4888100000000  0.5364420000000  0.5596200000000 1.0
C      1  0.4483840000000  0.5331890000000  0.4594120000000 1.0
C      1  0.4456820000000  0.5372700000000  0.5327330000000 1.0
C      1  0.4975310000000  0.5365540000000  0.4388070000000 1.0
C      1  0.5640030000000  0.5373140000000  0.5358370000000 1.0
C      1  0.4423210000000  0.5073860000000  0.5350440000000 1.0
C      1  0.4954100000000  0.5054130000000  0.4328410000000 1.0
C      1  0.5637530000000  0.5087660000000  0.5286710000000 1.0
C      1  0.4770500000000  0.5262620000000  0.4615330000000 1.0
C      1  0.5445500000000  0.5316350000000  0.5017030000000 1.0
C      1  0.4775950000000  0.5256810000000  0.5305610000000 1.0
C      1  0.5086540000000  0.4429520000000  0.4946900000000 1.0
C      1  0.5107440000000  0.4378440000000  0.5221550000000 1.0
C      1  0.4692360000000  0.4376590000000  0.5042390000000 1.0
C      1  0.5119400000000  0.5570260000000  0.4494210000000 1.0
C      1  0.5403360000000  0.5547600000000  0.5236510000000 1.0
C      1  0.4696520000000  0.5558740000000  0.5170920000000 1.0
C      1  0.5527150000000  0.5063290000000  0.4546550000000 1.0
C      1  0.5139310000000  0.4869310000000  0.5644950000000 1.0
C      1  0.4409300000000  0.4884310000000  0.4745280000000 1.0
C      1  0.4683040000000  0.5165700000000  0.4991360000000 1.0
C      1  0.5080620000000  0.5250590000000  0.4755460000000 1.0
C      1  0.5238360000000  0.5184630000000  0.5253770000000 1.0
C      1  0.5558780000000  0.4837560000000  0.4769320000000 1.0
C      1  0.4864790000000  0.4746720000000  0.5500300000000 1.0
C      1  0.4629830000000  0.4702780000000  0.4613730000000 1.0
C      1  0.5196610000000  0.5694020000000  0.5128520000000 1.0
C      1  0.4887600000000  0.5697370000000  0.5050180000000 1.0
C      1  0.5105130000000  0.5584670000000  0.4818940000000 1.0
C      1  0.5130410000000  0.5202440000000  0.5577360000000 1.0
C      1  0.4320440000000  0.5105150000000  0.4617650000000 1.0
C      1  0.5673750000000  0.5286450000000  0.4578010000000 1.0
C      1  0.4772150000000  0.4860920000000  0.4357990000000 1.0
C      1  0.5706200000000  0.4955780000000  0.5052320000000 1.0
C      1  0.4540070000000  0.4842800000000  0.5502970000000 1.0
C      1  0.4270140000000  0.4640810000000  0.5132500000000 1.0
C      1  0.5161900000000  0.4526660000000  0.4552810000000 1.0
C      1  0.5316280000000  0.4593130000000  0.5596890000000 1.0
C      1  0.4769620000000  0.5514820000000  0.5786260000000 1.0
C      1  0.4395360000000  0.5588110000000  0.4560950000000 1.0
C      1  0.5787590000000  0.5661730000000  0.4872750000000 1.0
C      1  0.4664230000000  0.4411840000000  0.4705230000000 1.0
C      1  0.5157450000000  0.4693590000000  0.4912970000000 1.0
C      1  0.4843960000000  0.4412510000000  0.5383680000000 1.0
C      1  0.4794830000000  0.4211550000000  0.5575410000000 1.0
C      1  0.4489330000000  0.4230060000000  0.4582600000000 1.0
C      1  0.5436740000000  0.4568800000000  0.4644640000000 1.0
C      1  0.4473710000000  0.4906370000000  0.5058880000000 1.0
C      1  0.5235290000000  0.5084070000000  0.4502500000000 1.0
C      1  0.5389920000000  0.4945950000000  0.5428330000000 1.0
END
