TITL C-1154802-8274-623 27.4251521471896 125000 -330.284572572055 0 0 60 (C1) n - 1
REM
REM in /home/nfs/bkarasulu/CARBON/AIRSS/Generating-Clusters/AIREBO/Higher-Symm/Only-C60
REM
REM
REM
REM
REM
REM ./C.cell (28575a23ae977d3b5fae324c64b13b57)
REM
REM compiler GCC version 9.2.1 20190827 (Red Hat 9.2.1-1)
REM options -cpp -mtune=generic -march=x86-64 -g -O0 -fpre-include=/usr/include/finclude/math-vector-fortran.h
REM seed -130573359 -187131324 -707294840 1572717624 -1346105239 -1066495958 1760925381 2017961606 1720052684 -600067910 1460602223 738625164 -946636550 -793720418 -922179626 1008762878 -647735200 -1588925049 200799631 362460366 1721765487 -1953411346 -1044935559 -6802019 -1679178511 1350821662 -764344804 49455030 -907365619 -1492351709 50333766 258944326 -429748256
REM
CELL 1.54180   50.00000   50.00000   50.00000   90.00000   90.00000   90.00000
LATT -1
SFAC C  
C      1  0.5521970000000  0.5297800000000  0.5065960000000 1.0
C      1  0.5396090000000  0.5250830000000  0.4485050000000 1.0
C      1  0.4937420000000  0.5261140000000  0.4292940000000 1.0
C      1  0.4433210000000  0.5305470000000  0.4591200000000 1.0
C      1  0.4312650000000  0.5296810000000  0.5078010000000 1.0
C      1  0.4665580000000  0.5197410000000  0.5581900000000 1.0
C      1  0.5225830000000  0.5236410000000  0.5506440000000 1.0
C      1  0.5238860000000  0.4956370000000  0.4818380000000 1.0
C      1  0.5004320000000  0.5075220000000  0.4817020000000 1.0
C      1  0.4937660000000  0.5271200000000  0.5061220000000 1.0
C      1  0.4691520000000  0.5048730000000  0.5060960000000 1.0
C      1  0.4989910000000  0.4964940000000  0.5200860000000 1.0
C      1  0.5273720000000  0.4853410000000  0.5202360000000 1.0
C      1  0.5501740000000  0.4906390000000  0.4992150000000 1.0
C      1  0.4929420000000  0.4809460000000  0.5489560000000 1.0
C      1  0.5563020000000  0.4884270000000  0.5378330000000 1.0
C      1  0.5545210000000  0.4930270000000  0.4668500000000 1.0
C      1  0.5175790000000  0.4825640000000  0.4350860000000 1.0
C      1  0.4732090000000  0.4810980000000  0.4509280000000 1.0
C      1  0.4302710000000  0.4869510000000  0.4798830000000 1.0
C      1  0.4440620000000  0.4945990000000  0.5220540000000 1.0
C      1  0.5449400000000  0.5187910000000  0.5327880000000 1.0
C      1  0.5507300000000  0.5247850000000  0.4784010000000 1.0
C      1  0.5186740000000  0.5117880000000  0.4326230000000 1.0
C      1  0.4695110000000  0.5289360000000  0.4477740000000 1.0
C      1  0.4380820000000  0.5146960000000  0.4829530000000 1.0
C      1  0.4485790000000  0.5252360000000  0.5333820000000 1.0
C      1  0.4960140000000  0.5141520000000  0.5556130000000 1.0
C      1  0.5529220000000  0.4556230000000  0.5293010000000 1.0
C      1  0.5339160000000  0.4420940000000  0.5106700000000 1.0
C      1  0.5271110000000  0.4481400000000  0.4778870000000 1.0
C      1  0.4954100000000  0.4355980000000  0.4763170000000 1.0
C      1  0.4671260000000  0.4437970000000  0.4858030000000 1.0
C      1  0.4592530000000  0.4455320000000  0.5153690000000 1.0
C      1  0.4858080000000  0.4509870000000  0.5345300000000 1.0
C      1  0.5385020000000  0.4589460000000  0.5580730000000 1.0
C      1  0.5862010000000  0.4491140000000  0.5316930000000 1.0
C      1  0.5489310000000  0.4383330000000  0.4556170000000 1.0
C      1  0.4958730000000  0.4404440000000  0.4445400000000 1.0
C      1  0.4434570000000  0.4346650000000  0.4651330000000 1.0
C      1  0.4280120000000  0.4516060000000  0.5142330000000 1.0
C      1  0.4570350000000  0.4641310000000  0.5444080000000 1.0
C      1  0.5859350000000  0.4759240000000  0.5387350000000 1.0
C      1  0.5376700000000  0.4703680000000  0.4541400000000 1.0
C      1  0.4932390000000  0.4677710000000  0.4369150000000 1.0
C      1  0.4514880000000  0.4676780000000  0.4664390000000 1.0
C      1  0.4251620000000  0.4777710000000  0.5067850000000 1.0
C      1  0.4509170000000  0.4916220000000  0.5543260000000 1.0
C      1  0.5172430000000  0.4692070000000  0.5656870000000 1.0
C      1  0.4783110000000  0.5766400000000  0.5232670000000 1.0
C      1  0.4921010000000  0.5894700000000  0.5439970000000 1.0
C      1  0.5186490000000  0.5969810000000  0.5404300000000 1.0
C      1  0.5335120000000  0.5894860000000  0.5181590000000 1.0
C      1  0.5217800000000  0.5751200000000  0.4972870000000 1.0
C      1  0.4969100000000  0.5803940000000  0.4786840000000 1.0
C      1  0.4725370000000  0.5854290000000  0.4949080000000 1.0
C      1  0.5072700000000  0.4327320000000  0.5282810000000 1.0
C      1  0.4963120000000  0.5550330000000  0.5049210000000 1.0
C      1  0.5113750000000  0.4187950000000  0.4990050000000 1.0
C      1  0.4818830000000  0.5054770000000  0.4613820000000 1.0
END
