TITL C-1154803-8277-336 -0.00120974261779681 125000 -351.930604965997 0 0 60 (C1) n - 1
REM
REM in /home/nfs/bkarasulu/CARBON/AIRSS/Generating-Clusters/AIREBO/Higher-Symm/Only-C60
REM
REM
REM
REM
REM
REM ./C.cell (28575a23ae977d3b5fae324c64b13b57)
REM
REM compiler GCC version 9.2.1 20190827 (Red Hat 9.2.1-1)
REM options -cpp -mtune=generic -march=x86-64 -g -O0 -fpre-include=/usr/include/finclude/math-vector-fortran.h
REM seed 2128527764 937295775 -1240083311 -723782707 -439616244 -734976396 1678854130 -782609480 -745657278 -1549401366 -356340419 -455695777 1479876858 767620220 482761050 1479506823 259611554 -132986359 -397341369 -89881572 -1107265792 -301129345 -1107225687 1352698135 156116630 935306031 1553983893 -1721778294 -909464524 -928051403 1151370989 -2056051732 -1423992663
REM
CELL 1.54180   50.00000   50.00000   50.00000   90.00000   90.00000   90.00000
LATT -1
SFAC C  
C      1  0.5851860000000  0.4941660000000  0.4844270000000 1.0
C      1  0.4939800000000  0.4162390000000  0.4832000000000 1.0
C      1  0.4127320000000  0.5077950000000  0.4833630000000 1.0
C      1  0.5046170000000  0.5811850000000  0.4861570000000 1.0
C      1  0.4231180000000  0.4288860000000  0.4754930000000 1.0
C      1  0.4264400000000  0.5784100000000  0.4747790000000 1.0
C      1  0.5756720000000  0.5706200000000  0.4761440000000 1.0
C      1  0.5744630000000  0.4228700000000  0.4776800000000 1.0
C      1  0.4460940000000  0.5395600000000  0.5634330000000 1.0
C      1  0.5396520000000  0.5589400000000  0.5678020000000 1.0
C      1  0.5570750000000  0.4625390000000  0.5660950000000 1.0
C      1  0.4614850000000  0.4407460000000  0.5659480000000 1.0
C      1  0.5517310000000  0.5707360000000  0.5470380000000 1.0
C      1  0.5707340000000  0.4498040000000  0.5469650000000 1.0
C      1  0.4487590000000  0.4288320000000  0.5456470000000 1.0
C      1  0.4331980000000  0.5520320000000  0.5435620000000 1.0
C      1  0.4785360000000  0.5129150000000  0.4768800000000 1.0
C      1  0.5097670000000  0.5163000000000  0.4770640000000 1.0
C      1  0.5192290000000  0.4863430000000  0.4776480000000 1.0
C      1  0.4880220000000  0.4829860000000  0.4766240000000 1.0
C      1  0.4814600000000  0.5928580000000  0.4899430000000 1.0
C      1  0.5933800000000  0.5184450000000  0.4899290000000 1.0
C      1  0.5179300000000  0.4072940000000  0.4889670000000 1.0
C      1  0.4036120000000  0.4840030000000  0.4895020000000 1.0
C      1  0.5597290000000  0.4328540000000  0.4554740000000 1.0
C      1  0.4338070000000  0.4436940000000  0.4536770000000 1.0
C      1  0.4404270000000  0.5672470000000  0.4526490000000 1.0
C      1  0.5647630000000  0.5558510000000  0.4544110000000 1.0
C      1  0.5303060000000  0.5408080000000  0.5852000000000 1.0
C      1  0.5389300000000  0.4725810000000  0.5829890000000 1.0
C      1  0.4715530000000  0.4588830000000  0.5829080000000 1.0
C      1  0.4660150000000  0.5257150000000  0.5746470000000 1.0
C      1  0.4872860000000  0.4803230000000  0.5886060000000 1.0
C      1  0.4850650000000  0.5113850000000  0.5883920000000 1.0
C      1  0.5152570000000  0.5187560000000  0.5906040000000 1.0
C      1  0.5171960000000  0.4879140000000  0.5900490000000 1.0
C      1  0.5203970000000  0.4861000000000  0.4301660000000 1.0
C      1  0.4888320000000  0.4830060000000  0.4299420000000 1.0
C      1  0.4791400000000  0.5131980000000  0.4293990000000 1.0
C      1  0.5106820000000  0.5162780000000  0.4303580000000 1.0
C      1  0.4789460000000  0.4685430000000  0.4530840000000 1.0
C      1  0.4651470000000  0.5220830000000  0.4529590000000 1.0
C      1  0.5197270000000  0.5307220000000  0.4538640000000 1.0
C      1  0.5335570000000  0.4772910000000  0.4542340000000 1.0
C      1  0.4457200000000  0.4190340000000  0.5208570000000 1.0
C      1  0.4196220000000  0.5563890000000  0.5208380000000 1.0
C      1  0.5539110000000  0.5801150000000  0.5220010000000 1.0
C      1  0.5821740000000  0.4464400000000  0.5229300000000 1.0
C      1  0.5744830000000  0.4691930000000  0.4802950000000 1.0
C      1  0.4693760000000  0.4276910000000  0.4788330000000 1.0
C      1  0.4244060000000  0.5321980000000  0.4785450000000 1.0
C      1  0.5295000000000  0.5709700000000  0.4804940000000 1.0
C      1  0.4625300000000  0.4462470000000  0.4572630000000 1.0
C      1  0.4427250000000  0.5385320000000  0.4565790000000 1.0
C      1  0.5361620000000  0.5528610000000  0.4585310000000 1.0
C      1  0.5563580000000  0.4615460000000  0.4586300000000 1.0
C      1  0.4193570000000  0.5570400000000  0.4931520000000 1.0
C      1  0.5542650000000  0.5775930000000  0.4944790000000 1.0
C      1  0.5809910000000  0.4449890000000  0.4953370000000 1.0
C      1  0.4447840000000  0.4214250000000  0.4933280000000 1.0
END
