TITL C-1154803-8277-120 0.000434281613217958 125000 -324.140680124648 0 0 60 (C1) n - 1
REM
REM in /home/nfs/bkarasulu/CARBON/AIRSS/Generating-Clusters/AIREBO/Higher-Symm/Only-C60
REM
REM
REM
REM
REM
REM ./C.cell (28575a23ae977d3b5fae324c64b13b57)
REM
REM compiler GCC version 9.2.1 20190827 (Red Hat 9.2.1-1)
REM options -cpp -mtune=generic -march=x86-64 -g -O0 -fpre-include=/usr/include/finclude/math-vector-fortran.h
REM seed 450451102 1736927280 651257448 495678877 1768862554 2063313414 -2011779011 840256736 1292787025 59828751 1029641898 -1114809759 1788174874 -996677308 793360014 -1078280393 -1355743871 -1318711459 -776716403 641290658 -1070511666 121991346 502788771 -1916604183 -1699338259 195675706 -350937543 -1015894072 874100092 -668931662 -122252117 -195209678 1120011981
REM
CELL 1.54180   50.00000   50.00000   50.00000   90.00000   90.00000   90.00000
LATT -1
SFAC C  
C      1  0.5042340000000  0.4477860000000  0.4485150000000 1.0
C      1  0.4452770000000  0.4899430000000  0.4635300000000 1.0
C      1  0.4536990000000  0.5230200000000  0.4608200000000 1.0
C      1  0.4743690000000  0.5489510000000  0.4654080000000 1.0
C      1  0.5369620000000  0.5336490000000  0.4509580000000 1.0
C      1  0.5613260000000  0.5107040000000  0.4582520000000 1.0
C      1  0.5332000000000  0.4407760000000  0.4649970000000 1.0
C      1  0.5408230000000  0.4901640000000  0.4755350000000 1.0
C      1  0.5206570000000  0.4683890000000  0.4782130000000 1.0
C      1  0.4886590000000  0.4648190000000  0.4735180000000 1.0
C      1  0.4762210000000  0.4927220000000  0.4752660000000 1.0
C      1  0.4567760000000  0.5138900000000  0.4934340000000 1.0
C      1  0.5007600000000  0.5380860000000  0.4789420000000 1.0
C      1  0.5295210000000  0.5199940000000  0.4804960000000 1.0
C      1  0.5059130000000  0.4645520000000  0.4238560000000 1.0
C      1  0.4814480000000  0.4735860000000  0.4129170000000 1.0
C      1  0.4726350000000  0.4993130000000  0.4176520000000 1.0
C      1  0.4784470000000  0.5179900000000  0.4380150000000 1.0
C      1  0.5051270000000  0.5274370000000  0.4395770000000 1.0
C      1  0.5296890000000  0.5095220000000  0.4281140000000 1.0
C      1  0.5269230000000  0.4831780000000  0.4202070000000 1.0
C      1  0.4409030000000  0.5246070000000  0.5326180000000 1.0
C      1  0.4896600000000  0.5703090000000  0.5152300000000 1.0
C      1  0.5280870000000  0.5464110000000  0.5236500000000 1.0
C      1  0.5583740000000  0.4981240000000  0.5244890000000 1.0
C      1  0.5384950000000  0.4507280000000  0.5278370000000 1.0
C      1  0.4863980000000  0.4390010000000  0.5213540000000 1.0
C      1  0.4415730000000  0.4722520000000  0.5268950000000 1.0
C      1  0.5352990000000  0.5663360000000  0.4967850000000 1.0
C      1  0.5755400000000  0.5170210000000  0.5020230000000 1.0
C      1  0.5598830000000  0.4518460000000  0.5026720000000 1.0
C      1  0.5020600000000  0.4245110000000  0.4955160000000 1.0
C      1  0.4448370000000  0.4582940000000  0.4979350000000 1.0
C      1  0.4197360000000  0.5233750000000  0.5040620000000 1.0
C      1  0.4633290000000  0.5678990000000  0.5052040000000 1.0
C      1  0.4256410000000  0.5330490000000  0.4772510000000 1.0
C      1  0.4635430000000  0.5714600000000  0.4768920000000 1.0
C      1  0.5459260000000  0.5597440000000  0.4709030000000 1.0
C      1  0.5834330000000  0.5146500000000  0.4747880000000 1.0
C      1  0.5560340000000  0.4351380000000  0.4792410000000 1.0
C      1  0.4985830000000  0.4211290000000  0.4688560000000 1.0
C      1  0.4319790000000  0.4698500000000  0.4755580000000 1.0
C      1  0.4974630000000  0.5527760000000  0.5371670000000 1.0
C      1  0.5295510000000  0.5131030000000  0.5319490000000 1.0
C      1  0.5339450000000  0.4809300000000  0.5415780000000 1.0
C      1  0.5072100000000  0.4601000000000  0.5373240000000 1.0
C      1  0.4750700000000  0.4696760000000  0.5306720000000 1.0
C      1  0.4586920000000  0.4972760000000  0.5422840000000 1.0
C      1  0.4763630000000  0.5260940000000  0.5384980000000 1.0
C      1  0.5070890000000  0.5640090000000  0.4944740000000 1.0
C      1  0.5489440000000  0.5299630000000  0.5023830000000 1.0
C      1  0.5602950000000  0.4803410000000  0.4980140000000 1.0
C      1  0.5203600000000  0.4467570000000  0.5021180000000 1.0
C      1  0.4713620000000  0.4498550000000  0.4942630000000 1.0
C      1  0.4330100000000  0.4952870000000  0.5071200000000 1.0
C      1  0.4535120000000  0.5428710000000  0.5103780000000 1.0
C      1  0.5023240000000  0.5032510000000  0.5818810000000 1.0
C      1  0.4996710000000  0.5070720000000  0.5231280000000 1.0
C      1  0.4955420000000  0.5094600000000  0.4942420000000 1.0
C      1  0.4989310000000  0.5080700000000  0.5571210000000 1.0
END
