TITL C-1154829-9094-154 0.000102301789585309 125000 -316.371219442302 0 0 60 (C1) n - 1
REM
REM in /home/nfs/bkarasulu/CARBON/AIRSS/Generating-Clusters/AIREBO/Higher-Symm/Only-C60
REM
REM
REM
REM
REM
REM ./C.cell (28575a23ae977d3b5fae324c64b13b57)
REM
REM compiler GCC version 9.2.1 20190827 (Red Hat 9.2.1-1)
REM options -cpp -mtune=generic -march=x86-64 -g -O0 -fpre-include=/usr/include/finclude/math-vector-fortran.h
REM seed 1480394087 1076437250 546704901 689880449 1056035777 -1405524913 -930966234 1609812971 -241339515 821636369 -931321270 767359375 -761660544 -732205659 331739964 -509760010 -1779435771 -1904960406 1891391345 1640702692 -1813495644 263169291 -1214911588 1375840757 2090314429 966577722 -1935443678 -1512626393 669194190 -1934748371 -1558441340 -520080643 -1339172940
REM
CELL 1.54180   50.00000   50.00000   50.00000   90.00000   90.00000   90.00000
LATT -1
SFAC C  
C      1  0.4801170000000  0.5379560000000  0.4510640000000 1.0
C      1  0.4487780000000  0.5324690000000  0.5187490000000 1.0
C      1  0.5263120000000  0.5388570000000  0.5446970000000 1.0
C      1  0.5581060000000  0.5419040000000  0.4708870000000 1.0
C      1  0.4749060000000  0.4688030000000  0.4552390000000 1.0
C      1  0.4436390000000  0.4656920000000  0.5244930000000 1.0
C      1  0.5274690000000  0.4618320000000  0.5494740000000 1.0
C      1  0.5490780000000  0.4676430000000  0.4730850000000 1.0
C      1  0.5033150000000  0.4532520000000  0.4812250000000 1.0
C      1  0.4855590000000  0.4511890000000  0.5044900000000 1.0
C      1  0.5035720000000  0.4385020000000  0.5257240000000 1.0
C      1  0.5247410000000  0.4453000000000  0.5025640000000 1.0
C      1  0.5010130000000  0.5599990000000  0.4768460000000 1.0
C      1  0.4803970000000  0.5550100000000  0.4977550000000 1.0
C      1  0.4966020000000  0.5533680000000  0.5227560000000 1.0
C      1  0.5197670000000  0.5573300000000  0.5020880000000 1.0
C      1  0.5467060000000  0.5342640000000  0.5254870000000 1.0
C      1  0.5383540000000  0.5423610000000  0.4482440000000 1.0
C      1  0.4531710000000  0.5441410000000  0.4641400000000 1.0
C      1  0.4651090000000  0.5366830000000  0.5408280000000 1.0
C      1  0.5475760000000  0.4657200000000  0.5279350000000 1.0
C      1  0.5290750000000  0.4702130000000  0.4527860000000 1.0
C      1  0.4548840000000  0.4687720000000  0.4754020000000 1.0
C      1  0.4635130000000  0.4624550000000  0.5465520000000 1.0
C      1  0.5629150000000  0.5099370000000  0.5306240000000 1.0
C      1  0.5314650000000  0.5134320000000  0.4349090000000 1.0
C      1  0.4332030000000  0.5169440000000  0.4689010000000 1.0
C      1  0.4666860000000  0.5152280000000  0.5642830000000 1.0
C      1  0.5742940000000  0.4721810000000  0.5243210000000 1.0
C      1  0.5245340000000  0.4750580000000  0.4261560000000 1.0
C      1  0.4284080000000  0.4752080000000  0.4749730000000 1.0
C      1  0.4730580000000  0.4758790000000  0.5707560000000 1.0
C      1  0.5108640000000  0.5314590000000  0.4640580000000 1.0
C      1  0.4630010000000  0.5303270000000  0.4918760000000 1.0
C      1  0.4960490000000  0.5247530000000  0.5382770000000 1.0
C      1  0.5391140000000  0.5338440000000  0.4956820000000 1.0
C      1  0.5022650000000  0.4840780000000  0.4684420000000 1.0
C      1  0.4679530000000  0.4761450000000  0.5059200000000 1.0
C      1  0.4959720000000  0.4689790000000  0.5387530000000 1.0
C      1  0.5327760000000  0.4782560000000  0.4999890000000 1.0
C      1  0.5160290000000  0.4759950000000  0.5725670000000 1.0
C      1  0.5752560000000  0.4739610000000  0.4806400000000 1.0
C      1  0.4837960000000  0.4738280000000  0.4285020000000 1.0
C      1  0.4197370000000  0.4734380000000  0.5139470000000 1.0
C      1  0.5225700000000  0.5152740000000  0.5666010000000 1.0
C      1  0.5718330000000  0.5133380000000  0.4750600000000 1.0
C      1  0.4763980000000  0.5124820000000  0.4350370000000 1.0
C      1  0.4288840000000  0.5114110000000  0.5224100000000 1.0
C      1  0.5462060000000  0.5053580000000  0.4605710000000 1.0
C      1  0.4591950000000  0.5051450000000  0.4594310000000 1.0
C      1  0.4478150000000  0.5007780000000  0.5429870000000 1.0
C      1  0.5367600000000  0.5004810000000  0.5442470000000 1.0
C      1  0.4783800000000  0.4969640000000  0.5307160000000 1.0
C      1  0.5173950000000  0.4917120000000  0.5253030000000 1.0
C      1  0.5222230000000  0.5065810000000  0.4843240000000 1.0
C      1  0.4780830000000  0.5011370000000  0.4852100000000 1.0
C      1  0.4942070000000  0.5019890000000  0.5716980000000 1.0
C      1  0.5035130000000  0.5009150000000  0.4226080000000 1.0
C      1  0.5786410000000  0.4988050000000  0.5036250000000 1.0
C      1  0.4187650000000  0.5010430000000  0.4940850000000 1.0
END
