TITL C-1154801-8518-392 -0.00221713928057866 125000 -316.883448075079 0 0 60 (C1) n - 1
REM
REM in /home/nfs/bkarasulu/CARBON/AIRSS/Generating-Clusters/AIREBO/Higher-Symm/Only-C60
REM
REM
REM
REM
REM
REM ./C.cell (28575a23ae977d3b5fae324c64b13b57)
REM
REM compiler GCC version 9.2.1 20190827 (Red Hat 9.2.1-1)
REM options -cpp -mtune=generic -march=x86-64 -g -O0 -fpre-include=/usr/include/finclude/math-vector-fortran.h
REM seed -1316547764 1067594344 -974490544 -238626253 -1021619972 1250649810 -39478036 658322200 -592704883 -1119289871 -340008587 -1245042939 1412912644 27262235 1610927705 -2008601181 -1734272720 -1711903060 -2021315605 1308755603 -505333912 -1389839512 1312078667 488402117 779961631 818007499 -1343840865 1290299683 1079407016 -1586003288 -590216268 682134650 -92178720
REM
CELL 1.54180   50.00000   50.00000   50.00000   90.00000   90.00000   90.00000
LATT -1
SFAC C  
C      1  0.5351590000000  0.4643040000000  0.5477570000000 1.0
C      1  0.5339270000000  0.5254320000000  0.5632350000000 1.0
C      1  0.5154900000000  0.4705770000000  0.5024770000000 1.0
C      1  0.5137750000000  0.5386810000000  0.5062290000000 1.0
C      1  0.5365080000000  0.5174220000000  0.4453130000000 1.0
C      1  0.5283180000000  0.4863840000000  0.4431670000000 1.0
C      1  0.5351400000000  0.4239280000000  0.4917740000000 1.0
C      1  0.5356950000000  0.5587510000000  0.4666880000000 1.0
C      1  0.4502230000000  0.4280480000000  0.4853670000000 1.0
C      1  0.4409230000000  0.5522830000000  0.5021400000000 1.0
C      1  0.4107950000000  0.4739330000000  0.4499980000000 1.0
C      1  0.4215700000000  0.5322090000000  0.4825580000000 1.0
C      1  0.5753360000000  0.4913830000000  0.4690790000000 1.0
C      1  0.5643790000000  0.5183760000000  0.4600070000000 1.0
C      1  0.5142080000000  0.5705610000000  0.5354550000000 1.0
C      1  0.5031470000000  0.4235420000000  0.5441950000000 1.0
C      1  0.5686250000000  0.5213940000000  0.5174630000000 1.0
C      1  0.5787370000000  0.4970690000000  0.5281140000000 1.0
C      1  0.4848840000000  0.4811840000000  0.5594100000000 1.0
C      1  0.4838090000000  0.5163700000000  0.5582070000000 1.0
C      1  0.4573970000000  0.4914030000000  0.5421480000000 1.0
C      1  0.4537910000000  0.5237140000000  0.5434920000000 1.0
C      1  0.4332700000000  0.4861750000000  0.4581090000000 1.0
C      1  0.4347350000000  0.5123370000000  0.4666620000000 1.0
C      1  0.5515420000000  0.5383120000000  0.5388270000000 1.0
C      1  0.5556540000000  0.4756660000000  0.5237230000000 1.0
C      1  0.4723390000000  0.4228630000000  0.5055330000000 1.0
C      1  0.4704500000000  0.5690320000000  0.5035120000000 1.0
C      1  0.5177590000000  0.4794770000000  0.5627070000000 1.0
C      1  0.5131120000000  0.5084900000000  0.5667620000000 1.0
C      1  0.5232950000000  0.4762410000000  0.4724660000000 1.0
C      1  0.5248380000000  0.5277600000000  0.4755350000000 1.0
C      1  0.5133850000000  0.5155760000000  0.4211810000000 1.0
C      1  0.5004150000000  0.4886610000000  0.4271160000000 1.0
C      1  0.5372230000000  0.5600960000000  0.4955380000000 1.0
C      1  0.5277990000000  0.4433600000000  0.5095760000000 1.0
C      1  0.4762710000000  0.4610900000000  0.5350590000000 1.0
C      1  0.4818130000000  0.5259270000000  0.5264690000000 1.0
C      1  0.4921790000000  0.4840150000000  0.4597780000000 1.0
C      1  0.4931700000000  0.5161880000000  0.4708720000000 1.0
C      1  0.4610370000000  0.5218090000000  0.4612630000000 1.0
C      1  0.4583950000000  0.4744400000000  0.4581390000000 1.0
C      1  0.4842030000000  0.5759750000000  0.4802410000000 1.0
C      1  0.4895420000000  0.4252270000000  0.4792610000000 1.0
C      1  0.4895320000000  0.4501520000000  0.4615870000000 1.0
C      1  0.4885950000000  0.5498230000000  0.4647910000000 1.0
C      1  0.5520920000000  0.4805260000000  0.4900720000000 1.0
C      1  0.5522680000000  0.5145910000000  0.4915520000000 1.0
C      1  0.5259590000000  0.4390590000000  0.5376430000000 1.0
C      1  0.5387270000000  0.5633610000000  0.5252910000000 1.0
C      1  0.4865430000000  0.4778200000000  0.5083380000000 1.0
C      1  0.4828470000000  0.5085240000000  0.5021430000000 1.0
C      1  0.4794290000000  0.4323570000000  0.5311950000000 1.0
C      1  0.4895980000000  0.5553190000000  0.5216940000000 1.0
C      1  0.4556560000000  0.5498600000000  0.4717010000000 1.0
C      1  0.4581900000000  0.4447110000000  0.4638760000000 1.0
C      1  0.5293450000000  0.5193180000000  0.5239750000000 1.0
C      1  0.5286600000000  0.4935990000000  0.5193460000000 1.0
C      1  0.4350430000000  0.5417130000000  0.5320020000000 1.0
C      1  0.4532560000000  0.4836040000000  0.5121910000000 1.0
END
