TITL C-1154808-8168-272 0.00125266105372101 125000 -334.313052350048 0 0 60 (C1) n - 1
REM
REM in /home/nfs/bkarasulu/CARBON/AIRSS/Generating-Clusters/AIREBO/Higher-Symm/Only-C60
REM
REM
REM
REM
REM
REM ./C.cell (28575a23ae977d3b5fae324c64b13b57)
REM
REM compiler GCC version 9.2.1 20190827 (Red Hat 9.2.1-1)
REM options -cpp -mtune=generic -march=x86-64 -g -O0 -fpre-include=/usr/include/finclude/math-vector-fortran.h
REM seed -689585029 -179114055 -1785257100 1950503903 2117996460 -989860701 247057045 -1825979461 -1036050034 -1601586019 1721948722 1721319201 1725524192 1940254657 782198221 -953655899 -2130356850 -654916009 -1819876403 -890941518 -2127959566 -1902825944 -572478450 1042339396 1368917850 -1624122723 -1161219959 -785480282 -1475774524 -1722312912 -1809088086 362111831 -1040673223
REM
CELL 1.54180   50.00000   50.00000   50.00000   90.00000   90.00000   90.00000
LATT -1
SFAC C  
C      1  0.5503570000000  0.5126500000000  0.4572520000000 1.0
C      1  0.5505570000000  0.4558210000000  0.5100900000000 1.0
C      1  0.5515560000000  0.5296950000000  0.5310610000000 1.0
C      1  0.4506470000000  0.5011970000000  0.4478230000000 1.0
C      1  0.4495410000000  0.4491100000000  0.5239230000000 1.0
C      1  0.4492770000000  0.5447790000000  0.5274890000000 1.0
C      1  0.5259470000000  0.4478320000000  0.5240190000000 1.0
C      1  0.5255830000000  0.5421420000000  0.5300270000000 1.0
C      1  0.5249900000000  0.5080270000000  0.4421570000000 1.0
C      1  0.4773140000000  0.4400930000000  0.5326510000000 1.0
C      1  0.4768710000000  0.5554920000000  0.5342080000000 1.0
C      1  0.4770250000000  0.5025720000000  0.4331790000000 1.0
C      1  0.5657710000000  0.5302160000000  0.5027680000000 1.0
C      1  0.5580560000000  0.4852210000000  0.4694810000000 1.0
C      1  0.5640820000000  0.4798310000000  0.5268910000000 1.0
C      1  0.4394030000000  0.5467920000000  0.4728360000000 1.0
C      1  0.4440040000000  0.4553810000000  0.4765990000000 1.0
C      1  0.4375590000000  0.4992430000000  0.5523680000000 1.0
C      1  0.4605410000000  0.5586040000000  0.4979110000000 1.0
C      1  0.4636710000000  0.4695150000000  0.4511470000000 1.0
C      1  0.4592560000000  0.4723430000000  0.5477330000000 1.0
C      1  0.5229000000000  0.5589260000000  0.5036530000000 1.0
C      1  0.5247340000000  0.4755580000000  0.4455480000000 1.0
C      1  0.5261570000000  0.4654400000000  0.5505120000000 1.0
C      1  0.4817490000000  0.4745400000000  0.4227880000000 1.0
C      1  0.4803940000000  0.4492500000000  0.5610200000000 1.0
C      1  0.4806900000000  0.5791330000000  0.5160470000000 1.0
C      1  0.5074800000000  0.4662270000000  0.4214370000000 1.0
C      1  0.5053760000000  0.4536140000000  0.5703440000000 1.0
C      1  0.5060110000000  0.5839830000000  0.5080230000000 1.0
C      1  0.5310050000000  0.4873490000000  0.5244860000000 1.0
C      1  0.5161450000000  0.5268860000000  0.4943730000000 1.0
C      1  0.5250790000000  0.4888330000000  0.4769810000000 1.0
C      1  0.4595640000000  0.4988650000000  0.5264490000000 1.0
C      1  0.4638660000000  0.5270200000000  0.4857540000000 1.0
C      1  0.4653720000000  0.4787290000000  0.4838340000000 1.0
C      1  0.4344250000000  0.5261500000000  0.5413180000000 1.0
C      1  0.4358620000000  0.5222110000000  0.4576120000000 1.0
C      1  0.4367500000000  0.4429220000000  0.4996270000000 1.0
C      1  0.5583190000000  0.5059010000000  0.5465220000000 1.0
C      1  0.5544570000000  0.5356320000000  0.4740990000000 1.0
C      1  0.5503780000000  0.4584700000000  0.4821770000000 1.0
C      1  0.4920480000000  0.4558490000000  0.4649970000000 1.0
C      1  0.4867130000000  0.4913540000000  0.5548220000000 1.0
C      1  0.4865800000000  0.5583710000000  0.4757000000000 1.0
C      1  0.5257600000000  0.4502580000000  0.4665090000000 1.0
C      1  0.5374200000000  0.4943620000000  0.5632390000000 1.0
C      1  0.5359460000000  0.5565380000000  0.4745910000000 1.0
C      1  0.4887570000000  0.5088850000000  0.5290220000000 1.0
C      1  0.4923710000000  0.5271950000000  0.4726810000000 1.0
C      1  0.4920480000000  0.4668880000000  0.4957050000000 1.0
C      1  0.5098120000000  0.5709280000000  0.4678400000000 1.0
C      1  0.5034860000000  0.4258850000000  0.4586480000000 1.0
C      1  0.5080890000000  0.4945770000000  0.5710330000000 1.0
C      1  0.4983760000000  0.5163370000000  0.4458170000000 1.0
C      1  0.4979040000000  0.5364630000000  0.5357580000000 1.0
C      1  0.4989730000000  0.4461150000000  0.5154500000000 1.0
C      1  0.4554700000000  0.5017950000000  0.4977080000000 1.0
C      1  0.5431670000000  0.5068630000000  0.4994320000000 1.0
C      1  0.5055610000000  0.4956420000000  0.5046060000000 1.0
END
