TITL C-1154828-9214-120 1.3008128230006e-07 125000 -379.129537796051 0 0 60 (Td) n - 1
REM
REM in /home/nfs/bkarasulu/CARBON/AIRSS/Generating-Clusters/AIREBO/Higher-Symm/Only-C60
REM
REM
REM
REM
REM
REM ./C.cell (28575a23ae977d3b5fae324c64b13b57)
REM
REM compiler GCC version 9.2.1 20190827 (Red Hat 9.2.1-1)
REM options -cpp -mtune=generic -march=x86-64 -g -O0 -fpre-include=/usr/include/finclude/math-vector-fortran.h
REM seed 610204889 1257941907 -1910999287 419255610 1570842024 -2093784016 585718491 -273051950 -194120171 1799348991 1955133017 561757197 -879698056 -1608199783 404987901 -1547795762 834741425 424986612 75233052 -475748736 88519350 -2063186007 1173429573 -1985191248 -1532625317 502746547 -544630266 2072847438 257534044 1254306404 588961342 1900539800 1528605161
REM
CELL 1.54180   50.00000   50.00000   50.00000   90.00000   90.00000   90.00000
LATT -1
SFAC C  
C      1  0.5772290000000  0.4612280000000  0.5191420000000 1.0
C      1  0.5191330000000  0.5772270000000  0.4612190000000 1.0
C      1  0.4612160000000  0.5191370000000  0.5772240000000 1.0
C      1  0.5772440000000  0.5387580000000  0.4808910000000 1.0
C      1  0.4227630000000  0.5387800000000  0.5190930000000 1.0
C      1  0.4227640000000  0.4612340000000  0.4808740000000 1.0
C      1  0.5191020000000  0.4227700000000  0.5387890000000 1.0
C      1  0.4808840000000  0.4227570000000  0.4612430000000 1.0
C      1  0.4808810000000  0.5772460000000  0.5387490000000 1.0
C      1  0.4612460000000  0.4808700000000  0.4227590000000 1.0
C      1  0.5387510000000  0.4808950000000  0.5772490000000 1.0
C      1  0.5387880000000  0.5190980000000  0.4227680000000 1.0
C      1  0.5772470000000  0.5191030000000  0.4612440000000 1.0
C      1  0.5190970000000  0.4612450000000  0.5772490000000 1.0
C      1  0.4612330000000  0.5772440000000  0.5190930000000 1.0
C      1  0.5772270000000  0.4808840000000  0.5387900000000 1.0
C      1  0.4227570000000  0.5191320000000  0.5387480000000 1.0
C      1  0.4227700000000  0.4808810000000  0.4612180000000 1.0
C      1  0.5191380000000  0.5387520000000  0.4227590000000 1.0
C      1  0.4808960000000  0.4612160000000  0.4227670000000 1.0
C      1  0.4808690000000  0.5387870000000  0.5772250000000 1.0
C      1  0.4612280000000  0.4227630000000  0.4808900000000 1.0
C      1  0.5387800000000  0.5772290000000  0.4808750000000 1.0
C      1  0.5387580000000  0.4227640000000  0.5191420000000 1.0
C      1  0.4630150000000  0.4993640000000  0.5567130000000 1.0
C      1  0.5567170000000  0.4630220000000  0.4993690000000 1.0
C      1  0.4993620000000  0.5567130000000  0.4630150000000 1.0
C      1  0.4630390000000  0.5006420000000  0.4432710000000 1.0
C      1  0.5369610000000  0.5006590000000  0.5567280000000 1.0
C      1  0.5369850000000  0.4993340000000  0.4432880000000 1.0
C      1  0.5567240000000  0.5369680000000  0.5006560000000 1.0
C      1  0.4432830000000  0.5369780000000  0.4993290000000 1.0
C      1  0.4432760000000  0.4630320000000  0.5006460000000 1.0
C      1  0.4993360000000  0.4432870000000  0.5369850000000 1.0
C      1  0.5006540000000  0.4432720000000  0.4630390000000 1.0
C      1  0.5006480000000  0.5567280000000  0.5369610000000 1.0
C      1  0.4630320000000  0.5567240000000  0.4993290000000 1.0
C      1  0.5567290000000  0.4993360000000  0.4630400000000 1.0
C      1  0.4993340000000  0.4630390000000  0.5567280000000 1.0
C      1  0.4630220000000  0.4432830000000  0.5006550000000 1.0
C      1  0.5369780000000  0.5567170000000  0.5006470000000 1.0
C      1  0.5369680000000  0.4432760000000  0.4993690000000 1.0
C      1  0.5567130000000  0.5006540000000  0.5369850000000 1.0
C      1  0.4432710000000  0.4993620000000  0.5369610000000 1.0
C      1  0.4432880000000  0.5006480000000  0.4630150000000 1.0
C      1  0.4993650000000  0.5369610000000  0.4432720000000 1.0
C      1  0.5006600000000  0.4630150000000  0.4432870000000 1.0
C      1  0.5006420000000  0.5369850000000  0.5567130000000 1.0
C      1  0.4897340000000  0.4897590000000  0.5530250000000 1.0
C      1  0.5530270000000  0.4897400000000  0.4897610000000 1.0
C      1  0.4897540000000  0.5530240000000  0.4897340000000 1.0
C      1  0.4897590000000  0.5102430000000  0.4469700000000 1.0
C      1  0.5102420000000  0.5102630000000  0.5530250000000 1.0
C      1  0.5102640000000  0.4897350000000  0.4469790000000 1.0
C      1  0.5530240000000  0.5102510000000  0.5102620000000 1.0
C      1  0.4469780000000  0.5102560000000  0.4897330000000 1.0
C      1  0.4469720000000  0.4897540000000  0.5102440000000 1.0
C      1  0.4897400000000  0.4469780000000  0.5102620000000 1.0
C      1  0.5102510000000  0.4469720000000  0.4897600000000 1.0
C      1  0.5102560000000  0.5530270000000  0.5102440000000 1.0
END
