TITL C-1154801-8518-546 0.0014254078205917 125000 -313.493396517458 0 0 60 (C1) n - 1
REM
REM in /home/nfs/bkarasulu/CARBON/AIRSS/Generating-Clusters/AIREBO/Higher-Symm/Only-C60
REM
REM
REM
REM
REM
REM ./C.cell (28575a23ae977d3b5fae324c64b13b57)
REM
REM compiler GCC version 9.2.1 20190827 (Red Hat 9.2.1-1)
REM options -cpp -mtune=generic -march=x86-64 -g -O0 -fpre-include=/usr/include/finclude/math-vector-fortran.h
REM seed -1707977519 -1913757385 -430893145 257653203 792098057 -1725691391 652059206 -1168059244 21606558 1358214736 -1201623568 -549897314 -858890177 484573403 -182051469 1457959990 167357726 -352019536 -1675763597 -1375201578 -385592082 1435590731 -540389321 890466975 1422171438 1398732148 -1190202392 547556964 -676452497 680177377 -663621797 1989568647 164999912
REM
CELL 1.54180   50.00000   50.00000   50.00000   90.00000   90.00000   90.00000
LATT -1
SFAC C  
C      1  0.4799370000000  0.4591520000000  0.4625470000000 1.0
C      1  0.5156850000000  0.5443430000000  0.4689700000000 1.0
C      1  0.5192310000000  0.4591470000000  0.4643390000000 1.0
C      1  0.4825110000000  0.5385900000000  0.4677050000000 1.0
C      1  0.5534290000000  0.5446770000000  0.5363860000000 1.0
C      1  0.4492560000000  0.4522070000000  0.5374200000000 1.0
C      1  0.4505520000000  0.5345930000000  0.5271960000000 1.0
C      1  0.5441360000000  0.4550480000000  0.5342780000000 1.0
C      1  0.4320890000000  0.5240320000000  0.5088870000000 1.0
C      1  0.5624340000000  0.4659670000000  0.5153020000000 1.0
C      1  0.5683230000000  0.5281460000000  0.5148030000000 1.0
C      1  0.4323640000000  0.4631780000000  0.5133570000000 1.0
C      1  0.5449420000000  0.5383240000000  0.4695940000000 1.0
C      1  0.4530170000000  0.4601180000000  0.4668910000000 1.0
C      1  0.4534690000000  0.5356870000000  0.4648670000000 1.0
C      1  0.5456840000000  0.4636710000000  0.4680880000000 1.0
C      1  0.5493670000000  0.5182120000000  0.4465440000000 1.0
C      1  0.4392550000000  0.4840440000000  0.4536260000000 1.0
C      1  0.4501560000000  0.5128850000000  0.4441850000000 1.0
C      1  0.5561880000000  0.4869150000000  0.4510190000000 1.0
C      1  0.4734010000000  0.5465760000000  0.5493420000000 1.0
C      1  0.5111850000000  0.4555290000000  0.5427120000000 1.0
C      1  0.5243500000000  0.5488270000000  0.5522320000000 1.0
C      1  0.4789420000000  0.4540640000000  0.5538970000000 1.0
C      1  0.4656610000000  0.5141700000000  0.5575450000000 1.0
C      1  0.5331820000000  0.4792150000000  0.5537800000000 1.0
C      1  0.5347770000000  0.5135670000000  0.5523210000000 1.0
C      1  0.4644520000000  0.4847030000000  0.5529090000000 1.0
C      1  0.5763940000000  0.4770180000000  0.4310190000000 1.0
C      1  0.4467420000000  0.5188000000000  0.4151580000000 1.0
C      1  0.4116680000000  0.4784580000000  0.4433250000000 1.0
C      1  0.5583700000000  0.5288040000000  0.4200680000000 1.0
C      1  0.4376010000000  0.4500710000000  0.4884030000000 1.0
C      1  0.5637010000000  0.5393860000000  0.4887780000000 1.0
C      1  0.5618320000000  0.4547900000000  0.4891950000000 1.0
C      1  0.4339080000000  0.5369390000000  0.4835430000000 1.0
C      1  0.5241130000000  0.4870790000000  0.5219670000000 1.0
C      1  0.4783770000000  0.5150820000000  0.5260110000000 1.0
C      1  0.4699270000000  0.4744060000000  0.5209710000000 1.0
C      1  0.5289590000000  0.5264430000000  0.5213880000000 1.0
C      1  0.4828590000000  0.4209850000000  0.5137390000000 1.0
C      1  0.5007210000000  0.5712790000000  0.5159980000000 1.0
C      1  0.4619420000000  0.4985920000000  0.5012070000000 1.0
C      1  0.5395340000000  0.5060970000000  0.4983690000000 1.0
C      1  0.4317790000000  0.4922470000000  0.5111460000000 1.0
C      1  0.5655210000000  0.4948420000000  0.5150860000000 1.0
C      1  0.4990820000000  0.5420770000000  0.5258710000000 1.0
C      1  0.4919970000000  0.4497390000000  0.5164950000000 1.0
C      1  0.5017360000000  0.5310910000000  0.4406770000000 1.0
C      1  0.5023680000000  0.4711340000000  0.4399020000000 1.0
C      1  0.5308370000000  0.5009110000000  0.4692080000000 1.0
C      1  0.4652370000000  0.4979870000000  0.4707740000000 1.0
C      1  0.4995580000000  0.4632310000000  0.4896270000000 1.0
C      1  0.4992950000000  0.5284270000000  0.4947120000000 1.0
C      1  0.5003180000000  0.4976030000000  0.5410430000000 1.0
C      1  0.5015880000000  0.4950030000000  0.5005210000000 1.0
C      1  0.5048440000000  0.5042480000000  0.5967190000000 1.0
C      1  0.4969320000000  0.4974170000000  0.4694360000000 1.0
C      1  0.5084910000000  0.5052200000000  0.5705430000000 1.0
C      1  0.5022710000000  0.5020820000000  0.4396690000000 1.0
END
