TITL C-1154825-9328-170 6.73418300699141e-05 125000 -329.595322626591 0 0 60 (Ci) n - 1
REM
REM in /home/nfs/bkarasulu/CARBON/AIRSS/Generating-Clusters/AIREBO/Higher-Symm/Only-C60
REM
REM
REM
REM
REM
REM ./C.cell (28575a23ae977d3b5fae324c64b13b57)
REM
REM compiler GCC version 9.2.1 20190827 (Red Hat 9.2.1-1)
REM options -cpp -mtune=generic -march=x86-64 -g -O0 -fpre-include=/usr/include/finclude/math-vector-fortran.h
REM seed 133797258 -501198879 -1780811913 1375501277 1164444639 1126292057 1357450126 -1748142411 -1722270809 1184281819 -543188818 -1547555066 -1986264853 795734833 1450016380 -1890623225 460977993 -423124089 1892254782 1898273412 -1257556363 -871725658 1020377892 -77059999 1580786247 -1831389437 -435012989 -317185380 -1357092346 267481137 -1073211704 -1243555146 1438195627
REM
CELL 1.54180   50.00000   50.00000   50.00000   90.00000   90.00000   90.00000
LATT -1
SFAC C  
C      1  0.4959860000000  0.4551080000000  0.5287950000000 1.0
C      1  0.5094430000000  0.4531340000000  0.4771700000000 1.0
C      1  0.4911560000000  0.4972640000000  0.4539920000000 1.0
C      1  0.5040140000000  0.5448920000000  0.4712050000000 1.0
C      1  0.4905570000000  0.5468660000000  0.5228300000000 1.0
C      1  0.5088440000000  0.5027360000000  0.5460080000000 1.0
C      1  0.4670620000000  0.4470360000000  0.5201150000000 1.0
C      1  0.5333720000000  0.4502490000000  0.4591480000000 1.0
C      1  0.4621360000000  0.5115490000000  0.4397970000000 1.0
C      1  0.5329380000000  0.5529640000000  0.4798850000000 1.0
C      1  0.4666280000000  0.5497510000000  0.5408520000000 1.0
C      1  0.5378640000000  0.4884510000000  0.5602030000000 1.0
C      1  0.5418990000000  0.4763460000000  0.4770940000000 1.0
C      1  0.4634180000000  0.5113270000000  0.4727490000000 1.0
C      1  0.5312010000000  0.5244080000000  0.4903530000000 1.0
C      1  0.4581010000000  0.5236540000000  0.5229060000000 1.0
C      1  0.5365820000000  0.4886730000000  0.5272510000000 1.0
C      1  0.4687990000000  0.4755920000000  0.5096470000000 1.0
C      1  0.5349750000000  0.5195760000000  0.5186270000000 1.0
C      1  0.4579310000000  0.4953460000000  0.5308480000000 1.0
C      1  0.5404690000000  0.4675960000000  0.5075650000000 1.0
C      1  0.4650250000000  0.4804240000000  0.4813730000000 1.0
C      1  0.5420690000000  0.5046540000000  0.4691520000000 1.0
C      1  0.4595310000000  0.5324040000000  0.4924350000000 1.0
C      1  0.4831190000000  0.5531300000000  0.4919100000000 1.0
C      1  0.5139170000000  0.5341960000000  0.5372120000000 1.0
C      1  0.4853920000000  0.4826110000000  0.5457490000000 1.0
C      1  0.5168810000000  0.4468700000000  0.5080900000000 1.0
C      1  0.4860830000000  0.4658040000000  0.4627880000000 1.0
C      1  0.5146080000000  0.5173890000000  0.4542510000000 1.0
C      1  0.5598610000000  0.5607020000000  0.4772400000000 1.0
C      1  0.4357310000000  0.5470070000000  0.5402570000000 1.0
C      1  0.5649470000000  0.4751750000000  0.5732630000000 1.0
C      1  0.4401390000000  0.4392980000000  0.5227600000000 1.0
C      1  0.5642690000000  0.4529930000000  0.4597430000000 1.0
C      1  0.4350530000000  0.5248250000000  0.4267370000000 1.0
C      1  0.5882690000000  0.5161510000000  0.5005000000000 1.0
C      1  0.4095420000000  0.5063530000000  0.5266040000000 1.0
C      1  0.5832050000000  0.4894260000000  0.5216080000000 1.0
C      1  0.4117310000000  0.4838490000000  0.4995000000000 1.0
C      1  0.5904580000000  0.4936470000000  0.4733960000000 1.0
C      1  0.4167950000000  0.5105740000000  0.4783920000000 1.0
C      1  0.4747400000000  0.5798540000000  0.4879460000000 1.0
C      1  0.5249070000000  0.5508470000000  0.5569890000000 1.0
C      1  0.4784270000000  0.4755010000000  0.5726370000000 1.0
C      1  0.5252600000000  0.4201460000000  0.5120540000000 1.0
C      1  0.4750930000000  0.4491530000000  0.4430110000000 1.0
C      1  0.5215730000000  0.5244990000000  0.4273630000000 1.0
C      1  0.5809140000000  0.4677510000000  0.4788870000000 1.0
C      1  0.4306170000000  0.5015170000000  0.4485960000000 1.0
C      1  0.5781900000000  0.5395470000000  0.4779710000000 1.0
C      1  0.4190860000000  0.5322490000000  0.5211130000000 1.0
C      1  0.5693830000000  0.4984830000000  0.5514040000000 1.0
C      1  0.4218100000000  0.4604530000000  0.5220290000000 1.0
C      1  0.5708970000000  0.5138660000000  0.4647400000000 1.0
C      1  0.4282650000000  0.5333010000000  0.4946210000000 1.0
C      1  0.5651690000000  0.5175320000000  0.5251770000000 1.0
C      1  0.4291030000000  0.4861340000000  0.5352600000000 1.0
C      1  0.5717350000000  0.4666990000000  0.5053790000000 1.0
C      1  0.4348310000000  0.4824680000000  0.4748230000000 1.0
END
