TITL C-1154824-75-579 7.96058238594029e-05 125000 -314.713773597107 0 0 60 (C1) n - 1
REM
REM in /home/nfs/bkarasulu/CARBON/AIRSS/Generating-Clusters/AIREBO/Higher-Symm/Only-C60
REM
REM
REM
REM
REM
REM ./C.cell (28575a23ae977d3b5fae324c64b13b57)
REM
REM compiler GCC version 9.2.1 20190827 (Red Hat 9.2.1-1)
REM options -cpp -mtune=generic -march=x86-64 -g -O0 -fpre-include=/usr/include/finclude/math-vector-fortran.h
REM seed 271570066 -1513362270 1098557536 1789391163 365607499 1504177706 64251402 -1530901836 -2072094095 1119084831 1884130208 -95012254 -2001022656 -1798183264 -208547704 -1275856380 1256999566 1259738368 1855223766 1985168108 -586940031 1968780937 -1038666013 -204419346 1869974608 1862339922 1180658044 2020396410 -437410450 -1875488035 1454000552 -1264064563 -196471503
REM
CELL 1.54180   50.00000   50.00000   50.00000   90.00000   90.00000   90.00000
LATT -1
SFAC C  
C      1  0.4658600000000  0.4880220000000  0.5439270000000 1.0
C      1  0.5115290000000  0.4671860000000  0.4565350000000 1.0
C      1  0.5350510000000  0.5120560000000  0.5435460000000 1.0
C      1  0.4884870000000  0.5333440000000  0.4560510000000 1.0
C      1  0.4559740000000  0.5419500000000  0.4475170000000 1.0
C      1  0.4575470000000  0.4553380000000  0.5519740000000 1.0
C      1  0.5440170000000  0.4586910000000  0.4480030000000 1.0
C      1  0.5428830000000  0.5453590000000  0.5494290000000 1.0
C      1  0.5318730000000  0.4505370000000  0.4780990000000 1.0
C      1  0.5590930000000  0.5278370000000  0.5260260000000 1.0
C      1  0.4678190000000  0.5490130000000  0.4780370000000 1.0
C      1  0.4497390000000  0.4678020000000  0.5218510000000 1.0
C      1  0.5369400000000  0.5162240000000  0.4361510000000 1.0
C      1  0.4848580000000  0.5359350000000  0.5627690000000 1.0
C      1  0.4632860000000  0.4838320000000  0.4364080000000 1.0
C      1  0.5156290000000  0.4635640000000  0.5636160000000 1.0
C      1  0.4698330000000  0.5068340000000  0.4598980000000 1.0
C      1  0.4926060000000  0.4699590000000  0.5402880000000 1.0
C      1  0.5300840000000  0.4938350000000  0.4602890000000 1.0
C      1  0.5079310000000  0.5291520000000  0.5397640000000 1.0
C      1  0.4412890000000  0.4765160000000  0.4937760000000 1.0
C      1  0.5234470000000  0.4417650000000  0.5060850000000 1.0
C      1  0.5577780000000  0.5246270000000  0.4962310000000 1.0
C      1  0.4759850000000  0.5568500000000  0.5063780000000 1.0
C      1  0.5398830000000  0.4685680000000  0.5151580000000 1.0
C      1  0.5320020000000  0.5396840000000  0.4848590000000 1.0
C      1  0.4578800000000  0.5313070000000  0.5156940000000 1.0
C      1  0.4679660000000  0.4594880000000  0.4849880000000 1.0
C      1  0.5071860000000  0.5183790000000  0.4904910000000 1.0
C      1  0.4810520000000  0.5082920000000  0.5092230000000 1.0
C      1  0.4913500000000  0.4817320000000  0.4912970000000 1.0
C      1  0.5176230000000  0.4921990000000  0.5091880000000 1.0
C      1  0.5323380000000  0.5470200000000  0.4291790000000 1.0
C      1  0.4545750000000  0.5316960000000  0.5718310000000 1.0
C      1  0.4680320000000  0.4530870000000  0.4293740000000 1.0
C      1  0.5463640000000  0.4679160000000  0.5707990000000 1.0
C      1  0.4823950000000  0.4638700000000  0.4566660000000 1.0
C      1  0.5358910000000  0.4825940000000  0.5435370000000 1.0
C      1  0.5176890000000  0.5361380000000  0.4562750000000 1.0
C      1  0.4631870000000  0.5172060000000  0.5438750000000 1.0
C      1  0.5546490000000  0.4886540000000  0.4353750000000 1.0
C      1  0.5127510000000  0.5541870000000  0.5637030000000 1.0
C      1  0.4457810000000  0.5117560000000  0.4348460000000 1.0
C      1  0.4878300000000  0.4455880000000  0.5649100000000 1.0
C      1  0.5015110000000  0.4197680000000  0.5163810000000 1.0
C      1  0.5797850000000  0.5028890000000  0.4830870000000 1.0
C      1  0.4973530000000  0.5798620000000  0.5154270000000 1.0
C      1  0.4194300000000  0.4982730000000  0.4824440000000 1.0
C      1  0.4734810000000  0.4339250000000  0.5025770000000 1.0
C      1  0.5658940000000  0.4751600000000  0.4980970000000 1.0
C      1  0.5253890000000  0.5660860000000  0.5012670000000 1.0
C      1  0.4330650000000  0.5261470000000  0.4970840000000 1.0
C      1  0.5037980000000  0.5409160000000  0.5130150000000 1.0
C      1  0.4583430000000  0.5037800000000  0.4868190000000 1.0
C      1  0.4960730000000  0.4588030000000  0.5133090000000 1.0
C      1  0.5409400000000  0.4973030000000  0.4875170000000 1.0
C      1  0.5670100000000  0.4775070000000  0.4645410000000 1.0
C      1  0.5227580000000  0.5684760000000  0.5349340000000 1.0
C      1  0.4324230000000  0.5233100000000  0.4634600000000 1.0
C      1  0.4767850000000  0.4322090000000  0.5361270000000 1.0
END
