TITL C-1154829-9094-18 -0.00223113363073405 125000 -323.973839018983 0 0 60 (C1) n - 1
REM
REM in /home/nfs/bkarasulu/CARBON/AIRSS/Generating-Clusters/AIREBO/Higher-Symm/Only-C60
REM
REM
REM
REM
REM
REM ./C.cell (28575a23ae977d3b5fae324c64b13b57)
REM
REM compiler GCC version 9.2.1 20190827 (Red Hat 9.2.1-1)
REM options -cpp -mtune=generic -march=x86-64 -g -O0 -fpre-include=/usr/include/finclude/math-vector-fortran.h
REM seed 803116356 2017697390 2012570340 -1842241491 2108475919 1342519082 1678975999 129321751 -1506907673 -1590065126 1742126524 281550674 -81831419 19105631 517227491 1349662908 1445577056 -1042728053 77280440 -239717372 -12608561 -1714245198 358851850 -1405074734 75009048 -523537792 -1032955058 1971573850 -2049366576 2067702300 -1077414717 1489138258 -709754915
REM
CELL 1.54180   50.00000   50.00000   50.00000   90.00000   90.00000   90.00000
LATT -1
SFAC C  
C      1  0.4949910000000  0.5656700000000  0.5385010000000 1.0
C      1  0.4928580000000  0.4395520000000  0.5366440000000 1.0
C      1  0.5581880000000  0.5212830000000  0.4649480000000 1.0
C      1  0.4438080000000  0.4809600000000  0.4735510000000 1.0
C      1  0.4781960000000  0.4891900000000  0.5093870000000 1.0
C      1  0.5095550000000  0.5024020000000  0.5082920000000 1.0
C      1  0.4938800000000  0.5563960000000  0.4547430000000 1.0
C      1  0.5065170000000  0.4492170000000  0.4559110000000 1.0
C      1  0.4963510000000  0.4786590000000  0.5355110000000 1.0
C      1  0.5149830000000  0.5225360000000  0.5325370000000 1.0
C      1  0.4563260000000  0.4997800000000  0.4479540000000 1.0
C      1  0.5432300000000  0.5021220000000  0.4406770000000 1.0
C      1  0.5400540000000  0.5415490000000  0.4509180000000 1.0
C      1  0.4577150000000  0.4607840000000  0.4541090000000 1.0
C      1  0.5102390000000  0.4715470000000  0.4780750000000 1.0
C      1  0.4940020000000  0.5312680000000  0.4778290000000 1.0
C      1  0.5397780000000  0.4698700000000  0.5287180000000 1.0
C      1  0.4568420000000  0.5328290000000  0.5233190000000 1.0
C      1  0.4717950000000  0.5103440000000  0.4763310000000 1.0
C      1  0.5320010000000  0.4912380000000  0.4708740000000 1.0
C      1  0.5005650000000  0.4304020000000  0.4986000000000 1.0
C      1  0.5026850000000  0.5743310000000  0.4988420000000 1.0
C      1  0.5631210000000  0.5198000000000  0.5390650000000 1.0
C      1  0.4412420000000  0.4829860000000  0.5294670000000 1.0
C      1  0.5090820000000  0.4594900000000  0.5593080000000 1.0
C      1  0.4923000000000  0.5366210000000  0.5476870000000 1.0
C      1  0.4653240000000  0.4446980000000  0.4301560000000 1.0
C      1  0.5228060000000  0.5595880000000  0.4378570000000 1.0
C      1  0.4730990000000  0.5547930000000  0.5172070000000 1.0
C      1  0.5254800000000  0.4424120000000  0.5273490000000 1.0
C      1  0.4223970000000  0.5064670000000  0.5033200000000 1.0
C      1  0.5730720000000  0.4831630000000  0.5111620000000 1.0
C      1  0.5104480000000  0.5093500000000  0.4326760000000 1.0
C      1  0.4866240000000  0.4904670000000  0.4345990000000 1.0
C      1  0.5561640000000  0.5205990000000  0.4931450000000 1.0
C      1  0.4433660000000  0.4725730000000  0.5001570000000 1.0
C      1  0.5020520000000  0.5415680000000  0.5074390000000 1.0
C      1  0.5071130000000  0.4624940000000  0.5075210000000 1.0
C      1  0.5182920000000  0.5204950000000  0.4637510000000 1.0
C      1  0.4830370000000  0.4797530000000  0.4665920000000 1.0
C      1  0.5412560000000  0.4915120000000  0.5025180000000 1.0
C      1  0.4533610000000  0.5112470000000  0.5021170000000 1.0
C      1  0.5078530000000  0.4254740000000  0.4716800000000 1.0
C      1  0.4902390000000  0.5792960000000  0.4755640000000 1.0
C      1  0.4920950000000  0.4583710000000  0.4340460000000 1.0
C      1  0.5008830000000  0.5394840000000  0.4260060000000 1.0
C      1  0.5342600000000  0.5245090000000  0.5784740000000 1.0
C      1  0.4633040000000  0.4814820000000  0.5744170000000 1.0
C      1  0.4798440000000  0.4189630000000  0.5162240000000 1.0
C      1  0.5211390000000  0.5726410000000  0.5238650000000 1.0
C      1  0.5808280000000  0.4982600000000  0.5333650000000 1.0
C      1  0.4141230000000  0.4971180000000  0.5305750000000 1.0
C      1  0.5474080000000  0.5626370000000  0.5210310000000 1.0
C      1  0.4523690000000  0.4279800000000  0.5116190000000 1.0
C      1  0.5363890000000  0.5126460000000  0.5529280000000 1.0
C      1  0.4669490000000  0.4907900000000  0.5476450000000 1.0
C      1  0.5592410000000  0.5370480000000  0.5164700000000 1.0
C      1  0.4687600000000  0.4573170000000  0.5168490000000 1.0
C      1  0.4682580000000  0.5216450000000  0.5465280000000 1.0
C      1  0.5318610000000  0.4823340000000  0.5533520000000 1.0
END
