TITL C-1154808-8168-14 -0.00309038760611448 125000 -301.557405629766 0 0 60 (C1) n - 1
REM
REM in /home/nfs/bkarasulu/CARBON/AIRSS/Generating-Clusters/AIREBO/Higher-Symm/Only-C60
REM
REM
REM
REM
REM
REM ./C.cell (28575a23ae977d3b5fae324c64b13b57)
REM
REM compiler GCC version 9.2.1 20190827 (Red Hat 9.2.1-1)
REM options -cpp -mtune=generic -march=x86-64 -g -O0 -fpre-include=/usr/include/finclude/math-vector-fortran.h
REM seed -1686432192 -1432141382 1857735451 -775782530 -44800954 -421345051 -1295910888 1094692941 2014788746 333917703 -76557817 1671869734 -349808463 -1525238380 -333475491 1771569874 731502478 -40110264 -1369873534 385866124 -1454317076 -910713882 -29060997 1381735756 800135134 -1524915010 -1768180663 1027697512 -938914942 -1931520904 -1040570270 973696067 -1245755148
REM
CELL 1.54180   50.00000   50.00000   50.00000   90.00000   90.00000   90.00000
LATT -1
SFAC C  
C      1  0.5452850000000  0.5333060000000  0.4520830000000 1.0
C      1  0.4424130000000  0.5392680000000  0.4553100000000 1.0
C      1  0.5091340000000  0.4372620000000  0.4515840000000 1.0
C      1  0.5595200000000  0.4793710000000  0.5038910000000 1.0
C      1  0.4893800000000  0.5616760000000  0.5040120000000 1.0
C      1  0.4545720000000  0.4612420000000  0.5002570000000 1.0
C      1  0.5344840000000  0.4835880000000  0.4423680000000 1.0
C      1  0.4922770000000  0.5292410000000  0.4446620000000 1.0
C      1  0.4711790000000  0.4831450000000  0.4410690000000 1.0
C      1  0.4475490000000  0.4996800000000  0.4563900000000 1.0
C      1  0.5200970000000  0.4617120000000  0.4342380000000 1.0
C      1  0.5178790000000  0.5309630000000  0.4342820000000 1.0
C      1  0.5591160000000  0.5292630000000  0.5407360000000 1.0
C      1  0.4456870000000  0.5370180000000  0.5421690000000 1.0
C      1  0.4941300000000  0.4353280000000  0.5404580000000 1.0
C      1  0.4755770000000  0.4739360000000  0.4688320000000 1.0
C      1  0.5409710000000  0.4860600000000  0.4691050000000 1.0
C      1  0.4906020000000  0.5393460000000  0.4708580000000 1.0
C      1  0.5246770000000  0.5075230000000  0.5139310000000 1.0
C      1  0.4814720000000  0.5182710000000  0.5146010000000 1.0
C      1  0.4959230000000  0.4743960000000  0.5142410000000 1.0
C      1  0.5652730000000  0.4955860000000  0.5397180000000 1.0
C      1  0.4717330000000  0.5599160000000  0.5416590000000 1.0
C      1  0.4616960000000  0.4470110000000  0.5367730000000 1.0
C      1  0.5124440000000  0.5782380000000  0.4961980000000 1.0
C      1  0.4282610000000  0.4669560000000  0.4875450000000 1.0
C      1  0.5635070000000  0.4508740000000  0.4973390000000 1.0
C      1  0.4761430000000  0.4465470000000  0.4704060000000 1.0
C      1  0.5621250000000  0.5035120000000  0.4724240000000 1.0
C      1  0.4655170000000  0.5512170000000  0.4737460000000 1.0
C      1  0.4977850000000  0.5295940000000  0.5422570000000 1.0
C      1  0.4762380000000  0.4848230000000  0.5400150000000 1.0
C      1  0.5243780000000  0.4875100000000  0.5415200000000 1.0
C      1  0.5354920000000  0.5534450000000  0.4993710000000 1.0
C      1  0.4402010000000  0.4987140000000  0.4899640000000 1.0
C      1  0.5303000000000  0.4436180000000  0.4981960000000 1.0
C      1  0.4641120000000  0.5222790000000  0.4391220000000 1.0
C      1  0.4884240000000  0.4584650000000  0.4342900000000 1.0
C      1  0.5398240000000  0.5086460000000  0.4301490000000 1.0
C      1  0.5076150000000  0.5333030000000  0.4996710000000 1.0
C      1  0.4721300000000  0.4905100000000  0.4983240000000 1.0
C      1  0.5259210000000  0.4773380000000  0.4983260000000 1.0
C      1  0.5290420000000  0.5650800000000  0.5306700000000 1.0
C      1  0.4311800000000  0.4949220000000  0.5225540000000 1.0
C      1  0.5407910000000  0.4433500000000  0.5301080000000 1.0
C      1  0.5031790000000  0.4337870000000  0.4849070000000 1.0
C      1  0.5558060000000  0.5335890000000  0.4844190000000 1.0
C      1  0.4412640000000  0.5327520000000  0.4887300000000 1.0
C      1  0.5535590000000  0.5561350000000  0.5440280000000 1.0
C      1  0.4246190000000  0.5189440000000  0.5369720000000 1.0
C      1  0.5208430000000  0.4264610000000  0.5430910000000 1.0
C      1  0.5031270000000  0.5600720000000  0.5414270000000 1.0
C      1  0.4468360000000  0.4749260000000  0.5367750000000 1.0
C      1  0.5489990000000  0.4687240000000  0.5408360000000 1.0
C      1  0.5239260000000  0.5164710000000  0.5527700000000 1.0
C      1  0.4738020000000  0.5128430000000  0.5533160000000 1.0
C      1  0.5007960000000  0.4707020000000  0.5535270000000 1.0
C      1  0.5581810000000  0.5125820000000  0.5111080000000 1.0
C      1  0.4609130000000  0.5452990000000  0.5129180000000 1.0
C      1  0.4820930000000  0.4436600000000  0.5097530000000 1.0
END
