TITL C-1154824-75-15 -7.48457203701863e-06 125000 -353.059875187348 0 0 60 (C1) n - 1
REM
REM in /home/nfs/bkarasulu/CARBON/AIRSS/Generating-Clusters/AIREBO/Higher-Symm/Only-C60
REM
REM
REM
REM
REM
REM ./C.cell (28575a23ae977d3b5fae324c64b13b57)
REM
REM compiler GCC version 9.2.1 20190827 (Red Hat 9.2.1-1)
REM options -cpp -mtune=generic -march=x86-64 -g -O0 -fpre-include=/usr/include/finclude/math-vector-fortran.h
REM seed -357491240 1329122615 -1030537772 -965669379 -236286385 1708837131 2081584843 -1584512158 539618594 1542540331 92198253 -1339716488 -426651275 -1763406810 -1313150804 975619727 -1922264994 -1272805892 -122109233 -1456362354 -205367264 -1393639836 -1517148115 1798550266 -822046568 -940313346 -232004991 56046441 539703076 1229214076 969886899 -1540316493 1937566802
REM
CELL 1.54180   50.00000   50.00000   50.00000   90.00000   90.00000   90.00000
LATT -1
SFAC C  
C      1  0.5720160000000  0.4857830000000  0.4893820000000 1.0
C      1  0.4773950000000  0.5711560000000  0.4870190000000 1.0
C      1  0.4492500000000  0.4441950000000  0.4836390000000 1.0
C      1  0.4206260000000  0.4854840000000  0.5071690000000 1.0
C      1  0.5257890000000  0.5784250000000  0.5088310000000 1.0
C      1  0.5549330000000  0.4386320000000  0.5118480000000 1.0
C      1  0.4190980000000  0.5164800000000  0.5108980000000 1.0
C      1  0.5274050000000  0.4241050000000  0.5091650000000 1.0
C      1  0.5520530000000  0.5617250000000  0.5061710000000 1.0
C      1  0.5736420000000  0.5154850000000  0.4846380000000 1.0
C      1  0.4756490000000  0.4301140000000  0.4871630000000 1.0
C      1  0.4520840000000  0.5552560000000  0.4905160000000 1.0
C      1  0.4763960000000  0.5137560000000  0.4717020000000 1.0
C      1  0.4998390000000  0.4726120000000  0.4712860000000 1.0
C      1  0.5238160000000  0.5135360000000  0.4703640000000 1.0
C      1  0.5333850000000  0.5316060000000  0.5447130000000 1.0
C      1  0.5096770000000  0.4572720000000  0.5456440000000 1.0
C      1  0.4573980000000  0.5107450000000  0.5464260000000 1.0
C      1  0.5310360000000  0.4701870000000  0.5464320000000 1.0
C      1  0.5115280000000  0.5435800000000  0.5455290000000 1.0
C      1  0.4571330000000  0.4858560000000  0.5446740000000 1.0
C      1  0.4761600000000  0.4864640000000  0.4705700000000 1.0
C      1  0.5002310000000  0.5273550000000  0.4709230000000 1.0
C      1  0.5235290000000  0.4861270000000  0.4718860000000 1.0
C      1  0.4770440000000  0.4283030000000  0.5177790000000 1.0
C      1  0.5725570000000  0.5157820000000  0.5153320000000 1.0
C      1  0.4497370000000  0.5551930000000  0.5211690000000 1.0
C      1  0.5233180000000  0.4281530000000  0.4785910000000 1.0
C      1  0.4264720000000  0.5150140000000  0.4813090000000 1.0
C      1  0.5505760000000  0.5561990000000  0.4754710000000 1.0
C      1  0.5245670000000  0.5709850000000  0.4791030000000 1.0
C      1  0.4259480000000  0.4852800000000  0.4763760000000 1.0
C      1  0.5491360000000  0.4434560000000  0.4821980000000 1.0
C      1  0.4769600000000  0.5698480000000  0.5177450000000 1.0
C      1  0.5730780000000  0.4850270000000  0.5200730000000 1.0
C      1  0.4506810000000  0.4446450000000  0.5143310000000 1.0
C      1  0.5522060000000  0.5278500000000  0.4674990000000 1.0
C      1  0.4497160000000  0.5310500000000  0.4726730000000 1.0
C      1  0.4981400000000  0.4408970000000  0.4703160000000 1.0
C      1  0.4369040000000  0.5316420000000  0.5324980000000 1.0
C      1  0.5598640000000  0.5390650000000  0.5276010000000 1.0
C      1  0.5035560000000  0.4298020000000  0.5296260000000 1.0
C      1  0.4371690000000  0.4668840000000  0.5275750000000 1.0
C      1  0.5592930000000  0.4625840000000  0.5324200000000 1.0
C      1  0.5032700000000  0.5710980000000  0.5304680000000 1.0
C      1  0.5516020000000  0.4712500000000  0.4725610000000 1.0
C      1  0.4492560000000  0.4696010000000  0.4674760000000 1.0
C      1  0.4990720000000  0.5591980000000  0.4697740000000 1.0
C      1  0.4844710000000  0.5504200000000  0.4423130000000 1.0
C      1  0.4650510000000  0.4630720000000  0.4401030000000 1.0
C      1  0.5511780000000  0.4845350000000  0.4430480000000 1.0
C      1  0.5311190000000  0.5782890000000  0.5483860000000 1.0
C      1  0.5511150000000  0.4360110000000  0.5515030000000 1.0
C      1  0.4172320000000  0.4854370000000  0.5470030000000 1.0
C      1  0.5298250000000  0.4229200000000  0.5490590000000 1.0
C      1  0.5530900000000  0.5663610000000  0.5458610000000 1.0
C      1  0.4176310000000  0.5103330000000  0.5503150000000 1.0
C      1  0.4865470000000  0.4496050000000  0.4414050000000 1.0
C      1  0.4621020000000  0.5384460000000  0.4436870000000 1.0
C      1  0.5504500000000  0.5098300000000  0.4407680000000 1.0
END
