TITL C-1154828-9214-107 0.00296552562642821 125000 -289.643937731419 0 0 60 (C1) n - 1
REM
REM in /home/nfs/bkarasulu/CARBON/AIRSS/Generating-Clusters/AIREBO/Higher-Symm/Only-C60
REM
REM
REM
REM
REM
REM ./C.cell (28575a23ae977d3b5fae324c64b13b57)
REM
REM compiler GCC version 9.2.1 20190827 (Red Hat 9.2.1-1)
REM options -cpp -mtune=generic -march=x86-64 -g -O0 -fpre-include=/usr/include/finclude/math-vector-fortran.h
REM seed 21687158 143203352 -782763854 350361648 2105369850 -1569648094 -1582534896 -654674515 -261673085 1587210296 906681214 735097646 1019660996 -1911001376 2091743852 -701347714 -1841038054 -2105431534 1167534642 2007254558 -1867922129 -259501547 1057710437 709235113 -1535142655 1790783466 -1646712169 48145775 -1905874786 -714686436 -180794549 504893857 -2143360849
REM
CELL 1.54180   50.00000   50.00000   50.00000   90.00000   90.00000   90.00000
LATT -1
SFAC C  
C      1  0.4731020000000  0.4416160000000  0.4699850000000 1.0
C      1  0.5576220000000  0.5056970000000  0.4628100000000 1.0
C      1  0.4638390000000  0.5561470000000  0.4672700000000 1.0
C      1  0.5267380000000  0.4419900000000  0.5323360000000 1.0
C      1  0.4413620000000  0.5043450000000  0.5299370000000 1.0
C      1  0.5367420000000  0.5506420000000  0.5313300000000 1.0
C      1  0.5188150000000  0.4985700000000  0.4676160000000 1.0
C      1  0.4914610000000  0.5274890000000  0.4657720000000 1.0
C      1  0.4762530000000  0.4813420000000  0.4673340000000 1.0
C      1  0.4792450000000  0.4927980000000  0.5334440000000 1.0
C      1  0.5110900000000  0.5200640000000  0.5321610000000 1.0
C      1  0.5172740000000  0.4806430000000  0.5326280000000 1.0
C      1  0.4817820000000  0.4450690000000  0.5026930000000 1.0
C      1  0.5554040000000  0.5104420000000  0.4969020000000 1.0
C      1  0.4661880000000  0.5414230000000  0.4978440000000 1.0
C      1  0.5156490000000  0.4473590000000  0.5006260000000 1.0
C      1  0.4435590000000  0.5160420000000  0.4980780000000 1.0
C      1  0.5389930000000  0.5401540000000  0.4990500000000 1.0
C      1  0.4637630000000  0.5453530000000  0.5386810000000 1.0
C      1  0.4816870000000  0.4425910000000  0.5561390000000 1.0
C      1  0.5589080000000  0.5111740000000  0.5516940000000 1.0
C      1  0.5383640000000  0.5457250000000  0.4451550000000 1.0
C      1  0.5211790000000  0.4447740000000  0.4612320000000 1.0
C      1  0.4414460000000  0.5164770000000  0.4500130000000 1.0
C      1  0.5472080000000  0.4553080000000  0.4907520000000 1.0
C      1  0.5155260000000  0.5647210000000  0.4973870000000 1.0
C      1  0.4335420000000  0.4664260000000  0.4873020000000 1.0
C      1  0.4496460000000  0.4537100000000  0.5097390000000 1.0
C      1  0.4859730000000  0.5651660000000  0.5120400000000 1.0
C      1  0.5640790000000  0.4788190000000  0.5059300000000 1.0
C      1  0.5122300000000  0.4488870000000  0.5580770000000 1.0
C      1  0.5397940000000  0.5328420000000  0.5565110000000 1.0
C      1  0.4549910000000  0.5195930000000  0.5502730000000 1.0
C      1  0.4934950000000  0.4475340000000  0.4487120000000 1.0
C      1  0.4604320000000  0.5387750000000  0.4435430000000 1.0
C      1  0.5424760000000  0.5164940000000  0.4408730000000 1.0
C      1  0.5474080000000  0.4666880000000  0.5289320000000 1.0
C      1  0.5042160000000  0.5533170000000  0.5339150000000 1.0
C      1  0.4503400000000  0.4751100000000  0.5306180000000 1.0
C      1  0.4506330000000  0.4624950000000  0.4654570000000 1.0
C      1  0.4955410000000  0.5602800000000  0.4737850000000 1.0
C      1  0.5457940000000  0.4780800000000  0.4705220000000 1.0
C      1  0.4822410000000  0.5049590000000  0.5647210000000 1.0
C      1  0.5039640000000  0.4798980000000  0.5619680000000 1.0
C      1  0.5112890000000  0.5225860000000  0.5660700000000 1.0
C      1  0.5110280000000  0.5043930000000  0.4355090000000 1.0
C      1  0.4944110000000  0.4774180000000  0.4404200000000 1.0
C      1  0.4874430000000  0.5276190000000  0.4321230000000 1.0
C      1  0.5402890000000  0.4240480000000  0.5031010000000 1.0
C      1  0.5475980000000  0.5721220000000  0.5068470000000 1.0
C      1  0.4234050000000  0.4912780000000  0.4914730000000 1.0
C      1  0.4571590000000  0.4221840000000  0.4975590000000 1.0
C      1  0.4555530000000  0.5737130000000  0.4987730000000 1.0
C      1  0.5872290000000  0.5040930000000  0.5070850000000 1.0
C      1  0.5071670000000  0.4710170000000  0.4777160000000 1.0
C      1  0.5230730000000  0.5316580000000  0.4720820000000 1.0
C      1  0.4657630000000  0.5101780000000  0.4729370000000 1.0
C      1  0.4882820000000  0.4626990000000  0.5295260000000 1.0
C      1  0.4819890000000  0.5226300000000  0.5211330000000 1.0
C      1  0.5383260000000  0.5053360000000  0.5258620000000 1.0
END
