TITL C-1154828-9214-572 -0.000337524658961436 125000 -342.688422687731 0 0 60 (C1) n - 1
REM
REM in /home/nfs/bkarasulu/CARBON/AIRSS/Generating-Clusters/AIREBO/Higher-Symm/Only-C60
REM
REM
REM
REM
REM
REM ./C.cell (28575a23ae977d3b5fae324c64b13b57)
REM
REM compiler GCC version 9.2.1 20190827 (Red Hat 9.2.1-1)
REM options -cpp -mtune=generic -march=x86-64 -g -O0 -fpre-include=/usr/include/finclude/math-vector-fortran.h
REM seed 1098959375 927066413 585511434 -1321700736 -491756224 1784234212 -1565453827 54314960 -317366776 -1167414580 1290961460 -1179125705 -1597162973 -1603074893 1056295203 1203411840 -1471626319 -1929955075 957880685 1870200644 -1211646273 -124270318 -720215375 -413296070 448169778 1793595857 -1788554521 46881375 -1759655513 -480547117 1124025081 -1902587224 -1604426365
REM
CELL 1.54180   50.00000   50.00000   50.00000   90.00000   90.00000   90.00000
LATT -1
SFAC C  
C      1  0.4828490000000  0.5577080000000  0.5168780000000 1.0
C      1  0.5168380000000  0.4410650000000  0.5164360000000 1.0
C      1  0.4832710000000  0.4419130000000  0.4823690000000 1.0
C      1  0.5168480000000  0.5578100000000  0.4828370000000 1.0
C      1  0.5565600000000  0.4769790000000  0.5192780000000 1.0
C      1  0.4423790000000  0.5225710000000  0.5194060000000 1.0
C      1  0.4432860000000  0.4770800000000  0.4814330000000 1.0
C      1  0.5569800000000  0.5228910000000  0.4810730000000 1.0
C      1  0.5272620000000  0.4888510000000  0.5296250000000 1.0
C      1  0.4745470000000  0.5090180000000  0.5306940000000 1.0
C      1  0.5276630000000  0.5095290000000  0.4706140000000 1.0
C      1  0.4723050000000  0.4902240000000  0.4702460000000 1.0
C      1  0.4953760000000  0.5296470000000  0.5302340000000 1.0
C      1  0.5056540000000  0.4693290000000  0.5298220000000 1.0
C      1  0.5058500000000  0.5292580000000  0.4701170000000 1.0
C      1  0.4942070000000  0.4706500000000  0.4698950000000 1.0
C      1  0.4992800000000  0.5201520000000  0.4211280000000 1.0
C      1  0.5010640000000  0.4803570000000  0.4210150000000 1.0
C      1  0.4992210000000  0.4759800000000  0.5793630000000 1.0
C      1  0.4999440000000  0.5257300000000  0.5801970000000 1.0
C      1  0.5249910000000  0.5009720000000  0.4209080000000 1.0
C      1  0.4753400000000  0.4995320000000  0.4207300000000 1.0
C      1  0.4793440000000  0.5008440000000  0.5789560000000 1.0
C      1  0.5191680000000  0.5010550000000  0.5781130000000 1.0
C      1  0.4981590000000  0.5400670000000  0.4408370000000 1.0
C      1  0.5021350000000  0.4602140000000  0.4405010000000 1.0
C      1  0.4981120000000  0.4572520000000  0.5588060000000 1.0
C      1  0.5013570000000  0.5436880000000  0.5588880000000 1.0
C      1  0.5419880000000  0.5014370000000  0.4429360000000 1.0
C      1  0.4582180000000  0.4989090000000  0.4426500000000 1.0
C      1  0.4608140000000  0.5013560000000  0.5576480000000 1.0
C      1  0.5378530000000  0.5022430000000  0.5572180000000 1.0
C      1  0.5616070000000  0.5076880000000  0.5334410000000 1.0
C      1  0.4385150000000  0.4929560000000  0.5333920000000 1.0
C      1  0.5631190000000  0.4920830000000  0.4678830000000 1.0
C      1  0.4368270000000  0.5075700000000  0.4676300000000 1.0
C      1  0.5099410000000  0.5659370000000  0.5359560000000 1.0
C      1  0.4898000000000  0.4337840000000  0.5362150000000 1.0
C      1  0.4897920000000  0.5645370000000  0.4628160000000 1.0
C      1  0.5100540000000  0.4353980000000  0.4621160000000 1.0
C      1  0.5618900000000  0.5496220000000  0.4663830000000 1.0
C      1  0.4379100000000  0.4502640000000  0.4670600000000 1.0
C      1  0.5618750000000  0.4497680000000  0.5330070000000 1.0
C      1  0.4377770000000  0.5487890000000  0.5334080000000 1.0
C      1  0.5432170000000  0.5668450000000  0.4682520000000 1.0
C      1  0.4566580000000  0.4330670000000  0.4682150000000 1.0
C      1  0.4564100000000  0.5661500000000  0.5315820000000 1.0
C      1  0.5434930000000  0.4322760000000  0.5306600000000 1.0
C      1  0.4757800000000  0.5498680000000  0.4879510000000 1.0
C      1  0.5238510000000  0.4497120000000  0.4875660000000 1.0
C      1  0.4761450000000  0.4494800000000  0.5115610000000 1.0
C      1  0.5243450000000  0.5503130000000  0.5120400000000 1.0
C      1  0.5505750000000  0.4712190000000  0.4892970000000 1.0
C      1  0.4490710000000  0.5283470000000  0.4894900000000 1.0
C      1  0.4495330000000  0.4711480000000  0.5111910000000 1.0
C      1  0.5515220000000  0.5293980000000  0.5107890000000 1.0
C      1  0.4795230000000  0.4820910000000  0.5189510000000 1.0
C      1  0.4790960000000  0.5174480000000  0.4810510000000 1.0
C      1  0.5206510000000  0.4824610000000  0.4816180000000 1.0
C      1  0.5221610000000  0.5174710000000  0.5196280000000 1.0
END
