TITL C-1154808-8168-404 -0.000101462312633283 125000 -328.445974547726 0 0 60 (C1) n - 1
REM
REM in /home/nfs/bkarasulu/CARBON/AIRSS/Generating-Clusters/AIREBO/Higher-Symm/Only-C60
REM
REM
REM
REM
REM
REM ./C.cell (28575a23ae977d3b5fae324c64b13b57)
REM
REM compiler GCC version 9.2.1 20190827 (Red Hat 9.2.1-1)
REM options -cpp -mtune=generic -march=x86-64 -g -O0 -fpre-include=/usr/include/finclude/math-vector-fortran.h
REM seed 1146191248 -981164838 1294884036 -195918332 1651748525 -1054302105 -287230946 1902505548 622785394 959539152 -1116342817 -479327506 -692999877 -603113672 -787100070 613512339 236317604 -1531131391 1173582205 -1634436078 -167899527 -527162714 227671339 -1828088299 -1534674026 -914338487 -1286954539 509108700 -2074524330 384272021 2102389857 -1536093072 -1319324731
REM
CELL 1.54180   50.00000   50.00000   50.00000   90.00000   90.00000   90.00000
LATT -1
SFAC C  
C      1  0.4555550000000  0.6054290000000  0.5251610000000 1.0
C      1  0.5987630000000  0.5481210000000  0.4982220000000 1.0
C      1  0.5757320000000  0.4250190000000  0.5269750000000 1.0
C      1  0.4896900000000  0.3921240000000  0.5349210000000 1.0
C      1  0.3948560000000  0.5203520000000  0.4686800000000 1.0
C      1  0.4556560000000  0.4612250000000  0.4845130000000 1.0
C      1  0.4799620000000  0.5078230000000  0.4428190000000 1.0
C      1  0.4944630000000  0.5466430000000  0.4718350000000 1.0
C      1  0.5222660000000  0.5087670000000  0.4630190000000 1.0
C      1  0.5513960000000  0.4580230000000  0.4356470000000 1.0
C      1  0.5200580000000  0.5170710000000  0.4116820000000 1.0
C      1  0.5429300000000  0.5004120000000  0.4080370000000 1.0
C      1  0.5369280000000  0.4734820000000  0.4177710000000 1.0
C      1  0.5076600000000  0.4737780000000  0.4200360000000 1.0
C      1  0.4983700000000  0.5013950000000  0.4234650000000 1.0
C      1  0.4664800000000  0.4764840000000  0.5536100000000 1.0
C      1  0.4673010000000  0.5230190000000  0.5596230000000 1.0
C      1  0.5102930000000  0.5402420000000  0.5527290000000 1.0
C      1  0.5380700000000  0.5035620000000  0.5451270000000 1.0
C      1  0.5115150000000  0.4651730000000  0.5482860000000 1.0
C      1  0.5200550000000  0.5045040000000  0.5186350000000 1.0
C      1  0.5045920000000  0.4765170000000  0.5195500000000 1.0
C      1  0.4726030000000  0.4872160000000  0.5239810000000 1.0
C      1  0.4729750000000  0.5189780000000  0.5292620000000 1.0
C      1  0.5018120000000  0.5293260000000  0.5241950000000 1.0
C      1  0.5784880000000  0.5306210000000  0.4954220000000 1.0
C      1  0.5633160000000  0.4404950000000  0.5109280000000 1.0
C      1  0.4923670000000  0.4109080000000  0.5178510000000 1.0
C      1  0.4183600000000  0.5164650000000  0.4778250000000 1.0
C      1  0.4628470000000  0.5836120000000  0.5140830000000 1.0
C      1  0.4950390000000  0.4310880000000  0.4955270000000 1.0
C      1  0.4468100000000  0.5118190000000  0.4886410000000 1.0
C      1  0.4686930000000  0.5580570000000  0.5000440000000 1.0
C      1  0.5502650000000  0.5395320000000  0.4885970000000 1.0
C      1  0.5483800000000  0.4591020000000  0.4915900000000 1.0
C      1  0.4870500000000  0.5411200000000  0.5691490000000 1.0
C      1  0.5354830000000  0.5284360000000  0.5586070000000 1.0
C      1  0.5354410000000  0.4777660000000  0.5567390000000 1.0
C      1  0.4873450000000  0.4589850000000  0.5614780000000 1.0
C      1  0.4571440000000  0.4983580000000  0.5693430000000 1.0
C      1  0.5397010000000  0.5299640000000  0.4610560000000 1.0
C      1  0.5531100000000  0.4519890000000  0.4616620000000 1.0
C      1  0.4689940000000  0.4406050000000  0.4830260000000 1.0
C      1  0.4665920000000  0.5125620000000  0.4651110000000 1.0
C      1  0.4702730000000  0.5586890000000  0.4671060000000 1.0
C      1  0.5809310000000  0.5022370000000  0.4958310000000 1.0
C      1  0.5341720000000  0.4167970000000  0.4607970000000 1.0
C      1  0.4010400000000  0.4739570000000  0.5311100000000 1.0
C      1  0.4063170000000  0.5482870000000  0.5368700000000 1.0
C      1  0.5400160000000  0.5839710000000  0.5085010000000 1.0
C      1  0.4228970000000  0.4787500000000  0.5188340000000 1.0
C      1  0.4277530000000  0.5413830000000  0.5248620000000 1.0
C      1  0.5324280000000  0.5598660000000  0.5006870000000 1.0
C      1  0.5578820000000  0.4879890000000  0.4941710000000 1.0
C      1  0.5234280000000  0.4304070000000  0.4793440000000 1.0
C      1  0.4537220000000  0.5332770000000  0.5104520000000 1.0
C      1  0.5041570000000  0.5499500000000  0.5017890000000 1.0
C      1  0.5351100000000  0.5065260000000  0.4930990000000 1.0
C      1  0.5153200000000  0.4574030000000  0.4984300000000 1.0
C      1  0.4491500000000  0.4843430000000  0.5036600000000 1.0
END
