TITL C-1154829-9094-478 4.96377610211056e-05 125000 -324.567125833226 0 0 60 (C1) n - 1
REM
REM in /home/nfs/bkarasulu/CARBON/AIRSS/Generating-Clusters/AIREBO/Higher-Symm/Only-C60
REM
REM
REM
REM
REM
REM ./C.cell (28575a23ae977d3b5fae324c64b13b57)
REM
REM compiler GCC version 9.2.1 20190827 (Red Hat 9.2.1-1)
REM options -cpp -mtune=generic -march=x86-64 -g -O0 -fpre-include=/usr/include/finclude/math-vector-fortran.h
REM seed -1095517046 1512201728 -113255204 411800277 1596056492 719864372 245564016 823647762 782940208 -1230791529 816181340 -1300642780 -1583726290 -966892908 1305936203 -1078387751 -1794287536 -1140199075 1614900945 -313848405 1685022974 -1765078568 726967679 -591187013 -1378797592 211839456 1788864734 -826793683 1806938612 952416000 -623653853 885849206 1628166610
REM
CELL 1.54180   50.00000   50.00000   50.00000   90.00000   90.00000   90.00000
LATT -1
SFAC C  
C      1  0.5038560000000  0.5527140000000  0.4519340000000 1.0
C      1  0.4471070000000  0.5239730000000  0.4509490000000 1.0
C      1  0.4621180000000  0.4722640000000  0.4627680000000 1.0
C      1  0.5269940000000  0.4611540000000  0.4532440000000 1.0
C      1  0.5528520000000  0.5073130000000  0.4528780000000 1.0
C      1  0.4840990000000  0.4799910000000  0.4952430000000 1.0
C      1  0.5143550000000  0.4759920000000  0.4982890000000 1.0
C      1  0.5268100000000  0.5051830000000  0.4989520000000 1.0
C      1  0.5038300000000  0.5272150000000  0.4976780000000 1.0
C      1  0.4773360000000  0.5106190000000  0.4934820000000 1.0
C      1  0.4855630000000  0.4314350000000  0.5018180000000 1.0
C      1  0.5529380000000  0.4658570000000  0.5006050000000 1.0
C      1  0.5472840000000  0.5394300000000  0.5004790000000 1.0
C      1  0.4749800000000  0.5548200000000  0.4993270000000 1.0
C      1  0.4453640000000  0.4870960000000  0.4888040000000 1.0
C      1  0.4502920000000  0.4709240000000  0.5575150000000 1.0
C      1  0.5176600000000  0.4427570000000  0.5564740000000 1.0
C      1  0.5624370000000  0.4988250000000  0.5555030000000 1.0
C      1  0.5241920000000  0.5582920000000  0.5538240000000 1.0
C      1  0.4521260000000  0.5388830000000  0.5525150000000 1.0
C      1  0.5718360000000  0.5014870000000  0.5274150000000 1.0
C      1  0.5187130000000  0.5675890000000  0.5272440000000 1.0
C      1  0.4382200000000  0.5361820000000  0.5280770000000 1.0
C      1  0.4440270000000  0.4531960000000  0.5357480000000 1.0
C      1  0.5250430000000  0.4319130000000  0.5289630000000 1.0
C      1  0.5139480000000  0.4307530000000  0.5017630000000 1.0
C      1  0.5664270000000  0.4904400000000  0.5009510000000 1.0
C      1  0.5281130000000  0.5598290000000  0.5008320000000 1.0
C      1  0.4504070000000  0.5417530000000  0.5003780000000 1.0
C      1  0.4384570000000  0.4588870000000  0.5065340000000 1.0
C      1  0.4441430000000  0.5087240000000  0.4238530000000 1.0
C      1  0.4732910000000  0.4555620000000  0.4369150000000 1.0
C      1  0.5355020000000  0.4704880000000  0.4246350000000 1.0
C      1  0.5735300000000  0.5117820000000  0.4374650000000 1.0
C      1  0.4829530000000  0.5611870000000  0.4320730000000 1.0
C      1  0.5531650000000  0.5123780000000  0.4819080000000 1.0
C      1  0.5034560000000  0.5551590000000  0.4811390000000 1.0
C      1  0.4474780000000  0.5188490000000  0.4794470000000 1.0
C      1  0.4662390000000  0.4533920000000  0.4885400000000 1.0
C      1  0.5286940000000  0.4531360000000  0.4814890000000 1.0
C      1  0.5375170000000  0.4616860000000  0.5275570000000 1.0
C      1  0.5473810000000  0.5234170000000  0.5278760000000 1.0
C      1  0.4906690000000  0.5518140000000  0.5263060000000 1.0
C      1  0.4458370000000  0.5058330000000  0.5172150000000 1.0
C      1  0.4755910000000  0.4495850000000  0.5270430000000 1.0
C      1  0.4807020000000  0.5209680000000  0.5573160000000 1.0
C      1  0.4789160000000  0.4886530000000  0.5542340000000 1.0
C      1  0.5096080000000  0.4758480000000  0.5583900000000 1.0
C      1  0.5291890000000  0.5022050000000  0.5610320000000 1.0
C      1  0.5111150000000  0.5288240000000  0.5631490000000 1.0
C      1  0.5102900000000  0.5250550000000  0.4405130000000 1.0
C      1  0.4765890000000  0.5279700000000  0.4370580000000 1.0
C      1  0.4712590000000  0.4947010000000  0.4389110000000 1.0
C      1  0.4997710000000  0.4765760000000  0.4409740000000 1.0
C      1  0.5253440000000  0.4989890000000  0.4405960000000 1.0
C      1  0.4679020000000  0.4825370000000  0.5235940000000 1.0
C      1  0.5037330000000  0.4655870000000  0.5270890000000 1.0
C      1  0.5329960000000  0.4926300000000  0.5293690000000 1.0
C      1  0.5147470000000  0.5280080000000  0.5294760000000 1.0
C      1  0.4750060000000  0.5216860000000  0.5246540000000 1.0
END
