TITL C-1154816-9297-91 0.00186704050149806 125000 -312.13151606153 0 0 60 (C1) n - 1
REM
REM in /home/nfs/bkarasulu/CARBON/AIRSS/Generating-Clusters/AIREBO/Higher-Symm/Only-C60
REM
REM
REM
REM
REM
REM ./C.cell (28575a23ae977d3b5fae324c64b13b57)
REM
REM compiler GCC version 9.2.1 20190827 (Red Hat 9.2.1-1)
REM options -cpp -mtune=generic -march=x86-64 -g -O0 -fpre-include=/usr/include/finclude/math-vector-fortran.h
REM seed -1915646662 -620405246 -2123560377 782574491 1698691168 -2131984391 1601045890 -1881463482 -1000980284 -1531858286 -1744876005 1144588286 -1359700875 1386865896 -1642026029 2003620684 596307115 -696030265 -689394634 2025563093 -1613936084 1509059587 1081505587 -1872577521 -1947161918 573312748 1176448642 -2080033632 1995051153 -1669800724 -1806473153 1032654020 935476263
REM
CELL 1.54180   50.00000   50.00000   50.00000   90.00000   90.00000   90.00000
LATT -1
SFAC C  
C      1  0.5188730000000  0.5126060000000  0.4341810000000 1.0
C      1  0.4612580000000  0.5236470000000  0.5152850000000 1.0
C      1  0.5163170000000  0.4441310000000  0.5258480000000 1.0
C      1  0.5239180000000  0.4840320000000  0.5465250000000 1.0
C      1  0.4773300000000  0.4927180000000  0.4388680000000 1.0
C      1  0.4794390000000  0.5117490000000  0.5507760000000 1.0
C      1  0.4531700000000  0.4775770000000  0.4865630000000 1.0
C      1  0.5426360000000  0.4772840000000  0.5181540000000 1.0
C      1  0.5385280000000  0.5202520000000  0.4878860000000 1.0
C      1  0.5127680000000  0.5417390000000  0.4805080000000 1.0
C      1  0.4849900000000  0.5469950000000  0.5222530000000 1.0
C      1  0.4851560000000  0.4668430000000  0.4854450000000 1.0
C      1  0.4724640000000  0.5182020000000  0.4370070000000 1.0
C      1  0.5435080000000  0.5195540000000  0.5166720000000 1.0
C      1  0.4877910000000  0.4541650000000  0.5252150000000 1.0
C      1  0.4820640000000  0.4828410000000  0.5425920000000 1.0
C      1  0.5062060000000  0.4860870000000  0.4428790000000 1.0
C      1  0.5239640000000  0.5140720000000  0.5446700000000 1.0
C      1  0.5366090000000  0.4763600000000  0.4892130000000 1.0
C      1  0.4410850000000  0.4752030000000  0.5133510000000 1.0
C      1  0.4579000000000  0.5248850000000  0.4849010000000 1.0
C      1  0.4841230000000  0.5461900000000  0.4807970000000 1.0
C      1  0.5134300000000  0.5538730000000  0.5228730000000 1.0
C      1  0.5096710000000  0.4805780000000  0.4737650000000 1.0
C      1  0.5527120000000  0.5504430000000  0.5274970000000 1.0
C      1  0.5293770000000  0.5527060000000  0.5522780000000 1.0
C      1  0.5535290000000  0.5280690000000  0.5539580000000 1.0
C      1  0.5417570000000  0.4453040000000  0.4767720000000 1.0
C      1  0.4488840000000  0.4467770000000  0.5294610000000 1.0
C      1  0.4462720000000  0.5541230000000  0.4720090000000 1.0
C      1  0.5354550000000  0.4453870000000  0.4445670000000 1.0
C      1  0.4726330000000  0.4463630000000  0.5546360000000 1.0
C      1  0.4724010000000  0.5556100000000  0.4503020000000 1.0
C      1  0.5569560000000  0.4674390000000  0.4561710000000 1.0
C      1  0.4509260000000  0.4727060000000  0.5517510000000 1.0
C      1  0.4459790000000  0.5305370000000  0.4473720000000 1.0
C      1  0.4467580000000  0.5523690000000  0.5309460000000 1.0
C      1  0.4721320000000  0.5506500000000  0.5535150000000 1.0
C      1  0.4486450000000  0.5260750000000  0.5527760000000 1.0
C      1  0.4548960000000  0.4466660000000  0.4698310000000 1.0
C      1  0.5559950000000  0.4481080000000  0.5299220000000 1.0
C      1  0.5507530000000  0.5470160000000  0.4708390000000 1.0
C      1  0.4836390000000  0.4549070000000  0.4536410000000 1.0
C      1  0.5298720000000  0.4458240000000  0.5553730000000 1.0
C      1  0.5243050000000  0.5485960000000  0.4492690000000 1.0
C      1  0.4550930000000  0.4722650000000  0.4473000000000 1.0
C      1  0.5537300000000  0.4703730000000  0.5555210000000 1.0
C      1  0.5460890000000  0.5209490000000  0.4488220000000 1.0
C      1  0.5530380000000  0.4965690000000  0.4682720000000 1.0
C      1  0.4609380000000  0.5610140000000  0.5017000000000 1.0
C      1  0.5020030000000  0.4626810000000  0.5613610000000 1.0
C      1  0.5600270000000  0.4987870000000  0.5379370000000 1.0
C      1  0.4477230000000  0.5011340000000  0.4643730000000 1.0
C      1  0.4463160000000  0.4998070000000  0.5321150000000 1.0
C      1  0.5363250000000  0.4398880000000  0.5056430000000 1.0
C      1  0.4969550000000  0.5385990000000  0.4340570000000 1.0
C      1  0.5016680000000  0.5340970000000  0.5562170000000 1.0
C      1  0.5105020000000  0.4549350000000  0.4367940000000 1.0
C      1  0.4667150000000  0.4432710000000  0.5015880000000 1.0
C      1  0.5358030000000  0.5583700000000  0.4991890000000 1.0
END
