TITL C-1154828-9214-118 -0.00147346957539169 125000 -350.656427167496 0 0 60 (C1) n - 1
REM
REM in /home/nfs/bkarasulu/CARBON/AIRSS/Generating-Clusters/AIREBO/Higher-Symm/Only-C60
REM
REM
REM
REM
REM
REM ./C.cell (28575a23ae977d3b5fae324c64b13b57)
REM
REM compiler GCC version 9.2.1 20190827 (Red Hat 9.2.1-1)
REM options -cpp -mtune=generic -march=x86-64 -g -O0 -fpre-include=/usr/include/finclude/math-vector-fortran.h
REM seed -78343374 1236161938 -1437193084 1464417031 29110181 1364831382 -687739020 -1213051871 -782534861 -1448466375 -1209810226 -916643122 357790070 1652599732 618456607 1862882492 601703935 171524363 -1016741378 2068617659 -1095083214 1171381860 -1031392829 864283261 -461947383 -1752087514 2010028288 -1982689862 1150832554 1614649999 -192550348 1680568992 734033559
REM
CELL 1.54180   50.00000   50.00000   50.00000   90.00000   90.00000   90.00000
LATT -1
SFAC C  
C      1  0.5571500000000  0.5154220000000  0.5549430000000 1.0
C      1  0.5327680000000  0.4638060000000  0.5446220000000 1.0
C      1  0.4810940000000  0.4431380000000  0.5507710000000 1.0
C      1  0.4487960000000  0.4887770000000  0.5501680000000 1.0
C      1  0.4566820000000  0.5450970000000  0.5585650000000 1.0
C      1  0.5146950000000  0.5575890000000  0.5580930000000 1.0
C      1  0.4448680000000  0.5156380000000  0.5552840000000 1.0
C      1  0.4570570000000  0.4573030000000  0.5494900000000 1.0
C      1  0.5122910000000  0.4450160000000  0.5452620000000 1.0
C      1  0.5548710000000  0.4878480000000  0.5490160000000 1.0
C      1  0.5353270000000  0.5389350000000  0.5548280000000 1.0
C      1  0.4834760000000  0.5525450000000  0.5562180000000 1.0
C      1  0.4431300000000  0.4813200000000  0.4760180000000 1.0
C      1  0.4567420000000  0.5449710000000  0.4762820000000 1.0
C      1  0.5164430000000  0.5604210000000  0.4746000000000 1.0
C      1  0.5571940000000  0.5157810000000  0.4759180000000 1.0
C      1  0.5527860000000  0.4622370000000  0.4745450000000 1.0
C      1  0.4793530000000  0.4305880000000  0.4819880000000 1.0
C      1  0.5697320000000  0.4842870000000  0.4770160000000 1.0
C      1  0.5456140000000  0.5461560000000  0.4659470000000 1.0
C      1  0.4837420000000  0.5617570000000  0.4674050000000 1.0
C      1  0.4417490000000  0.5149420000000  0.4704110000000 1.0
C      1  0.4563120000000  0.4530410000000  0.4739580000000 1.0
C      1  0.5062750000000  0.4332350000000  0.4764730000000 1.0
C      1  0.4457080000000  0.4365270000000  0.5019630000000 1.0
C      1  0.4371370000000  0.5225870000000  0.5029510000000 1.0
C      1  0.4839970000000  0.5608830000000  0.5008250000000 1.0
C      1  0.5462840000000  0.5459700000000  0.4997520000000 1.0
C      1  0.5782780000000  0.4947250000000  0.5025730000000 1.0
C      1  0.5245470000000  0.4302960000000  0.4976250000000 1.0
C      1  0.5466010000000  0.4475090000000  0.4977160000000 1.0
C      1  0.5728970000000  0.5249660000000  0.5048870000000 1.0
C      1  0.5180170000000  0.5632250000000  0.5062460000000 1.0
C      1  0.4520310000000  0.5521770000000  0.5076480000000 1.0
C      1  0.4338860000000  0.4919430000000  0.5019630000000 1.0
C      1  0.4689400000000  0.4170030000000  0.5068220000000 1.0
C      1  0.5535820000000  0.5473000000000  0.5315050000000 1.0
C      1  0.5746150000000  0.4791040000000  0.5252000000000 1.0
C      1  0.5152550000000  0.4221770000000  0.5233130000000 1.0
C      1  0.4368800000000  0.4486460000000  0.5253990000000 1.0
C      1  0.4299060000000  0.5309220000000  0.5329370000000 1.0
C      1  0.4881370000000  0.5703150000000  0.5314890000000 1.0
C      1  0.4396460000000  0.5609380000000  0.5367370000000 1.0
C      1  0.4333450000000  0.4783670000000  0.5256220000000 1.0
C      1  0.4853530000000  0.4201950000000  0.5297360000000 1.0
C      1  0.5536900000000  0.4579570000000  0.5228300000000 1.0
C      1  0.5792970000000  0.5302870000000  0.5366460000000 1.0
C      1  0.5180490000000  0.5793590000000  0.5348730000000 1.0
C      1  0.4525320000000  0.5081780000000  0.4402360000000 1.0
C      1  0.4857890000000  0.5521630000000  0.4335680000000 1.0
C      1  0.5379950000000  0.5383170000000  0.4339930000000 1.0
C      1  0.5400220000000  0.4863370000000  0.4367100000000 1.0
C      1  0.5122970000000  0.4474140000000  0.4528520000000 1.0
C      1  0.4643110000000  0.4594320000000  0.4438750000000 1.0
C      1  0.5467710000000  0.5122270000000  0.4449310000000 1.0
C      1  0.5136430000000  0.5521570000000  0.4427780000000 1.0
C      1  0.4648480000000  0.5347890000000  0.4448690000000 1.0
C      1  0.4526700000000  0.4819590000000  0.4323840000000 1.0
C      1  0.4897590000000  0.4502520000000  0.4361250000000 1.0
C      1  0.5351360000000  0.4635490000000  0.4526010000000 1.0
END
