TITL C-1154829-9094-520 -0.0030254888800924 125000 -293.274670690336 0 0 60 (C1) n - 1
REM
REM in /home/nfs/bkarasulu/CARBON/AIRSS/Generating-Clusters/AIREBO/Higher-Symm/Only-C60
REM
REM
REM
REM
REM
REM ./C.cell (28575a23ae977d3b5fae324c64b13b57)
REM
REM compiler GCC version 9.2.1 20190827 (Red Hat 9.2.1-1)
REM options -cpp -mtune=generic -march=x86-64 -g -O0 -fpre-include=/usr/include/finclude/math-vector-fortran.h
REM seed 998088464 842883553 -1246446912 -1073253841 -1288362305 9030332 403242267 11301524 -1812949738 1118577222 -1956443307 -1339843236 1182788048 1454858224 -1658457970 1280864945 -2079658284 1278091991 4532590 -1957241745 1761349985 -2122418106 1900766198 -1196809069 -2121092239 -1465442041 1428719084 -1814415465 -188384267 286869188 -2128485099 1154367600 1126752323
REM
CELL 1.54180   50.00000   50.00000   50.00000   90.00000   90.00000   90.00000
LATT -1
SFAC C  
C      1  0.4778090000000  0.4374800000000  0.5456220000000 1.0
C      1  0.4359000000000  0.4832540000000  0.5461120000000 1.0
C      1  0.4605080000000  0.5444330000000  0.5467770000000 1.0
C      1  0.5180500000000  0.5597510000000  0.5397160000000 1.0
C      1  0.5628380000000  0.5083540000000  0.5452950000000 1.0
C      1  0.5366270000000  0.4533030000000  0.5436400000000 1.0
C      1  0.4801730000000  0.4439260000000  0.4577810000000 1.0
C      1  0.4434080000000  0.4882230000000  0.4561830000000 1.0
C      1  0.4602550000000  0.5499140000000  0.4535440000000 1.0
C      1  0.5177770000000  0.5551090000000  0.4501980000000 1.0
C      1  0.5655630000000  0.5150360000000  0.4538190000000 1.0
C      1  0.5439540000000  0.4534690000000  0.4560520000000 1.0
C      1  0.5444050000000  0.5353840000000  0.5224010000000 1.0
C      1  0.5568610000000  0.4825100000000  0.5126180000000 1.0
C      1  0.5133850000000  0.4368550000000  0.5127810000000 1.0
C      1  0.4594960000000  0.4591120000000  0.5174840000000 1.0
C      1  0.4434600000000  0.5184810000000  0.5218260000000 1.0
C      1  0.4890940000000  0.5774400000000  0.4992410000000 1.0
C      1  0.5482400000000  0.5404640000000  0.4936220000000 1.0
C      1  0.5523180000000  0.4883790000000  0.4801920000000 1.0
C      1  0.5122270000000  0.4453400000000  0.4810880000000 1.0
C      1  0.4503300000000  0.4633580000000  0.4860900000000 1.0
C      1  0.4415910000000  0.5227140000000  0.4901200000000 1.0
C      1  0.4895050000000  0.5507970000000  0.4781180000000 1.0
C      1  0.5210320000000  0.4723920000000  0.5565000000000 1.0
C      1  0.4899710000000  0.4685870000000  0.5522610000000 1.0
C      1  0.4672930000000  0.4928360000000  0.5551170000000 1.0
C      1  0.4774650000000  0.5243910000000  0.5570510000000 1.0
C      1  0.5100660000000  0.5295850000000  0.5532550000000 1.0
C      1  0.5316740000000  0.5035000000000  0.5584540000000 1.0
C      1  0.5210460000000  0.4757870000000  0.4442680000000 1.0
C      1  0.4883320000000  0.4697050000000  0.4449570000000 1.0
C      1  0.4694200000000  0.4918670000000  0.4435130000000 1.0
C      1  0.4805600000000  0.5236550000000  0.4458900000000 1.0
C      1  0.5106810000000  0.5298590000000  0.4420030000000 1.0
C      1  0.5333630000000  0.5066840000000  0.4463240000000 1.0
C      1  0.5098830000000  0.5299360000000  0.4899920000000 1.0
C      1  0.5336420000000  0.5159880000000  0.4774260000000 1.0
C      1  0.5214020000000  0.4779360000000  0.4780090000000 1.0
C      1  0.4894710000000  0.4702670000000  0.4863770000000 1.0
C      1  0.4677070000000  0.4926060000000  0.4876480000000 1.0
C      1  0.4731040000000  0.5210090000000  0.4774570000000 1.0
C      1  0.5053030000000  0.5276770000000  0.5196430000000 1.0
C      1  0.5278920000000  0.5064000000000  0.5263600000000 1.0
C      1  0.5229100000000  0.4800380000000  0.5119120000000 1.0
C      1  0.4931800000000  0.4633930000000  0.5194230000000 1.0
C      1  0.4656470000000  0.4923340000000  0.5212890000000 1.0
C      1  0.4767520000000  0.5235940000000  0.5171390000000 1.0
C      1  0.4499390000000  0.5513950000000  0.5162510000000 1.0
C      1  0.5163620000000  0.5679900000000  0.5127910000000 1.0
C      1  0.5718460000000  0.5179440000000  0.5164680000000 1.0
C      1  0.5502330000000  0.4515080000000  0.5180210000000 1.0
C      1  0.4847980000000  0.4243970000000  0.5199750000000 1.0
C      1  0.4296110000000  0.4758370000000  0.5171910000000 1.0
C      1  0.4481730000000  0.5518490000000  0.4814970000000 1.0
C      1  0.5194910000000  0.5668430000000  0.4782720000000 1.0
C      1  0.5724180000000  0.5240490000000  0.4818170000000 1.0
C      1  0.5531680000000  0.4546820000000  0.4846500000000 1.0
C      1  0.4859390000000  0.4258690000000  0.4860140000000 1.0
C      1  0.4264520000000  0.4845220000000  0.4844660000000 1.0
END
