TITL C-1154803-8277-145 0.000568934284478937 125000 -347.277942855304 0 0 60 (C1) n - 1
REM
REM in /home/nfs/bkarasulu/CARBON/AIRSS/Generating-Clusters/AIREBO/Higher-Symm/Only-C60
REM
REM
REM
REM
REM
REM ./C.cell (28575a23ae977d3b5fae324c64b13b57)
REM
REM compiler GCC version 9.2.1 20190827 (Red Hat 9.2.1-1)
REM options -cpp -mtune=generic -march=x86-64 -g -O0 -fpre-include=/usr/include/finclude/math-vector-fortran.h
REM seed -973963218 1743942749 1731365963 -70540787 -856118334 212864915 1189346315 -1515164750 -1854062053 980065395 -717352473 -810200406 710752599 1762160973 1030484801 -600166588 -71180011 1368864559 2101376467 1857465640 1729179386 -1311362630 1176274946 -1008326122 412024378 948957856 -1693832403 1727357985 -2015968874 -637995886 2108618363 1712251092 427848049
REM
CELL 1.54180   50.00000   50.00000   50.00000   90.00000   90.00000   90.00000
LATT -1
SFAC C  
C      1  0.4386220000000  0.4620300000000  0.4768920000000 1.0
C      1  0.4877550000000  0.4483250000000  0.4638960000000 1.0
C      1  0.4568850000000  0.4731310000000  0.4360650000000 1.0
C      1  0.5595060000000  0.5401900000000  0.4770190000000 1.0
C      1  0.5629750000000  0.4493100000000  0.5321030000000 1.0
C      1  0.4424770000000  0.5324730000000  0.5164960000000 1.0
C      1  0.5222970000000  0.5650590000000  0.4617220000000 1.0
C      1  0.5267230000000  0.4333810000000  0.5577240000000 1.0
C      1  0.4805130000000  0.5523720000000  0.5368670000000 1.0
C      1  0.5379210000000  0.5236570000000  0.4377540000000 1.0
C      1  0.5422550000000  0.4776450000000  0.5644190000000 1.0
C      1  0.4604330000000  0.5158470000000  0.5580670000000 1.0
C      1  0.4608410000000  0.4401800000000  0.4757250000000 1.0
C      1  0.4419540000000  0.4825310000000  0.4585480000000 1.0
C      1  0.4843630000000  0.4684480000000  0.4432520000000 1.0
C      1  0.5478670000000  0.5661760000000  0.4741920000000 1.0
C      1  0.4602380000000  0.5554740000000  0.5168160000000 1.0
C      1  0.5389100000000  0.4335300000000  0.5314770000000 1.0
C      1  0.5629380000000  0.5286640000000  0.4509300000000 1.0
C      1  0.4365120000000  0.5213200000000  0.5426760000000 1.0
C      1  0.5577470000000  0.4763580000000  0.5402190000000 1.0
C      1  0.5202160000000  0.5454620000000  0.4382620000000 1.0
C      1  0.4723240000000  0.5418600000000  0.5622770000000 1.0
C      1  0.5190350000000  0.4604390000000  0.5652750000000 1.0
C      1  0.5376800000000  0.4681940000000  0.4959790000000 1.0
C      1  0.4982950000000  0.5575370000000  0.4818210000000 1.0
C      1  0.4822980000000  0.4953030000000  0.5438280000000 1.0
C      1  0.4507580000000  0.5111390000000  0.5000310000000 1.0
C      1  0.4488250000000  0.4607870000000  0.5075770000000 1.0
C      1  0.5425390000000  0.5216960000000  0.4963960000000 1.0
C      1  0.5116940000000  0.4412890000000  0.4776760000000 1.0
C      1  0.5014910000000  0.5376790000000  0.5266430000000 1.0
C      1  0.4924860000000  0.4459580000000  0.5275790000000 1.0
C      1  0.5348300000000  0.5103910000000  0.5398090000000 1.0
C      1  0.5262540000000  0.4977490000000  0.4475000000000 1.0
C      1  0.4817200000000  0.5133300000000  0.4567380000000 1.0
C      1  0.4692990000000  0.5649590000000  0.4918650000000 1.0
C      1  0.5351500000000  0.4967450000000  0.4785100000000 1.0
C      1  0.4964270000000  0.4683250000000  0.5501620000000 1.0
C      1  0.5187960000000  0.4444940000000  0.5096840000000 1.0
C      1  0.4762680000000  0.4444830000000  0.5020100000000 1.0
C      1  0.5182720000000  0.5446930000000  0.5027840000000 1.0
C      1  0.4525670000000  0.5097290000000  0.4695020000000 1.0
C      1  0.5472130000000  0.4939500000000  0.5160580000000 1.0
C      1  0.4603470000000  0.4895180000000  0.5184610000000 1.0
C      1  0.5071820000000  0.5134350000000  0.5380180000000 1.0
C      1  0.4911110000000  0.5420680000000  0.4527130000000 1.0
C      1  0.4974410000000  0.4929370000000  0.4464250000000 1.0
C      1  0.5351960000000  0.4431670000000  0.4630670000000 1.0
C      1  0.4411840000000  0.5362500000000  0.4571800000000 1.0
C      1  0.4344280000000  0.4452850000000  0.5334390000000 1.0
C      1  0.4640770000000  0.5542510000000  0.4432130000000 1.0
C      1  0.4655410000000  0.4437690000000  0.5455290000000 1.0
C      1  0.5460160000000  0.4733070000000  0.4572000000000 1.0
C      1  0.5488450000000  0.5342910000000  0.5428640000000 1.0
C      1  0.4500720000000  0.4718950000000  0.5456280000000 1.0
C      1  0.5435960000000  0.5547590000000  0.5192080000000 1.0
C      1  0.5628450000000  0.4530360000000  0.4788480000000 1.0
C      1  0.4506800000000  0.5644440000000  0.4704130000000 1.0
C      1  0.5572710000000  0.5652960000000  0.5469700000000 1.0
END
