TITL C-1154801-8518-576 -0.000142381129554746 125000 -342.160180919048 0 0 60 (C1) n - 1
REM
REM in /home/nfs/bkarasulu/CARBON/AIRSS/Generating-Clusters/AIREBO/Higher-Symm/Only-C60
REM
REM
REM
REM
REM
REM ./C.cell (28575a23ae977d3b5fae324c64b13b57)
REM
REM compiler GCC version 9.2.1 20190827 (Red Hat 9.2.1-1)
REM options -cpp -mtune=generic -march=x86-64 -g -O0 -fpre-include=/usr/include/finclude/math-vector-fortran.h
REM seed 1455145063 894783388 -1958572285 501718168 794523281 -62289771 -1511805509 1165408103 -461634960 540515980 2102855753 887202787 -2045487083 -324836825 -928234069 1284525245 -1696944329 189961434 -769174363 678488061 -1542774446 -1600577207 582435990 -2020821230 368377982 657280346 -1833204988 -1660608916 1423136192 1766669666 -895947457 2091508883 -222341568
REM
CELL 1.54180   50.00000   50.00000   50.00000   90.00000   90.00000   90.00000
LATT -1
SFAC C  
C      1  0.4855470000000  0.4267360000000  0.5012210000000 1.0
C      1  0.4874200000000  0.5757680000000  0.4965830000000 1.0
C      1  0.4296070000000  0.4860130000000  0.4676790000000 1.0
C      1  0.4306050000000  0.5156470000000  0.4710810000000 1.0
C      1  0.5345140000000  0.5134370000000  0.4401890000000 1.0
C      1  0.5330480000000  0.4847050000000  0.4404560000000 1.0
C      1  0.5157910000000  0.4478500000000  0.4666950000000 1.0
C      1  0.5153510000000  0.5504470000000  0.4642350000000 1.0
C      1  0.5264460000000  0.5439200000000  0.5188790000000 1.0
C      1  0.5277940000000  0.4564120000000  0.5183620000000 1.0
C      1  0.5147490000000  0.5759080000000  0.4796860000000 1.0
C      1  0.5119380000000  0.4233330000000  0.4827110000000 1.0
C      1  0.5235850000000  0.4585960000000  0.5586610000000 1.0
C      1  0.5285960000000  0.5367990000000  0.5697770000000 1.0
C      1  0.5016780000000  0.5159420000000  0.5675840000000 1.0
C      1  0.5065600000000  0.4827830000000  0.5737250000000 1.0
C      1  0.4674830000000  0.5572090000000  0.4880250000000 1.0
C      1  0.4653450000000  0.4445130000000  0.4926160000000 1.0
C      1  0.4384620000000  0.5377050000000  0.4550010000000 1.0
C      1  0.4388180000000  0.4622800000000  0.4563290000000 1.0
C      1  0.5765020000000  0.5132590000000  0.4988760000000 1.0
C      1  0.5769500000000  0.4866630000000  0.4975780000000 1.0
C      1  0.4357640000000  0.5214670000000  0.5021910000000 1.0
C      1  0.4350000000000  0.4876090000000  0.4990990000000 1.0
C      1  0.4857800000000  0.5162300000000  0.5114040000000 1.0
C      1  0.4864200000000  0.4840600000000  0.5105330000000 1.0
C      1  0.4625290000000  0.4493350000000  0.4648070000000 1.0
C      1  0.4624480000000  0.5522740000000  0.4602130000000 1.0
C      1  0.4876270000000  0.4561380000000  0.4503690000000 1.0
C      1  0.4876200000000  0.5462750000000  0.4448080000000 1.0
C      1  0.5583020000000  0.4647350000000  0.5135390000000 1.0
C      1  0.5570730000000  0.5340240000000  0.5159340000000 1.0
C      1  0.5410250000000  0.4664480000000  0.4611280000000 1.0
C      1  0.5408540000000  0.5318420000000  0.4617220000000 1.0
C      1  0.5348290000000  0.4869510000000  0.5457650000000 1.0
C      1  0.5343650000000  0.5148350000000  0.5448330000000 1.0
C      1  0.5030260000000  0.5263450000000  0.4839140000000 1.0
C      1  0.5030050000000  0.4746120000000  0.4823230000000 1.0
C      1  0.4956900000000  0.4881620000000  0.4542920000000 1.0
C      1  0.4973640000000  0.5160780000000  0.4546880000000 1.0
C      1  0.4476740000000  0.4800990000000  0.5630780000000 1.0
C      1  0.4384840000000  0.5117050000000  0.5558970000000 1.0
C      1  0.4600320000000  0.4692730000000  0.5097120000000 1.0
C      1  0.4621420000000  0.5347780000000  0.5042630000000 1.0
C      1  0.4241320000000  0.5111330000000  0.5293280000000 1.0
C      1  0.4369850000000  0.4795560000000  0.5323750000000 1.0
C      1  0.5609780000000  0.4662040000000  0.4796630000000 1.0
C      1  0.5587800000000  0.5328260000000  0.4819350000000 1.0
C      1  0.4686170000000  0.5136210000000  0.5599780000000 1.0
C      1  0.4778830000000  0.4838960000000  0.5681870000000 1.0
C      1  0.5247630000000  0.5137050000000  0.5033340000000 1.0
C      1  0.5253080000000  0.4862480000000  0.5022160000000 1.0
C      1  0.5160560000000  0.4297590000000  0.5129470000000 1.0
C      1  0.5163370000000  0.5702590000000  0.5106240000000 1.0
C      1  0.5555650000000  0.4600170000000  0.5465070000000 1.0
C      1  0.5529930000000  0.5424380000000  0.5486530000000 1.0
C      1  0.5110210000000  0.5291410000000  0.4265310000000 1.0
C      1  0.5079420000000  0.4718280000000  0.4276130000000 1.0
C      1  0.5036280000000  0.5255650000000  0.5350250000000 1.0
C      1  0.5051720000000  0.4746010000000  0.5346190000000 1.0
END
