TITL C-1154823-9327-331 0.000964202607471736 125000 -383.688249617888 0 0 60 (C1) n - 1
REM
REM in /home/nfs/bkarasulu/CARBON/AIRSS/Generating-Clusters/AIREBO/Higher-Symm/Only-C60
REM
REM
REM
REM
REM
REM ./C.cell (28575a23ae977d3b5fae324c64b13b57)
REM
REM compiler GCC version 9.2.1 20190827 (Red Hat 9.2.1-1)
REM options -cpp -mtune=generic -march=x86-64 -g -O0 -fpre-include=/usr/include/finclude/math-vector-fortran.h
REM seed -1476351908 719588840 486570959 -1323880109 -860997725 1251250111 -802218207 63048351 978314492 1195649921 -176110939 1797519343 386425951 -1064106973 -1649487467 -2114909322 -1585517279 2040143060 -138754621 -932110644 -1445450668 2097483536 1628744336 -1941730401 146182181 766788741 1844884931 1215136382 1676500978 442220697 -1924840055 2124788329 -1121111434
REM
CELL 1.54180   50.00000   50.00000   50.00000   90.00000   90.00000   90.00000
LATT -1
SFAC C  
C      1  0.5220250000000  0.4998000000000  0.5141790000000 1.0
C      1  0.5204820000000  0.5002180000000  0.4828830000000 1.0
C      1  0.4904980000000  0.5004310000000  0.4743530000000 1.0
C      1  0.4741070000000  0.4998080000000  0.5010920000000 1.0
C      1  0.4928670000000  0.4995100000000  0.5257740000000 1.0
C      1  0.5781550000000  0.5003580000000  0.5506170000000 1.0
C      1  0.5728710000000  0.5006930000000  0.4410680000000 1.0
C      1  0.4710070000000  0.4894310000000  0.4202630000000 1.0
C      1  0.4176100000000  0.4915470000000  0.4974590000000 1.0
C      1  0.4721960000000  0.4925390000000  0.5827510000000 1.0
C      1  0.4475610000000  0.4733660000000  0.4585240000000 1.0
C      1  0.4335990000000  0.4856850000000  0.5507580000000 1.0
C      1  0.5117670000000  0.4740230000000  0.5645860000000 1.0
C      1  0.5652510000000  0.4769020000000  0.5101610000000 1.0
C      1  0.5306310000000  0.4774340000000  0.4407060000000 1.0
C      1  0.4937330000000  0.5493130000000  0.5229950000000 1.0
C      1  0.5204940000000  0.5494480000000  0.5134190000000 1.0
C      1  0.5196330000000  0.5500050000000  0.4848350000000 1.0
C      1  0.4922420000000  0.5502580000000  0.4767690000000 1.0
C      1  0.4764180000000  0.5496310000000  0.5003680000000 1.0
C      1  0.5313890000000  0.5246230000000  0.4416080000000 1.0
C      1  0.4555260000000  0.5212830000000  0.4526820000000 1.0
C      1  0.4411590000000  0.5235690000000  0.5256490000000 1.0
C      1  0.5081160000000  0.5212880000000  0.5647100000000 1.0
C      1  0.5648910000000  0.5235090000000  0.5108010000000 1.0
C      1  0.5190790000000  0.4509490000000  0.4834990000000 1.0
C      1  0.4914630000000  0.4505190000000  0.4763360000000 1.0
C      1  0.4764830000000  0.4507580000000  0.5009650000000 1.0
C      1  0.4946350000000  0.4497580000000  0.5228920000000 1.0
C      1  0.5210550000000  0.4503710000000  0.5121140000000 1.0
C      1  0.5376300000000  0.4732030000000  0.5233490000000 1.0
C      1  0.5342200000000  0.4739450000000  0.4713170000000 1.0
C      1  0.4815910000000  0.4738100000000  0.4576850000000 1.0
C      1  0.4592970000000  0.4728840000000  0.5018030000000 1.0
C      1  0.4890730000000  0.4719480000000  0.5428420000000 1.0
C      1  0.5637190000000  0.5237380000000  0.4825970000000 1.0
C      1  0.5045490000000  0.5261590000000  0.4336100000000 1.0
C      1  0.4397130000000  0.5265420000000  0.4750560000000 1.0
C      1  0.4571480000000  0.5266280000000  0.5487880000000 1.0
C      1  0.5350330000000  0.5222490000000  0.5551580000000 1.0
C      1  0.5517570000000  0.4994630000000  0.5616790000000 1.0
C      1  0.5751600000000  0.5005350000000  0.4696090000000 1.0
C      1  0.4969650000000  0.5060490000000  0.4158510000000 1.0
C      1  0.4144490000000  0.5147120000000  0.4805900000000 1.0
C      1  0.4487420000000  0.5082950000000  0.5693900000000 1.0
C      1  0.5006590000000  0.4971850000000  0.5788420000000 1.0
C      1  0.5777250000000  0.5002600000000  0.5219810000000 1.0
C      1  0.5454530000000  0.5009770000000  0.4326780000000 1.0
C      1  0.4525530000000  0.4959510000000  0.4400490000000 1.0
C      1  0.4254250000000  0.4987820000000  0.5253190000000 1.0
C      1  0.4617730000000  0.4724930000000  0.5590630000000 1.0
C      1  0.5373920000000  0.4757830000000  0.5541530000000 1.0
C      1  0.5635620000000  0.4771670000000  0.4819620000000 1.0
C      1  0.5012940000000  0.4759970000000  0.4303790000000 1.0
C      1  0.4368370000000  0.4737100000000  0.4850710000000 1.0
C      1  0.4871990000000  0.5265540000000  0.5422350000000 1.0
C      1  0.5368380000000  0.5265010000000  0.5241540000000 1.0
C      1  0.5348570000000  0.5270960000000  0.4722300000000 1.0
C      1  0.4856620000000  0.5275810000000  0.4575710000000 1.0
C      1  0.4567830000000  0.5267770000000  0.5001740000000 1.0
END
