TITL C-1154824-75-557 0.00144044346497923 125000 -349.550327376478 0 0 60 (C1) n - 1
REM
REM in /home/nfs/bkarasulu/CARBON/AIRSS/Generating-Clusters/AIREBO/Higher-Symm/Only-C60
REM
REM
REM
REM
REM
REM ./C.cell (28575a23ae977d3b5fae324c64b13b57)
REM
REM compiler GCC version 9.2.1 20190827 (Red Hat 9.2.1-1)
REM options -cpp -mtune=generic -march=x86-64 -g -O0 -fpre-include=/usr/include/finclude/math-vector-fortran.h
REM seed 1102871955 -175955131 2073679224 507946863 523556969 -1236018119 1158501945 -623320629 1129196495 -1656714043 -1122805341 -1857218897 -1522763831 -1628832077 1945545780 949821726 -1795722531 -1379567030 385717343 -1582310769 844053094 104163879 -1391897500 505033304 1689114163 1171051145 1483404985 1570133080 -655974811 -491445018 -1387957555 271495509 1143890789
REM
CELL 1.54180   50.00000   50.00000   50.00000   90.00000   90.00000   90.00000
LATT -1
SFAC C  
C      1  0.5529790000000  0.4881890000000  0.4690890000000 1.0
C      1  0.5594450000000  0.5174170000000  0.4738640000000 1.0
C      1  0.5492920000000  0.4411890000000  0.4900730000000 1.0
C      1  0.5344250000000  0.5969400000000  0.4851830000000 1.0
C      1  0.4717980000000  0.5797170000000  0.5171260000000 1.0
C      1  0.4708400000000  0.4234930000000  0.5108130000000 1.0
C      1  0.5251920000000  0.4859720000000  0.4509170000000 1.0
C      1  0.5314860000000  0.5184390000000  0.4550170000000 1.0
C      1  0.4890240000000  0.4375230000000  0.5268330000000 1.0
C      1  0.4915720000000  0.5656100000000  0.5331280000000 1.0
C      1  0.4818200000000  0.5207360000000  0.4773940000000 1.0
C      1  0.4795020000000  0.4905290000000  0.4758990000000 1.0
C      1  0.5556470000000  0.5120010000000  0.5283720000000 1.0
C      1  0.5557590000000  0.4826120000000  0.5265980000000 1.0
C      1  0.4674270000000  0.5144900000000  0.5680880000000 1.0
C      1  0.4707470000000  0.4820450000000  0.5746650000000 1.0
C      1  0.4992430000000  0.5607810000000  0.4800800000000 1.0
C      1  0.5027470000000  0.4457140000000  0.4761140000000 1.0
C      1  0.4907030000000  0.4615080000000  0.4284090000000 1.0
C      1  0.5142870000000  0.5392130000000  0.4383580000000 1.0
C      1  0.5074130000000  0.4764180000000  0.4751510000000 1.0
C      1  0.5114960000000  0.5289590000000  0.4796810000000 1.0
C      1  0.5071030000000  0.5191660000000  0.5315640000000 1.0
C      1  0.5059110000000  0.4865880000000  0.5270850000000 1.0
C      1  0.4459630000000  0.4839750000000  0.5152750000000 1.0
C      1  0.4402500000000  0.5156840000000  0.5062450000000 1.0
C      1  0.5427000000000  0.4648020000000  0.5452110000000 1.0
C      1  0.5425470000000  0.5310110000000  0.5468480000000 1.0
C      1  0.5176460000000  0.5221110000000  0.5608030000000 1.0
C      1  0.5180990000000  0.4756740000000  0.5538690000000 1.0
C      1  0.5235850000000  0.4841120000000  0.4999730000000 1.0
C      1  0.5232970000000  0.5151600000000  0.5051470000000 1.0
C      1  0.5185650000000  0.5705560000000  0.5242830000000 1.0
C      1  0.5164680000000  0.4312960000000  0.5214430000000 1.0
C      1  0.5383200000000  0.4371540000000  0.5391330000000 1.0
C      1  0.5399640000000  0.5585750000000  0.5388730000000 1.0
C      1  0.4661500000000  0.5330980000000  0.5010010000000 1.0
C      1  0.4675620000000  0.4684860000000  0.4957400000000 1.0
C      1  0.4710970000000  0.5639680000000  0.4940880000000 1.0
C      1  0.4704470000000  0.4388860000000  0.4834690000000 1.0
C      1  0.4570000000000  0.5161020000000  0.5359020000000 1.0
C      1  0.4600460000000  0.4829170000000  0.5449060000000 1.0
C      1  0.4921880000000  0.5489610000000  0.4510180000000 1.0
C      1  0.4800390000000  0.4401200000000  0.4519100000000 1.0
C      1  0.5195170000000  0.5769790000000  0.4963810000000 1.0
C      1  0.5234140000000  0.4328800000000  0.4941010000000 1.0
C      1  0.4812440000000  0.4683470000000  0.5254160000000 1.0
C      1  0.4829550000000  0.5360930000000  0.5291800000000 1.0
C      1  0.5540350000000  0.5239470000000  0.5005990000000 1.0
C      1  0.5533060000000  0.4713360000000  0.4959540000000 1.0
C      1  0.4282890000000  0.5120330000000  0.4753130000000 1.0
C      1  0.4312530000000  0.4821200000000  0.4862350000000 1.0
C      1  0.5287940000000  0.4766560000000  0.4024990000000 1.0
C      1  0.5146830000000  0.4739840000000  0.4257860000000 1.0
C      1  0.4678420000000  0.5321090000000  0.4510640000000 1.0
C      1  0.4602950000000  0.4637630000000  0.4389400000000 1.0
C      1  0.5020110000000  0.4806820000000  0.5765090000000 1.0
C      1  0.4977860000000  0.5110190000000  0.5775910000000 1.0
C      1  0.4518500000000  0.4841340000000  0.4592350000000 1.0
C      1  0.4449370000000  0.5160250000000  0.4505600000000 1.0
END
