TITL C-1154802-8274-340 0.00142299048356898 125000 -346.885800003737 0 0 60 (C1) n - 1
REM
REM in /home/nfs/bkarasulu/CARBON/AIRSS/Generating-Clusters/AIREBO/Higher-Symm/Only-C60
REM
REM
REM
REM
REM
REM ./C.cell (28575a23ae977d3b5fae324c64b13b57)
REM
REM compiler GCC version 9.2.1 20190827 (Red Hat 9.2.1-1)
REM options -cpp -mtune=generic -march=x86-64 -g -O0 -fpre-include=/usr/include/finclude/math-vector-fortran.h
REM seed -497979544 -2004614041 538739205 -1918567255 1539588191 -937137464 2012572387 -1459076484 1212367744 -532242707 1362637992 -822641769 1001632122 -1524669852 157967267 -274875371 1081990257 136048006 74549140 1174142449 -707095863 933296955 1663640426 -1316553164 1214454711 672638744 -567529555 -2098879040 -1541417474 1245114692 -573801416 -1885637811 2135548005
REM
CELL 1.54180   50.00000   50.00000   50.00000   90.00000   90.00000   90.00000
LATT -1
SFAC C  
C      1  0.5038470000000  0.4517940000000  0.4449050000000 1.0
C      1  0.4986860000000  0.4743280000000  0.5686500000000 1.0
C      1  0.5026500000000  0.5771820000000  0.4854470000000 1.0
C      1  0.5591950000000  0.5266640000000  0.4806750000000 1.0
C      1  0.5562990000000  0.4933170000000  0.4821540000000 1.0
C      1  0.5436790000000  0.4991500000000  0.5320080000000 1.0
C      1  0.5044580000000  0.5685700000000  0.5126780000000 1.0
C      1  0.4904410000000  0.4753760000000  0.4347390000000 1.0
C      1  0.4838580000000  0.4557010000000  0.5530730000000 1.0
C      1  0.4880620000000  0.5583140000000  0.4683810000000 1.0
C      1  0.4882430000000  0.4399940000000  0.4675610000000 1.0
C      1  0.4871450000000  0.5009700000000  0.5656190000000 1.0
C      1  0.4293760000000  0.5029660000000  0.5481190000000 1.0
C      1  0.4302260000000  0.5490540000000  0.4738200000000 1.0
C      1  0.4456660000000  0.4588330000000  0.4888020000000 1.0
C      1  0.5439220000000  0.5303710000000  0.5263190000000 1.0
C      1  0.5429510000000  0.5099400000000  0.4487280000000 1.0
C      1  0.5401210000000  0.4533830000000  0.5115380000000 1.0
C      1  0.4972250000000  0.4841190000000  0.5137990000000 1.0
C      1  0.4971710000000  0.5173050000000  0.5052750000000 1.0
C      1  0.5016630000000  0.4934890000000  0.4813310000000 1.0
C      1  0.5424060000000  0.4929430000000  0.5713560000000 1.0
C      1  0.5279400000000  0.5711760000000  0.4670480000000 1.0
C      1  0.5429080000000  0.4385060000000  0.4675730000000 1.0
C      1  0.4889900000000  0.4205880000000  0.5144340000000 1.0
C      1  0.4912890000000  0.5474290000000  0.5545280000000 1.0
C      1  0.4926510000000  0.5258090000000  0.4330830000000 1.0
C      1  0.5025920000000  0.4287710000000  0.4911380000000 1.0
C      1  0.5030830000000  0.5241330000000  0.5620750000000 1.0
C      1  0.5042300000000  0.5433490000000  0.4508390000000 1.0
C      1  0.4871780000000  0.4283540000000  0.5471810000000 1.0
C      1  0.4936970000000  0.5735650000000  0.5377270000000 1.0
C      1  0.4917320000000  0.4973790000000  0.4172840000000 1.0
C      1  0.5259950000000  0.4736620000000  0.5606690000000 1.0
C      1  0.5379900000000  0.5601870000000  0.4931680000000 1.0
C      1  0.5297620000000  0.4587490000000  0.4533230000000 1.0
C      1  0.4635110000000  0.5102520000000  0.4105900000000 1.0
C      1  0.4606900000000  0.4097590000000  0.5471450000000 1.0
C      1  0.4638080000000  0.5822900000000  0.5381630000000 1.0
C      1  0.5742630000000  0.5051420000000  0.4549370000000 1.0
C      1  0.5562280000000  0.4802400000000  0.5088570000000 1.0
C      1  0.5657240000000  0.5356610000000  0.5076170000000 1.0
C      1  0.4777360000000  0.4863730000000  0.4623900000000 1.0
C      1  0.4715100000000  0.4724930000000  0.5288000000000 1.0
C      1  0.4697740000000  0.5315890000000  0.5065300000000 1.0
C      1  0.5225030000000  0.4740830000000  0.5285000000000 1.0
C      1  0.5180920000000  0.5392970000000  0.5112450000000 1.0
C      1  0.5288260000000  0.4863110000000  0.4663830000000 1.0
C      1  0.4635820000000  0.5458580000000  0.4811550000000 1.0
C      1  0.4667860000000  0.4592260000000  0.4709470000000 1.0
C      1  0.4627190000000  0.4958390000000  0.5475600000000 1.0
C      1  0.4655130000000  0.5097710000000  0.4447120000000 1.0
C      1  0.4581340000000  0.4261570000000  0.5200800000000 1.0
C      1  0.4631230000000  0.5482890000000  0.5354990000000 1.0
C      1  0.5309840000000  0.4349990000000  0.4929900000000 1.0
C      1  0.5336080000000  0.5203770000000  0.5571390000000 1.0
C      1  0.5355850000000  0.5389950000000  0.4595030000000 1.0
C      1  0.4521330000000  0.4531500000000  0.5152330000000 1.0
C      1  0.4496580000000  0.5201660000000  0.5303120000000 1.0
C      1  0.4481830000000  0.5282640000000  0.4586630000000 1.0
END
