TITL C-1154826-9507-488 0.000592281360859811 125000 -320.2220457467 0 0 60 (C1) n - 1
REM
REM in /home/nfs/bkarasulu/CARBON/AIRSS/Generating-Clusters/AIREBO/Higher-Symm/Only-C60
REM
REM
REM
REM
REM
REM ./C.cell (28575a23ae977d3b5fae324c64b13b57)
REM
REM compiler GCC version 9.2.1 20190827 (Red Hat 9.2.1-1)
REM options -cpp -mtune=generic -march=x86-64 -g -O0 -fpre-include=/usr/include/finclude/math-vector-fortran.h
REM seed 624799170 -610642967 -1464932558 -825689797 408207693 1738827932 743115891 -210103519 -1221793244 -1671656104 -373524933 -1342212319 -905803094 -446947838 195780943 1443455063 23010381 1790414755 -383453980 -1859178234 -658804225 116878549 1080070871 -421360683 327146363 923391393 -251375310 -1702943892 1966844995 2051795443 524171433 -1344985861 -1449523890
REM
CELL 1.54180   50.00000   50.00000   50.00000   90.00000   90.00000   90.00000
LATT -1
SFAC C  
C      1  0.4820920000000  0.4688220000000  0.4478560000000 1.0
C      1  0.4691860000000  0.4621060000000  0.4761760000000 1.0
C      1  0.4421850000000  0.4824740000000  0.4801980000000 1.0
C      1  0.5089850000000  0.5134460000000  0.4414990000000 1.0
C      1  0.4808450000000  0.5193080000000  0.5572500000000 1.0
C      1  0.5153530000000  0.4783090000000  0.5755030000000 1.0
C      1  0.5196340000000  0.5573770000000  0.4771820000000 1.0
C      1  0.4780460000000  0.5818300000000  0.5138770000000 1.0
C      1  0.5134750000000  0.4346840000000  0.5046270000000 1.0
C      1  0.5671030000000  0.5177680000000  0.4783530000000 1.0
C      1  0.4431550000000  0.5139450000000  0.5210670000000 1.0
C      1  0.5656880000000  0.4843910000000  0.5169230000000 1.0
C      1  0.4853620000000  0.4730960000000  0.5737640000000 1.0
C      1  0.4837870000000  0.4499500000000  0.5046060000000 1.0
C      1  0.4341540000000  0.4836500000000  0.5284560000000 1.0
C      1  0.5108080000000  0.5250930000000  0.5626510000000 1.0
C      1  0.4770850000000  0.5224110000000  0.4374740000000 1.0
C      1  0.5116920000000  0.4814950000000  0.4387380000000 1.0
C      1  0.5229850000000  0.5636200000000  0.5088980000000 1.0
C      1  0.4712080000000  0.5774450000000  0.4844660000000 1.0
C      1  0.5280930000000  0.4266600000000  0.4767940000000 1.0
C      1  0.5718330000000  0.5142190000000  0.5284790000000 1.0
C      1  0.4450460000000  0.5135160000000  0.4888770000000 1.0
C      1  0.5628210000000  0.4857490000000  0.4853090000000 1.0
C      1  0.5505490000000  0.4852440000000  0.5442000000000 1.0
C      1  0.4815660000000  0.5484640000000  0.5498060000000 1.0
C      1  0.5508140000000  0.5522190000000  0.4833500000000 1.0
C      1  0.4423170000000  0.5138320000000  0.5529890000000 1.0
C      1  0.5648250000000  0.5191640000000  0.4474810000000 1.0
C      1  0.4328980000000  0.4839030000000  0.4490870000000 1.0
C      1  0.5153860000000  0.4517770000000  0.5590010000000 1.0
C      1  0.4869790000000  0.4365870000000  0.4390870000000 1.0
C      1  0.5086110000000  0.5427120000000  0.4507810000000 1.0
C      1  0.4590010000000  0.4299500000000  0.4804910000000 1.0
C      1  0.5451850000000  0.4343330000000  0.5116640000000 1.0
C      1  0.4492260000000  0.5702700000000  0.5167410000000 1.0
C      1  0.5630990000000  0.4868140000000  0.4538220000000 1.0
C      1  0.4813890000000  0.5551470000000  0.4346450000000 1.0
C      1  0.5529820000000  0.5625610000000  0.5148640000000 1.0
C      1  0.4556630000000  0.5145660000000  0.4606620000000 1.0
C      1  0.5616130000000  0.5129590000000  0.5583070000000 1.0
C      1  0.4359300000000  0.4820960000000  0.5585900000000 1.0
C      1  0.5144390000000  0.4518750000000  0.4317190000000 1.0
C      1  0.4824940000000  0.4453680000000  0.5615260000000 1.0
C      1  0.5124820000000  0.5557910000000  0.5575380000000 1.0
C      1  0.4517010000000  0.4439530000000  0.5071180000000 1.0
C      1  0.5578410000000  0.4301390000000  0.4811570000000 1.0
C      1  0.4423390000000  0.5678700000000  0.4840100000000 1.0
C      1  0.5000540000000  0.5664360000000  0.5276570000000 1.0
C      1  0.5149720000000  0.4281890000000  0.4531980000000 1.0
C      1  0.4630580000000  0.4912630000000  0.4370330000000 1.0
C      1  0.4366820000000  0.4669590000000  0.5069060000000 1.0
C      1  0.5384970000000  0.5010590000000  0.4364930000000 1.0
C      1  0.4656710000000  0.4945540000000  0.5692450000000 1.0
C      1  0.5297130000000  0.5025920000000  0.5640950000000 1.0
C      1  0.4903560000000  0.5683380000000  0.4647210000000 1.0
C      1  0.4980330000000  0.4396050000000  0.5327150000000 1.0
C      1  0.5687260000000  0.5341480000000  0.5064330000000 1.0
C      1  0.4369150000000  0.5416880000000  0.5037300000000 1.0
C      1  0.5673770000000  0.4562120000000  0.5001150000000 1.0
END
