TITL C-1154821-8623-521 0.00133345540457583 125000 -329.405335448414 0 0 60 (C1) n - 1
REM
REM in /home/nfs/bkarasulu/CARBON/AIRSS/Generating-Clusters/AIREBO/Higher-Symm/Only-C60
REM
REM
REM
REM
REM
REM ./C.cell (28575a23ae977d3b5fae324c64b13b57)
REM
REM compiler GCC version 9.2.1 20190827 (Red Hat 9.2.1-1)
REM options -cpp -mtune=generic -march=x86-64 -g -O0 -fpre-include=/usr/include/finclude/math-vector-fortran.h
REM seed -309762556 247977337 1128063608 25082142 -918006193 1234924541 -316351590 1160896603 -235684205 -1990028011 -211051244 1452739195 -1151276673 -838778030 -921552494 1763747207 -1814850742 -552780563 -1476059066 -915977130 -1661186712 -1307271062 1366824569 1190445221 -1187919188 1132388774 1676077547 80543832 1099957758 -1528654575 -207771523 1288746903 -1537045525
REM
CELL 1.54180   50.00000   50.00000   50.00000   90.00000   90.00000   90.00000
LATT -1
SFAC C  
C      1  0.5000740000000  0.4777000000000  0.4198060000000 1.0
C      1  0.4283980000000  0.4803610000000  0.5330120000000 1.0
C      1  0.5656180000000  0.4843370000000  0.5386960000000 1.0
C      1  0.5015000000000  0.5148990000000  0.5782790000000 1.0
C      1  0.4345700000000  0.5173150000000  0.4625170000000 1.0
C      1  0.5696550000000  0.5182420000000  0.4586550000000 1.0
C      1  0.5238230000000  0.5522160000000  0.4715160000000 1.0
C      1  0.4532450000000  0.5583860000000  0.4957320000000 1.0
C      1  0.5119610000000  0.5593910000000  0.5456580000000 1.0
C      1  0.5343020000000  0.4374140000000  0.5357310000000 1.0
C      1  0.4630200000000  0.4493570000000  0.5001570000000 1.0
C      1  0.5118810000000  0.4476920000000  0.4687580000000 1.0
C      1  0.4556530000000  0.4820380000000  0.4560790000000 1.0
C      1  0.4978940000000  0.4789190000000  0.5613020000000 1.0
C      1  0.5645310000000  0.4761100000000  0.4879850000000 1.0
C      1  0.4546890000000  0.5184110000000  0.5465580000000 1.0
C      1  0.4785040000000  0.5228240000000  0.4355850000000 1.0
C      1  0.5625760000000  0.5195550000000  0.5140810000000 1.0
C      1  0.5010280000000  0.4533900000000  0.4412620000000 1.0
C      1  0.4480260000000  0.4590370000000  0.5219930000000 1.0
C      1  0.5504190000000  0.4585140000000  0.5317530000000 1.0
C      1  0.4990310000000  0.5419850000000  0.5651190000000 1.0
C      1  0.4486890000000  0.5433240000000  0.4724340000000 1.0
C      1  0.5527260000000  0.5444070000000  0.4665780000000 1.0
C      1  0.4678030000000  0.4826600000000  0.5352900000000 1.0
C      1  0.5391050000000  0.4779860000000  0.5095450000000 1.0
C      1  0.4872640000000  0.4780080000000  0.4575200000000 1.0
C      1  0.4734040000000  0.5242900000000  0.4684370000000 1.0
C      1  0.5433980000000  0.5217630000000  0.4884300000000 1.0
C      1  0.4869200000000  0.5239230000000  0.5422190000000 1.0
C      1  0.4462680000000  0.4895360000000  0.5607860000000 1.0
C      1  0.5833150000000  0.4975290000000  0.5157540000000 1.0
C      1  0.4747310000000  0.4939930000000  0.4218400000000 1.0
C      1  0.4447070000000  0.5019540000000  0.4357170000000 1.0
C      1  0.5804970000000  0.5031990000000  0.4823260000000 1.0
C      1  0.4767620000000  0.4952800000000  0.5747470000000 1.0
C      1  0.5248750000000  0.4967110000000  0.4289100000000 1.0
C      1  0.4153940000000  0.4936790000000  0.5116030000000 1.0
C      1  0.5464290000000  0.5025160000000  0.5545160000000 1.0
C      1  0.5286180000000  0.5051460000000  0.5761900000000 1.0
C      1  0.4271400000000  0.5002530000000  0.4869210000000 1.0
C      1  0.5485110000000  0.4993590000000  0.4430050000000 1.0
C      1  0.5068450000000  0.4279890000000  0.4879480000000 1.0
C      1  0.4802620000000  0.4274860000000  0.5046640000000 1.0
C      1  0.5077420000000  0.4387320000000  0.5205860000000 1.0
C      1  0.5082790000000  0.5548260000000  0.5191280000000 1.0
C      1  0.4843050000000  0.5682080000000  0.5028620000000 1.0
C      1  0.5107830000000  0.5731090000000  0.4836450000000 1.0
C      1  0.5179580000000  0.4738320000000  0.4846380000000 1.0
C      1  0.4844530000000  0.4739290000000  0.4905050000000 1.0
C      1  0.4948690000000  0.4695110000000  0.5225750000000 1.0
C      1  0.5174500000000  0.5308200000000  0.5046710000000 1.0
C      1  0.4710040000000  0.5405240000000  0.5179390000000 1.0
C      1  0.5059620000000  0.5265350000000  0.4733500000000 1.0
C      1  0.5043530000000  0.4985850000000  0.5362720000000 1.0
C      1  0.5410920000000  0.4949520000000  0.4737270000000 1.0
C      1  0.4610580000000  0.4981360000000  0.4856730000000 1.0
C      1  0.5018250000000  0.5038610000000  0.4497540000000 1.0
C      1  0.5323740000000  0.5070700000000  0.5238890000000 1.0
C      1  0.4624320000000  0.5082850000000  0.5151760000000 1.0
END
