TITL C-1154829-9094-277 -0.00422051313876092 125000 -322.233999048191 0 0 60 (C1) n - 1
REM
REM in /home/nfs/bkarasulu/CARBON/AIRSS/Generating-Clusters/AIREBO/Higher-Symm/Only-C60
REM
REM
REM
REM
REM
REM ./C.cell (28575a23ae977d3b5fae324c64b13b57)
REM
REM compiler GCC version 9.2.1 20190827 (Red Hat 9.2.1-1)
REM options -cpp -mtune=generic -march=x86-64 -g -O0 -fpre-include=/usr/include/finclude/math-vector-fortran.h
REM seed 2006710344 665087440 309878059 164265235 -420823534 240410269 -1073973457 2084669535 427764629 375366038 2017194968 1537759641 -1130119858 1152193651 1871042022 1218573443 -518628858 -1183609408 -828640907 1533040621 -6589167 1495455861 1047180522 1619889722 -1634472903 -759752568 -455699966 -165475845 -428894979 1178607242 -1478624728 -1365037489 -1828083758
REM
CELL 1.54180   50.00000   50.00000   50.00000   90.00000   90.00000   90.00000
LATT -1
SFAC C  
C      1  0.4220060000000  0.5243410000000  0.4993740000000 1.0
C      1  0.4760350000000  0.5281770000000  0.4309060000000 1.0
C      1  0.5613960000000  0.5293560000000  0.4543660000000 1.0
C      1  0.5780180000000  0.5249500000000  0.5444610000000 1.0
C      1  0.4829260000000  0.5351940000000  0.5718160000000 1.0
C      1  0.4253200000000  0.4693860000000  0.4972840000000 1.0
C      1  0.4761730000000  0.4720490000000  0.4300260000000 1.0
C      1  0.5519630000000  0.4722680000000  0.4592800000000 1.0
C      1  0.5562150000000  0.4743240000000  0.5432010000000 1.0
C      1  0.4729670000000  0.4776250000000  0.5718790000000 1.0
C      1  0.5305220000000  0.5172380000000  0.4987780000000 1.0
C      1  0.5199460000000  0.5289720000000  0.5354350000000 1.0
C      1  0.4803570000000  0.5108830000000  0.5224030000000 1.0
C      1  0.4693070000000  0.5094250000000  0.4918560000000 1.0
C      1  0.5035140000000  0.5109880000000  0.4713590000000 1.0
C      1  0.5378580000000  0.4891970000000  0.5109470000000 1.0
C      1  0.5182750000000  0.4992330000000  0.5323250000000 1.0
C      1  0.4688370000000  0.4803090000000  0.5192340000000 1.0
C      1  0.4657830000000  0.4836730000000  0.4791920000000 1.0
C      1  0.5151310000000  0.4873940000000  0.4626380000000 1.0
C      1  0.5296650000000  0.5330090000000  0.5739610000000 1.0
C      1  0.4316860000000  0.5268470000000  0.5445990000000 1.0
C      1  0.4361340000000  0.5306330000000  0.4541810000000 1.0
C      1  0.5245370000000  0.5361970000000  0.4272910000000 1.0
C      1  0.5819270000000  0.5297600000000  0.4983550000000 1.0
C      1  0.5288140000000  0.4738100000000  0.5615010000000 1.0
C      1  0.4467700000000  0.4713480000000  0.5511210000000 1.0
C      1  0.4313440000000  0.4712580000000  0.4638250000000 1.0
C      1  0.5098950000000  0.4731340000000  0.4258160000000 1.0
C      1  0.5654200000000  0.4698790000000  0.4894620000000 1.0
C      1  0.4773650000000  0.5327320000000  0.4705070000000 1.0
C      1  0.5255710000000  0.5359260000000  0.4707640000000 1.0
C      1  0.5441200000000  0.5430640000000  0.5162170000000 1.0
C      1  0.4920890000000  0.5403180000000  0.5333000000000 1.0
C      1  0.4577400000000  0.5343250000000  0.5139570000000 1.0
C      1  0.4729860000000  0.4527180000000  0.4648970000000 1.0
C      1  0.5145850000000  0.4589260000000  0.4656640000000 1.0
C      1  0.5340120000000  0.4584650000000  0.5112630000000 1.0
C      1  0.4958700000000  0.4784930000000  0.5394080000000 1.0
C      1  0.4732740000000  0.4568120000000  0.4986490000000 1.0
C      1  0.5033790000000  0.4913360000000  0.5699810000000 1.0
C      1  0.4361070000000  0.4832340000000  0.5225890000000 1.0
C      1  0.4558300000000  0.4860940000000  0.4473810000000 1.0
C      1  0.5356190000000  0.4906430000000  0.4385770000000 1.0
C      1  0.5695080000000  0.4867490000000  0.5165120000000 1.0
C      1  0.5055880000000  0.5206370000000  0.5754250000000 1.0
C      1  0.4249070000000  0.5114470000000  0.5233600000000 1.0
C      1  0.4534590000000  0.5154560000000  0.4396140000000 1.0
C      1  0.5441480000000  0.5191900000000  0.4358410000000 1.0
C      1  0.5822540000000  0.5133320000000  0.5200260000000 1.0
C      1  0.4447890000000  0.4465900000000  0.4828830000000 1.0
C      1  0.4952600000000  0.4474540000000  0.4435040000000 1.0
C      1  0.5392910000000  0.4494600000000  0.4819310000000 1.0
C      1  0.5344960000000  0.4502440000000  0.5393800000000 1.0
C      1  0.4739400000000  0.4542230000000  0.5489450000000 1.0
C      1  0.4467710000000  0.5409020000000  0.4829900000000 1.0
C      1  0.5009110000000  0.5432260000000  0.4484310000000 1.0
C      1  0.5557630000000  0.5437990000000  0.4842750000000 1.0
C      1  0.5498120000000  0.5378450000000  0.5491230000000 1.0
C      1  0.4618140000000  0.5355040000000  0.5477390000000 1.0
END
