TITL C-1154821-8623-161 0.00115106231301955 125000 -352.973792740646 0 0 60 (C1) n - 1
REM
REM in /home/nfs/bkarasulu/CARBON/AIRSS/Generating-Clusters/AIREBO/Higher-Symm/Only-C60
REM
REM
REM
REM
REM
REM ./C.cell (28575a23ae977d3b5fae324c64b13b57)
REM
REM compiler GCC version 9.2.1 20190827 (Red Hat 9.2.1-1)
REM options -cpp -mtune=generic -march=x86-64 -g -O0 -fpre-include=/usr/include/finclude/math-vector-fortran.h
REM seed 2070090032 -1876066051 952882436 -1789226545 -1174763959 579325360 -2002780627 921628422 -1665362515 -712295103 1059851139 -1842242581 517514329 2006341887 887576584 1352548516 1049789544 -1165068718 1972144898 1227942751 1662332756 -1352574354 -618305265 -2124728740 -216761510 -528888182 -1350650720 -601904789 1869205846 2062909598 502700383 1330211957 622433690
REM
CELL 1.54180   50.00000   50.00000   50.00000   90.00000   90.00000   90.00000
LATT -1
SFAC C  
C      1  0.5171370000000  0.5268920000000  0.5236990000000 1.0
C      1  0.5214490000000  0.4814520000000  0.5364840000000 1.0
C      1  0.5266410000000  0.4644550000000  0.4899910000000 1.0
C      1  0.5235550000000  0.4885820000000  0.4552250000000 1.0
C      1  0.5264570000000  0.5258440000000  0.4710340000000 1.0
C      1  0.5130260000000  0.4204550000000  0.4697020000000 1.0
C      1  0.5134350000000  0.5195350000000  0.4169400000000 1.0
C      1  0.5032760000000  0.5684980000000  0.4615120000000 1.0
C      1  0.5080540000000  0.5446870000000  0.5709310000000 1.0
C      1  0.5117420000000  0.4393700000000  0.5618340000000 1.0
C      1  0.4984110000000  0.4745840000000  0.4915750000000 1.0
C      1  0.5013750000000  0.5044770000000  0.4755110000000 1.0
C      1  0.4934850000000  0.5259900000000  0.5006610000000 1.0
C      1  0.4908000000000  0.5086630000000  0.5288100000000 1.0
C      1  0.4943340000000  0.4785460000000  0.5222600000000 1.0
C      1  0.4800890000000  0.4297670000000  0.4346800000000 1.0
C      1  0.4909230000000  0.5591270000000  0.4371820000000 1.0
C      1  0.4874530000000  0.5976190000000  0.4979850000000 1.0
C      1  0.4745740000000  0.5229060000000  0.5994770000000 1.0
C      1  0.4734910000000  0.4116850000000  0.5485170000000 1.0
C      1  0.5741530000000  0.4769550000000  0.4946600000000 1.0
C      1  0.5740240000000  0.4987470000000  0.4749270000000 1.0
C      1  0.5729000000000  0.5241820000000  0.4898850000000 1.0
C      1  0.5695710000000  0.5178600000000  0.5181940000000 1.0
C      1  0.5707690000000  0.4888680000000  0.5211580000000 1.0
C      1  0.4790510000000  0.4552690000000  0.4772060000000 1.0
C      1  0.4796220000000  0.5124740000000  0.4525670000000 1.0
C      1  0.4743980000000  0.5496380000000  0.4957230000000 1.0
C      1  0.4718200000000  0.5194180000000  0.5501350000000 1.0
C      1  0.4745970000000  0.4597850000000  0.5363590000000 1.0
C      1  0.5526360000000  0.5399810000000  0.4792720000000 1.0
C      1  0.5492710000000  0.5314290000000  0.5310560000000 1.0
C      1  0.5533950000000  0.4763980000000  0.5394640000000 1.0
C      1  0.5570340000000  0.4550600000000  0.4889500000000 1.0
C      1  0.5544360000000  0.4975330000000  0.4545900000000 1.0
C      1  0.4497810000000  0.4497020000000  0.4919030000000 1.0
C      1  0.4528850000000  0.4918140000000  0.4508320000000 1.0
C      1  0.4468970000000  0.5423430000000  0.4792290000000 1.0
C      1  0.4444030000000  0.5327560000000  0.5368920000000 1.0
C      1  0.4455200000000  0.4743660000000  0.5449890000000 1.0
C      1  0.4664610000000  0.5144980000000  0.6229370000000 1.0
C      1  0.4622530000000  0.3882190000000  0.5453640000000 1.0
C      1  0.4719230000000  0.4276570000000  0.4098660000000 1.0
C      1  0.4786300000000  0.5760440000000  0.4201620000000 1.0
C      1  0.4894060000000  0.6195760000000  0.5121590000000 1.0
C      1  0.5285750000000  0.5573240000000  0.4668670000000 1.0
C      1  0.5274340000000  0.5389060000000  0.5523810000000 1.0
C      1  0.5312240000000  0.4561690000000  0.5517850000000 1.0
C      1  0.5329610000000  0.4346700000000  0.4824460000000 1.0
C      1  0.5335370000000  0.5043920000000  0.4295420000000 1.0
C      1  0.4903700000000  0.4338730000000  0.4598060000000 1.0
C      1  0.4922720000000  0.5309550000000  0.4322570000000 1.0
C      1  0.4875710000000  0.5737540000000  0.4845060000000 1.0
C      1  0.4846390000000  0.5295080000000  0.5748260000000 1.0
C      1  0.4865830000000  0.4358020000000  0.5495000000000 1.0
C      1  0.4456420000000  0.5378460000000  0.5101360000000 1.0
C      1  0.4448710000000  0.5014620000000  0.5418710000000 1.0
C      1  0.4477070000000  0.4605340000000  0.5166860000000 1.0
C      1  0.4514690000000  0.4719000000000  0.4693920000000 1.0
C      1  0.4496040000000  0.5191930000000  0.4655100000000 1.0
END
