TITL C-1154825-9328-475 0.00159716756929614 125000 -317.305303310191 0 0 60 (C1) n - 1
REM
REM in /home/nfs/bkarasulu/CARBON/AIRSS/Generating-Clusters/AIREBO/Higher-Symm/Only-C60
REM
REM
REM
REM
REM
REM ./C.cell (28575a23ae977d3b5fae324c64b13b57)
REM
REM compiler GCC version 9.2.1 20190827 (Red Hat 9.2.1-1)
REM options -cpp -mtune=generic -march=x86-64 -g -O0 -fpre-include=/usr/include/finclude/math-vector-fortran.h
REM seed -602073885 513670249 1511225981 969166944 294740167 -1059025516 544170630 -635047390 -1024207359 1152809045 2082078262 -470531259 1754687223 291729895 2066923873 516398803 513675073 -204209617 1502167814 -1931772517 -2018572824 -1076235174 312973902 -698447075 -1222455567 -221742078 442770110 632352743 -1302272691 -11633111 814946193 -55000031 -173828105
REM
CELL 1.54180   50.00000   50.00000   50.00000   90.00000   90.00000   90.00000
LATT -1
SFAC C  
C      1  0.4380750000000  0.5363920000000  0.5535700000000 1.0
C      1  0.5610680000000  0.5384400000000  0.5053180000000 1.0
C      1  0.4848850000000  0.5300850000000  0.4414720000000 1.0
C      1  0.5769010000000  0.4517520000000  0.4934270000000 1.0
C      1  0.4578420000000  0.4569020000000  0.4405210000000 1.0
C      1  0.4745470000000  0.4594020000000  0.5683540000000 1.0
C      1  0.4868340000000  0.5035750000000  0.4713500000000 1.0
C      1  0.4758620000000  0.4991570000000  0.5344910000000 1.0
C      1  0.5419530000000  0.4887310000000  0.5027890000000 1.0
C      1  0.4631460000000  0.5512920000000  0.5386710000000 1.0
C      1  0.5483970000000  0.5655620000000  0.5148250000000 1.0
C      1  0.4855180000000  0.5585810000000  0.4581900000000 1.0
C      1  0.4754790000000  0.5450200000000  0.5076130000000 1.0
C      1  0.5184050000000  0.5731470000000  0.5050260000000 1.0
C      1  0.4946670000000  0.5596660000000  0.4909240000000 1.0
C      1  0.4860590000000  0.5296980000000  0.5454410000000 1.0
C      1  0.5611430000000  0.5374740000000  0.4749970000000 1.0
C      1  0.4680970000000  0.5320730000000  0.4705410000000 1.0
C      1  0.4966000000000  0.4502390000000  0.5526110000000 1.0
C      1  0.5547480000000  0.4427660000000  0.4775840000000 1.0
C      1  0.4539180000000  0.4512150000000  0.4677200000000 1.0
C      1  0.5195200000000  0.5321300000000  0.5398270000000 1.0
C      1  0.5332500000000  0.5350770000000  0.4636890000000 1.0
C      1  0.4412780000000  0.5377540000000  0.4883910000000 1.0
C      1  0.5670650000000  0.5072150000000  0.5163850000000 1.0
C      1  0.4901220000000  0.4973240000000  0.4380900000000 1.0
C      1  0.4435370000000  0.5044820000000  0.5436290000000 1.0
C      1  0.5411380000000  0.4886700000000  0.4689330000000 1.0
C      1  0.4565350000000  0.4958430000000  0.4847070000000 1.0
C      1  0.5077270000000  0.4942370000000  0.5349540000000 1.0
C      1  0.5209920000000  0.4642120000000  0.5061960000000 1.0
C      1  0.4938750000000  0.4759670000000  0.4899460000000 1.0
C      1  0.4720540000000  0.4727680000000  0.5133860000000 1.0
C      1  0.4474340000000  0.5626550000000  0.5107220000000 1.0
C      1  0.5233710000000  0.5631310000000  0.5342140000000 1.0
C      1  0.5174910000000  0.5607730000000  0.4662170000000 1.0
C      1  0.5421940000000  0.4613260000000  0.5326290000000 1.0
C      1  0.5195480000000  0.4503730000000  0.4498170000000 1.0
C      1  0.4408360000000  0.4593000000000  0.5130020000000 1.0
C      1  0.5208040000000  0.5129460000000  0.5119190000000 1.0
C      1  0.5181220000000  0.5111520000000  0.4799280000000 1.0
C      1  0.4699080000000  0.5142190000000  0.5058990000000 1.0
C      1  0.4679700000000  0.4388830000000  0.5147120000000 1.0
C      1  0.5148050000000  0.4334530000000  0.5136620000000 1.0
C      1  0.5018550000000  0.4457130000000  0.4764670000000 1.0
C      1  0.4759330000000  0.4729790000000  0.4281180000000 1.0
C      1  0.4618620000000  0.4818760000000  0.5612420000000 1.0
C      1  0.5731440000000  0.4759540000000  0.5038460000000 1.0
C      1  0.4731400000000  0.4362320000000  0.4824500000000 1.0
C      1  0.4929120000000  0.4321110000000  0.5307480000000 1.0
C      1  0.5303150000000  0.4303760000000  0.4870690000000 1.0
C      1  0.4357630000000  0.5284270000000  0.5207410000000 1.0
C      1  0.5532510000000  0.5285190000000  0.5375050000000 1.0
C      1  0.5164350000000  0.5189620000000  0.4408860000000 1.0
C      1  0.5824710000000  0.5415110000000  0.4605220000000 1.0
C      1  0.4178560000000  0.5390060000000  0.4728360000000 1.0
C      1  0.5069060000000  0.5285710000000  0.5722820000000 1.0
C      1  0.4435380000000  0.4715670000000  0.4852970000000 1.0
C      1  0.5165280000000  0.4703280000000  0.5454640000000 1.0
C      1  0.5443730000000  0.4628090000000  0.4582420000000 1.0
END
