TITL C-1154802-8274-303 -0.00245919473548665 125000 -324.353562934183 0 0 60 (C1) n - 1
REM
REM in /home/nfs/bkarasulu/CARBON/AIRSS/Generating-Clusters/AIREBO/Higher-Symm/Only-C60
REM
REM
REM
REM
REM
REM ./C.cell (28575a23ae977d3b5fae324c64b13b57)
REM
REM compiler GCC version 9.2.1 20190827 (Red Hat 9.2.1-1)
REM options -cpp -mtune=generic -march=x86-64 -g -O0 -fpre-include=/usr/include/finclude/math-vector-fortran.h
REM seed -2131651795 -258945365 -734666840 -1182868434 -1134398075 810306789 -897689010 -278713255 -107993347 761433284 342555995 1661729702 -2116767974 1221898139 -792288317 -820116242 -477073318 -520873833 1738402477 -232296567 1038626865 1700103449 -1148082335 -271594484 628102380 -750789149 1715824045 -111736682 1202294195 -684768750 722535509 -1245212913 -1604987354
REM
CELL 1.54180   50.00000   50.00000   50.00000   90.00000   90.00000   90.00000
LATT -1
SFAC C  
C      1  0.4878850000000  0.5110370000000  0.4740840000000 1.0
C      1  0.5303820000000  0.5121290000000  0.5034900000000 1.0
C      1  0.4735990000000  0.5090670000000  0.5359630000000 1.0
C      1  0.4945190000000  0.4862640000000  0.4659780000000 1.0
C      1  0.5427730000000  0.4884560000000  0.4997900000000 1.0
C      1  0.4708690000000  0.4850980000000  0.5252500000000 1.0
C      1  0.4989010000000  0.4548020000000  0.4688430000000 1.0
C      1  0.5403200000000  0.4635220000000  0.5157100000000 1.0
C      1  0.4703510000000  0.4576880000000  0.5113350000000 1.0
C      1  0.5074190000000  0.5347370000000  0.4781260000000 1.0
C      1  0.5179020000000  0.5416800000000  0.5098380000000 1.0
C      1  0.4615700000000  0.5328990000000  0.5294320000000 1.0
C      1  0.4677480000000  0.4368150000000  0.4515770000000 1.0
C      1  0.5693800000000  0.4234000000000  0.5037290000000 1.0
C      1  0.4748340000000  0.4155450000000  0.5365850000000 1.0
C      1  0.4727810000000  0.5539220000000  0.4393230000000 1.0
C      1  0.5590850000000  0.5744330000000  0.5104910000000 1.0
C      1  0.4547170000000  0.5709620000000  0.5598960000000 1.0
C      1  0.4247990000000  0.4948570000000  0.4473180000000 1.0
C      1  0.5826640000000  0.4817190000000  0.4605190000000 1.0
C      1  0.5018210000000  0.4824330000000  0.5947310000000 1.0
C      1  0.4400380000000  0.5210680000000  0.4495760000000 1.0
C      1  0.5860620000000  0.5097600000000  0.4486130000000 1.0
C      1  0.4876160000000  0.5089800000000  0.5886960000000 1.0
C      1  0.5400440000000  0.5615230000000  0.4959140000000 1.0
C      1  0.4705030000000  0.5546880000000  0.5455430000000 1.0
C      1  0.4864670000000  0.5573130000000  0.4634490000000 1.0
C      1  0.5483000000000  0.4394090000000  0.4966880000000 1.0
C      1  0.4857370000000  0.4389920000000  0.5286910000000 1.0
C      1  0.4690390000000  0.4462450000000  0.4797380000000 1.0
C      1  0.4268760000000  0.4927940000000  0.5098300000000 1.0
C      1  0.5258810000000  0.4858810000000  0.4329490000000 1.0
C      1  0.5462340000000  0.4981980000000  0.5567750000000 1.0
C      1  0.4315260000000  0.5171320000000  0.5071250000000 1.0
C      1  0.5272130000000  0.5108990000000  0.4333140000000 1.0
C      1  0.5409470000000  0.5247320000000  0.5544270000000 1.0
C      1  0.4407470000000  0.4369350000000  0.4944320000000 1.0
C      1  0.5350600000000  0.4387720000000  0.4724890000000 1.0
C      1  0.5109000000000  0.4459530000000  0.5362340000000 1.0
C      1  0.4696490000000  0.5637140000000  0.4881010000000 1.0
C      1  0.5355590000000  0.5612370000000  0.4681910000000 1.0
C      1  0.4991380000000  0.5580410000000  0.5424640000000 1.0
C      1  0.5581540000000  0.5127690000000  0.4585220000000 1.0
C      1  0.4952660000000  0.5124190000000  0.5557110000000 1.0
C      1  0.4586080000000  0.5165070000000  0.4777260000000 1.0
C      1  0.5506780000000  0.4836860000000  0.4718730000000 1.0
C      1  0.5096790000000  0.4850580000000  0.5661570000000 1.0
C      1  0.4400880000000  0.4886370000000  0.4723640000000 1.0
C      1  0.5294050000000  0.4730260000000  0.5452130000000 1.0
C      1  0.4390960000000  0.4678400000000  0.4948740000000 1.0
C      1  0.5285890000000  0.4670810000000  0.4576850000000 1.0
C      1  0.5145980000000  0.5343450000000  0.5471910000000 1.0
C      1  0.4544320000000  0.5397770000000  0.4991800000000 1.0
C      1  0.5336510000000  0.5317170000000  0.4572040000000 1.0
C      1  0.4824340000000  0.5814430000000  0.5042530000000 1.0
C      1  0.5131540000000  0.5748030000000  0.4601310000000 1.0
C      1  0.5052240000000  0.5721750000000  0.5178230000000 1.0
C      1  0.4275220000000  0.4156890000000  0.4997620000000 1.0
C      1  0.5113310000000  0.4233870000000  0.4634340000000 1.0
C      1  0.5402360000000  0.4359160000000  0.5356520000000 1.0
END
