TITL C-1154830-9999-696 0.000559568759258043 125000 -351.365328686117 0 0 60 (C1) n - 1
REM
REM in /home/nfs/bkarasulu/CARBON/AIRSS/Generating-Clusters/AIREBO/Higher-Symm/Only-C60
REM
REM
REM
REM
REM
REM ./C.cell (28575a23ae977d3b5fae324c64b13b57)
REM
REM compiler GCC version 9.2.1 20190827 (Red Hat 9.2.1-1)
REM options -cpp -mtune=generic -march=x86-64 -g -O0 -fpre-include=/usr/include/finclude/math-vector-fortran.h
REM seed 735391217 1904296016 567559415 -2095156390 1452519685 -330514871 -1354376772 1199586658 -1834274448 -91917488 1418838246 -489368256 1858295903 -2126915343 -1276884839 -1894777853 -558631357 -921960671 687973536 -129088839 -1556737229 -803933938 -1879093361 94386557 -1528277513 -1410667603 -1556317030 1558468022 1069894241 214596903 -874063216 7489483 1922255770
REM
CELL 1.54180   50.00000   50.00000   50.00000   90.00000   90.00000   90.00000
LATT -1
SFAC C  
C      1  0.4955320000000  0.5080070000000  0.5748610000000 1.0
C      1  0.4954090000000  0.5721160000000  0.5153120000000 1.0
C      1  0.4944840000000  0.5405070000000  0.4371650000000 1.0
C      1  0.4952130000000  0.4498120000000  0.4428750000000 1.0
C      1  0.4951240000000  0.4307090000000  0.5310250000000 1.0
C      1  0.5051040000000  0.5106420000000  0.4298100000000 1.0
C      1  0.5004280000000  0.5746360000000  0.4832280000000 1.0
C      1  0.5044750000000  0.5381650000000  0.5635480000000 1.0
C      1  0.5041570000000  0.4500170000000  0.5566200000000 1.0
C      1  0.5045330000000  0.4310460000000  0.4686200000000 1.0
C      1  0.4377380000000  0.4919760000000  0.4750600000000 1.0
C      1  0.4384780000000  0.4738140000000  0.4996860000000 1.0
C      1  0.4373340000000  0.4913730000000  0.5247260000000 1.0
C      1  0.4379090000000  0.5206160000000  0.5151880000000 1.0
C      1  0.4363630000000  0.5211440000000  0.4846250000000 1.0
C      1  0.5627440000000  0.4914260000000  0.5263300000000 1.0
C      1  0.5619400000000  0.4731960000000  0.5016210000000 1.0
C      1  0.5631880000000  0.4908750000000  0.4777240000000 1.0
C      1  0.5650760000000  0.5191630000000  0.4857180000000 1.0
C      1  0.5646730000000  0.5211620000000  0.5157840000000 1.0
C      1  0.4859520000000  0.4832170000000  0.5203570000000 1.0
C      1  0.4818790000000  0.5134290000000  0.5214800000000 1.0
C      1  0.4873160000000  0.5248890000000  0.4927330000000 1.0
C      1  0.4820160000000  0.5025200000000  0.4735770000000 1.0
C      1  0.4845870000000  0.4747570000000  0.4881770000000 1.0
C      1  0.5154760000000  0.4818860000000  0.4788900000000 1.0
C      1  0.5215780000000  0.5130000000000  0.4760640000000 1.0
C      1  0.5165040000000  0.5245230000000  0.5053930000000 1.0
C      1  0.5201170000000  0.5027640000000  0.5258110000000 1.0
C      1  0.5163990000000  0.4747340000000  0.5114920000000 1.0
C      1  0.4653840000000  0.5623280000000  0.5156140000000 1.0
C      1  0.4637530000000  0.5362590000000  0.4444250000000 1.0
C      1  0.4658580000000  0.4590600000000  0.4489670000000 1.0
C      1  0.4660770000000  0.4397260000000  0.5238510000000 1.0
C      1  0.4657370000000  0.5042860000000  0.5649400000000 1.0
C      1  0.5302120000000  0.5640730000000  0.4767320000000 1.0
C      1  0.5333780000000  0.5355650000000  0.5523010000000 1.0
C      1  0.5341520000000  0.4578870000000  0.5511240000000 1.0
C      1  0.5335120000000  0.4395240000000  0.4760760000000 1.0
C      1  0.5261230000000  0.5014320000000  0.4453640000000 1.0
C      1  0.5211340000000  0.5396670000000  0.4554630000000 1.0
C      1  0.5241470000000  0.4628240000000  0.4551640000000 1.0
C      1  0.5241320000000  0.4463170000000  0.5225710000000 1.0
C      1  0.5243840000000  0.5044230000000  0.5575800000000 1.0
C      1  0.5241230000000  0.5550480000000  0.5083420000000 1.0
C      1  0.4760150000000  0.5296110000000  0.5480570000000 1.0
C      1  0.4762300000000  0.4636000000000  0.5426580000000 1.0
C      1  0.4757020000000  0.4467810000000  0.4773060000000 1.0
C      1  0.4751630000000  0.5063280000000  0.4430090000000 1.0
C      1  0.4753800000000  0.5527110000000  0.4869800000000 1.0
C      1  0.4538700000000  0.5408130000000  0.5292880000000 1.0
C      1  0.4527240000000  0.5411180000000  0.4700020000000 1.0
C      1  0.4541450000000  0.4843840000000  0.4516500000000 1.0
C      1  0.4548720000000  0.4495130000000  0.5001770000000 1.0
C      1  0.4544490000000  0.4848170000000  0.5480850000000 1.0
C      1  0.5516980000000  0.5386160000000  0.4706800000000 1.0
C      1  0.5455040000000  0.5406380000000  0.5276320000000 1.0
C      1  0.5459380000000  0.4833160000000  0.5491810000000 1.0
C      1  0.5449080000000  0.4493450000000  0.4996820000000 1.0
C      1  0.5495720000000  0.4838720000000  0.4535980000000 1.0
END
