TITL C-1154803-8277-233 -0.00545626499933344 125000 -320.967963733785 0 0 60 (C1) n - 1
REM
REM in /home/nfs/bkarasulu/CARBON/AIRSS/Generating-Clusters/AIREBO/Higher-Symm/Only-C60
REM
REM
REM
REM
REM
REM ./C.cell (28575a23ae977d3b5fae324c64b13b57)
REM
REM compiler GCC version 9.2.1 20190827 (Red Hat 9.2.1-1)
REM options -cpp -mtune=generic -march=x86-64 -g -O0 -fpre-include=/usr/include/finclude/math-vector-fortran.h
REM seed -71857752 -917028600 -1206737221 609725947 -825911523 1328521093 2065983420 1174787429 -1369487115 -678867546 -1559820472 1023493840 1049708753 -1329839543 -1732688497 -1020001269 740381553 -598846387 -120150359 -860645211 534495752 -1320213954 1937551887 -1166642416 -1272376934 1794250099 1187035836 831300894 1261926883 -1452410347 -409879526 -373859053 586209864
REM
CELL 1.54180   50.00000   50.00000   50.00000   90.00000   90.00000   90.00000
LATT -1
SFAC C  
C      1  0.5160660000000  0.5709370000000  0.5128440000000 1.0
C      1  0.5695120000000  0.5159240000000  0.5269330000000 1.0
C      1  0.5160460000000  0.5236220000000  0.5697360000000 1.0
C      1  0.4753180000000  0.5738500000000  0.4760470000000 1.0
C      1  0.4842260000000  0.4431480000000  0.5257910000000 1.0
C      1  0.5211830000000  0.4292220000000  0.4919160000000 1.0
C      1  0.4360350000000  0.5274280000000  0.4936710000000 1.0
C      1  0.4351900000000  0.4906160000000  0.5254090000000 1.0
C      1  0.5764830000000  0.4769610000000  0.4845920000000 1.0
C      1  0.4914990000000  0.5202230000000  0.4292460000000 1.0
C      1  0.4797180000000  0.4774860000000  0.5779670000000 1.0
C      1  0.5301540000000  0.4854590000000  0.4384810000000 1.0
C      1  0.5201460000000  0.5167610000000  0.4408470000000 1.0
C      1  0.5130030000000  0.4528240000000  0.5103810000000 1.0
C      1  0.4557780000000  0.5133910000000  0.5176050000000 1.0
C      1  0.4799040000000  0.5078610000000  0.5489660000000 1.0
C      1  0.4754440000000  0.5011960000000  0.4419320000000 1.0
C      1  0.5085660000000  0.4907610000000  0.5709120000000 1.0
C      1  0.4963480000000  0.4377550000000  0.4774930000000 1.0
C      1  0.4842210000000  0.5613910000000  0.5055600000000 1.0
C      1  0.5095640000000  0.5587140000000  0.4753840000000 1.0
C      1  0.5675130000000  0.5080140000000  0.4951480000000 1.0
C      1  0.5557980000000  0.4740640000000  0.5123340000000 1.0
C      1  0.4426880000000  0.4823120000000  0.4966240000000 1.0
C      1  0.5018140000000  0.5129880000000  0.5234550000000 1.0
C      1  0.5122190000000  0.5338960000000  0.4986590000000 1.0
C      1  0.5291990000000  0.4933910000000  0.5186880000000 1.0
C      1  0.5028870000000  0.5276370000000  0.4666540000000 1.0
C      1  0.4957070000000  0.4779710000000  0.5415720000000 1.0
C      1  0.4899570000000  0.4844880000000  0.4677710000000 1.0
C      1  0.4750570000000  0.5349190000000  0.4848360000000 1.0
C      1  0.4787050000000  0.4632830000000  0.4918630000000 1.0
C      1  0.5143930000000  0.4808390000000  0.4911580000000 1.0
C      1  0.4642300000000  0.5029570000000  0.4801590000000 1.0
C      1  0.4794460000000  0.4892150000000  0.5139060000000 1.0
C      1  0.5411740000000  0.4935010000000  0.4806740000000 1.0
C      1  0.5006680000000  0.4420890000000  0.4498350000000 1.0
C      1  0.4399100000000  0.4542340000000  0.4930710000000 1.0
C      1  0.4472480000000  0.5026520000000  0.4439490000000 1.0
C      1  0.5133670000000  0.4442580000000  0.5432730000000 1.0
C      1  0.4884460000000  0.5637720000000  0.4499940000000 1.0
C      1  0.4981980000000  0.5607080000000  0.5365240000000 1.0
C      1  0.5648000000000  0.4478230000000  0.4961310000000 1.0
C      1  0.5619240000000  0.5391290000000  0.5059460000000 1.0
C      1  0.4496970000000  0.5463140000000  0.5184690000000 1.0
C      1  0.5393140000000  0.5025230000000  0.5661240000000 1.0
C      1  0.5533890000000  0.5102610000000  0.4374900000000 1.0
C      1  0.4584030000000  0.4946680000000  0.5667790000000 1.0
C      1  0.4854280000000  0.5479250000000  0.4274000000000 1.0
C      1  0.5488610000000  0.4256510000000  0.4915800000000 1.0
C      1  0.4343210000000  0.4881340000000  0.5533260000000 1.0
C      1  0.5071010000000  0.5368400000000  0.5471040000000 1.0
C      1  0.5082540000000  0.4679420000000  0.4461210000000 1.0
C      1  0.4840350000000  0.4512110000000  0.5590030000000 1.0
C      1  0.4608390000000  0.4377690000000  0.5054940000000 1.0
C      1  0.4495660000000  0.5573810000000  0.4863190000000 1.0
C      1  0.5382660000000  0.5521180000000  0.5059600000000 1.0
C      1  0.5598300000000  0.4820660000000  0.4553670000000 1.0
C      1  0.5502650000000  0.5014430000000  0.5409650000000 1.0
C      1  0.4326820000000  0.5080820000000  0.4685630000000 1.0
END
