TITL C-1154827-9204-488 0.00150198730983277 125000 -318.148919554145 0 0 60 (C1) n - 1
REM
REM in /home/nfs/bkarasulu/CARBON/AIRSS/Generating-Clusters/AIREBO/Higher-Symm/Only-C60
REM
REM
REM
REM
REM
REM ./C.cell (28575a23ae977d3b5fae324c64b13b57)
REM
REM compiler GCC version 9.2.1 20190827 (Red Hat 9.2.1-1)
REM options -cpp -mtune=generic -march=x86-64 -g -O0 -fpre-include=/usr/include/finclude/math-vector-fortran.h
REM seed -930387233 342013438 -1335500461 -391621873 -44605099 690390907 890693226 803590653 492044594 -744151856 -593818794 -99659828 463594595 -500285523 -541170989 -1573781362 1234724013 139311600 -1301682049 2047745230 -1266651374 1510137280 1228994449 1870140783 -1899975872 2114691038 -419259246 -1124075039 -2004337596 730873031 -1771968890 1635112057 -384466233
REM
CELL 1.54180   50.00000   50.00000   50.00000   90.00000   90.00000   90.00000
LATT -1
SFAC C  
C      1  0.5528350000000  0.4598940000000  0.4871550000000 1.0
C      1  0.5423790000000  0.5229900000000  0.5265980000000 1.0
C      1  0.4856550000000  0.4843370000000  0.4799940000000 1.0
C      1  0.4847640000000  0.5207550000000  0.5272520000000 1.0
C      1  0.4417470000000  0.5495260000000  0.4681650000000 1.0
C      1  0.4816270000000  0.5519450000000  0.5634550000000 1.0
C      1  0.5520910000000  0.4805620000000  0.4687270000000 1.0
C      1  0.5290910000000  0.5032990000000  0.4534240000000 1.0
C      1  0.5082240000000  0.4527720000000  0.4384500000000 1.0
C      1  0.5060790000000  0.4782970000000  0.4546670000000 1.0
C      1  0.4913880000000  0.5151450000000  0.4943710000000 1.0
C      1  0.4894920000000  0.4258900000000  0.4736210000000 1.0
C      1  0.5196870000000  0.5117420000000  0.5710640000000 1.0
C      1  0.4343710000000  0.4927120000000  0.4905190000000 1.0
C      1  0.5064590000000  0.5603520000000  0.4640850000000 1.0
C      1  0.4272730000000  0.4475860000000  0.5149740000000 1.0
C      1  0.5188300000000  0.5704410000000  0.5097340000000 1.0
C      1  0.5297730000000  0.5167840000000  0.4838370000000 1.0
C      1  0.5751980000000  0.5274120000000  0.4802600000000 1.0
C      1  0.5256220000000  0.5804340000000  0.5336600000000 1.0
C      1  0.5146780000000  0.4162400000000  0.4805740000000 1.0
C      1  0.4633260000000  0.5464890000000  0.4441620000000 1.0
C      1  0.5222570000000  0.4236450000000  0.5124950000000 1.0
C      1  0.4901690000000  0.4281230000000  0.5134240000000 1.0
C      1  0.5501280000000  0.4980790000000  0.5047680000000 1.0
C      1  0.4165940000000  0.4244250000000  0.5140470000000 1.0
C      1  0.4722820000000  0.5466520000000  0.5373220000000 1.0
C      1  0.5162740000000  0.4955050000000  0.5066670000000 1.0
C      1  0.5619620000000  0.5101970000000  0.4587950000000 1.0
C      1  0.4923650000000  0.4996650000000  0.4366860000000 1.0
C      1  0.4731690000000  0.4141750000000  0.5273460000000 1.0
C      1  0.4719300000000  0.5238290000000  0.4678730000000 1.0
C      1  0.4203230000000  0.4999580000000  0.5600810000000 1.0
C      1  0.5693530000000  0.4835510000000  0.5419930000000 1.0
C      1  0.4752880000000  0.4726220000000  0.5171940000000 1.0
C      1  0.5065870000000  0.4702040000000  0.5176960000000 1.0
C      1  0.5161750000000  0.5202360000000  0.5403530000000 1.0
C      1  0.5122320000000  0.5425170000000  0.4912080000000 1.0
C      1  0.5045450000000  0.5383510000000  0.5709760000000 1.0
C      1  0.5552130000000  0.4677660000000  0.5189480000000 1.0
C      1  0.5811060000000  0.4979020000000  0.4915840000000 1.0
C      1  0.4160520000000  0.5124490000000  0.4900740000000 1.0
C      1  0.4668790000000  0.4970770000000  0.5339800000000 1.0
C      1  0.5355740000000  0.4392560000000  0.4842190000000 1.0
C      1  0.5275380000000  0.4533870000000  0.5207040000000 1.0
C      1  0.5082620000000  0.5239130000000  0.4358010000000 1.0
C      1  0.4530220000000  0.5517660000000  0.4189810000000 1.0
C      1  0.5355210000000  0.4899970000000  0.5770170000000 1.0
C      1  0.5709700000000  0.5317400000000  0.5101020000000 1.0
C      1  0.5728420000000  0.5105130000000  0.5351050000000 1.0
C      1  0.4950350000000  0.5463790000000  0.4443730000000 1.0
C      1  0.5141740000000  0.5814800000000  0.4827000000000 1.0
C      1  0.5592930000000  0.4792950000000  0.5680600000000 1.0
C      1  0.4527630000000  0.5600420000000  0.5237800000000 1.0
C      1  0.4652260000000  0.4974820000000  0.4386330000000 1.0
C      1  0.4550290000000  0.4948850000000  0.4698830000000 1.0
C      1  0.4210780000000  0.5377600000000  0.4808700000000 1.0
C      1  0.4413930000000  0.4744370000000  0.5135740000000 1.0
C      1  0.4819750000000  0.4526180000000  0.4916830000000 1.0
C      1  0.4388330000000  0.4925170000000  0.5422570000000 1.0
END
