TITL C-1154801-8518-369 0.00173968786520639 125000 -326.81185659445 0 0 60 (C1) n - 1
REM
REM in /home/nfs/bkarasulu/CARBON/AIRSS/Generating-Clusters/AIREBO/Higher-Symm/Only-C60
REM
REM
REM
REM
REM
REM ./C.cell (28575a23ae977d3b5fae324c64b13b57)
REM
REM compiler GCC version 9.2.1 20190827 (Red Hat 9.2.1-1)
REM options -cpp -mtune=generic -march=x86-64 -g -O0 -fpre-include=/usr/include/finclude/math-vector-fortran.h
REM seed -1284938263 -1292068383 192600051 963535609 1518087411 540659345 -1865056250 1707809946 1223714142 -945898146 -1049906914 -1973335327 -1898762880 1438256690 -1799917675 265431537 -138546388 149197125 -1129863826 -1470442274 315539722 122356208 -23741894 525212958 1379403974 813279432 1010251409 1427725299 -1216209020 1170314413 -2025728014 -189868631 -1073501113
REM
CELL 1.54180   50.00000   50.00000   50.00000   90.00000   90.00000   90.00000
LATT -1
SFAC C  
C      1  0.5754470000000  0.5145570000000  0.4730130000000 1.0
C      1  0.5257050000000  0.5157230000000  0.4208400000000 1.0
C      1  0.4664500000000  0.5234630000000  0.4334540000000 1.0
C      1  0.4309230000000  0.5212610000000  0.4946290000000 1.0
C      1  0.4331860000000  0.5264280000000  0.5412090000000 1.0
C      1  0.4918250000000  0.5155210000000  0.5769250000000 1.0
C      1  0.5686490000000  0.5226230000000  0.5435810000000 1.0
C      1  0.5511030000000  0.5260410000000  0.4787440000000 1.0
C      1  0.5247240000000  0.5304190000000  0.4490070000000 1.0
C      1  0.4729160000000  0.5455390000000  0.4470620000000 1.0
C      1  0.4584330000000  0.5357300000000  0.4833380000000 1.0
C      1  0.4379670000000  0.5408020000000  0.5170200000000 1.0
C      1  0.4814120000000  0.5294040000000  0.5481080000000 1.0
C      1  0.5406560000000  0.5259370000000  0.5425560000000 1.0
C      1  0.4908190000000  0.4953650000000  0.4660220000000 1.0
C      1  0.4720760000000  0.5076660000000  0.4915960000000 1.0
C      1  0.4653210000000  0.5089710000000  0.5250270000000 1.0
C      1  0.4969060000000  0.5019030000000  0.5354610000000 1.0
C      1  0.5270420000000  0.5016120000000  0.5433620000000 1.0
C      1  0.5339550000000  0.5024240000000  0.4907890000000 1.0
C      1  0.5201510000000  0.5018650000000  0.4622180000000 1.0
C      1  0.5786680000000  0.4981980000000  0.5347360000000 1.0
C      1  0.5732130000000  0.4858500000000  0.4732100000000 1.0
C      1  0.5207750000000  0.4887660000000  0.4216880000000 1.0
C      1  0.4719360000000  0.4981370000000  0.4401840000000 1.0
C      1  0.4355350000000  0.4937050000000  0.4998940000000 1.0
C      1  0.4398550000000  0.4971150000000  0.5394930000000 1.0
C      1  0.5022800000000  0.4907590000000  0.5734140000000 1.0
C      1  0.4666800000000  0.5569680000000  0.5086380000000 1.0
C      1  0.4892630000000  0.5531290000000  0.5305100000000 1.0
C      1  0.5257960000000  0.5494820000000  0.5319180000000 1.0
C      1  0.5308750000000  0.5662360000000  0.5027680000000 1.0
C      1  0.5322640000000  0.5507360000000  0.4755340000000 1.0
C      1  0.5037050000000  0.5539220000000  0.4574710000000 1.0
C      1  0.4768890000000  0.5622540000000  0.4764960000000 1.0
C      1  0.5179310000000  0.4530290000000  0.4621990000000 1.0
C      1  0.4824080000000  0.4437780000000  0.4724910000000 1.0
C      1  0.4681080000000  0.4458550000000  0.5033300000000 1.0
C      1  0.4809030000000  0.4409690000000  0.5301430000000 1.0
C      1  0.5083680000000  0.4439420000000  0.5393660000000 1.0
C      1  0.5318440000000  0.4453710000000  0.5213600000000 1.0
C      1  0.5374320000000  0.4510870000000  0.4901970000000 1.0
C      1  0.5343130000000  0.4757750000000  0.4463890000000 1.0
C      1  0.4855990000000  0.4672970000000  0.4481330000000 1.0
C      1  0.4528460000000  0.4839910000000  0.4765390000000 1.0
C      1  0.4398860000000  0.4691080000000  0.5363750000000 1.0
C      1  0.4855200000000  0.4742960000000  0.5517470000000 1.0
C      1  0.5377170000000  0.4706980000000  0.5438820000000 1.0
C      1  0.5533550000000  0.4778710000000  0.4964440000000 1.0
C      1  0.4968120000000  0.4754610000000  0.4186520000000 1.0
C      1  0.4526820000000  0.4584340000000  0.4687930000000 1.0
C      1  0.4418630000000  0.4610960000000  0.5071980000000 1.0
C      1  0.4620800000000  0.4560980000000  0.5490270000000 1.0
C      1  0.5158100000000  0.4602500000000  0.5676970000000 1.0
C      1  0.5625530000000  0.4783620000000  0.5251770000000 1.0
C      1  0.5647730000000  0.4745030000000  0.4496670000000 1.0
C      1  0.5053360000000  0.4550280000000  0.4923810000000 1.0
C      1  0.4991440000000  0.4801710000000  0.5020070000000 1.0
C      1  0.5073200000000  0.5418560000000  0.5055100000000 1.0
C      1  0.5037180000000  0.5113690000000  0.5035110000000 1.0
END
