TITL C-1154808-8168-706 0.00164015288299339 125000 -349.383186626604 0 0 60 (C1) n - 1
REM
REM in /home/nfs/bkarasulu/CARBON/AIRSS/Generating-Clusters/AIREBO/Higher-Symm/Only-C60
REM
REM
REM
REM
REM
REM ./C.cell (28575a23ae977d3b5fae324c64b13b57)
REM
REM compiler GCC version 9.2.1 20190827 (Red Hat 9.2.1-1)
REM options -cpp -mtune=generic -march=x86-64 -g -O0 -fpre-include=/usr/include/finclude/math-vector-fortran.h
REM seed 476990447 -1653380219 -1858611910 -1739460037 445902880 1206850702 1610836971 795308377 1876100488 13251698 -627825213 143355070 -1625032993 1514029287 1071259505 -2005845306 1878527793 -1130198902 -539220177 1134803828 1823975587 -1459858677 -2101952928 681300324 -760441426 -1195999533 -653604832 1498677976 306231487 -585346350 -2051459476 6335276 1220385486
REM
CELL 1.54180   50.00000   50.00000   50.00000   90.00000   90.00000   90.00000
LATT -1
SFAC C  
C      1  0.5111790000000  0.5249830000000  0.5760860000000 1.0
C      1  0.5648330000000  0.5235840000000  0.4476030000000 1.0
C      1  0.4261570000000  0.5135450000000  0.4737550000000 1.0
C      1  0.5149920000000  0.4729740000000  0.5801140000000 1.0
C      1  0.5622760000000  0.4743070000000  0.4507250000000 1.0
C      1  0.4227760000000  0.4845740000000  0.4677540000000 1.0
C      1  0.4869760000000  0.5119160000000  0.5762830000000 1.0
C      1  0.4386530000000  0.5266140000000  0.4529810000000 1.0
C      1  0.5741630000000  0.5140680000000  0.4731580000000 1.0
C      1  0.4897560000000  0.4830080000000  0.5818080000000 1.0
C      1  0.4375020000000  0.4754260000000  0.4463560000000 1.0
C      1  0.5739060000000  0.4854740000000  0.4744550000000 1.0
C      1  0.5537680000000  0.5467980000000  0.5153750000000 1.0
C      1  0.4901000000000  0.5411190000000  0.4447000000000 1.0
C      1  0.4587080000000  0.5441480000000  0.5414360000000 1.0
C      1  0.5672300000000  0.4602490000000  0.5220990000000 1.0
C      1  0.4895000000000  0.4637370000000  0.4288080000000 1.0
C      1  0.4407550000000  0.4673450000000  0.5472720000000 1.0
C      1  0.4433670000000  0.5445960000000  0.5140560000000 1.0
C      1  0.5187190000000  0.5382420000000  0.4475300000000 1.0
C      1  0.5519780000000  0.5379180000000  0.5424850000000 1.0
C      1  0.4432540000000  0.4614380000000  0.5202330000000 1.0
C      1  0.5127700000000  0.4580130000000  0.4429130000000 1.0
C      1  0.5435640000000  0.4557100000000  0.5375780000000 1.0
C      1  0.5327430000000  0.4846530000000  0.4442790000000 1.0
C      1  0.4345590000000  0.4826350000000  0.4974890000000 1.0
C      1  0.5343390000000  0.4820240000000  0.5562850000000 1.0
C      1  0.5375240000000  0.5174370000000  0.4398580000000 1.0
C      1  0.4403220000000  0.5172010000000  0.5025890000000 1.0
C      1  0.5306360000000  0.5156720000000  0.5530010000000 1.0
C      1  0.4676780000000  0.4853600000000  0.4423450000000 1.0
C      1  0.5626990000000  0.4754850000000  0.4985270000000 1.0
C      1  0.4628590000000  0.4837880000000  0.5612950000000 1.0
C      1  0.4680030000000  0.5163270000000  0.4480950000000 1.0
C      1  0.5631300000000  0.5258270000000  0.4958940000000 1.0
C      1  0.4689970000000  0.5171540000000  0.5510080000000 1.0
C      1  0.5335520000000  0.5147690000000  0.5028600000000 1.0
C      1  0.4821090000000  0.5208620000000  0.4780360000000 1.0
C      1  0.4865790000000  0.5086320000000  0.5255650000000 1.0
C      1  0.5302260000000  0.4813010000000  0.4977810000000 1.0
C      1  0.4851550000000  0.4745860000000  0.4669390000000 1.0
C      1  0.4884970000000  0.4801070000000  0.5419660000000 1.0
C      1  0.4692560000000  0.5059890000000  0.5008260000000 1.0
C      1  0.5111350000000  0.5163780000000  0.4797630000000 1.0
C      1  0.5141780000000  0.5237740000000  0.5260810000000 1.0
C      1  0.4676370000000  0.4763750000000  0.4926940000000 1.0
C      1  0.5131450000000  0.4872860000000  0.4698130000000 1.0
C      1  0.5175860000000  0.4840330000000  0.5278950000000 1.0
C      1  0.5257370000000  0.4483740000000  0.4922420000000 1.0
C      1  0.4811150000000  0.4424860000000  0.4775260000000 1.0
C      1  0.4947900000000  0.4513120000000  0.5290560000000 1.0
C      1  0.5293710000000  0.5572850000000  0.5038100000000 1.0
C      1  0.4745720000000  0.5521250000000  0.4728820000000 1.0
C      1  0.4787050000000  0.5603700000000  0.5230440000000 1.0
C      1  0.4715510000000  0.4478190000000  0.5094460000000 1.0
C      1  0.5101730000000  0.4435900000000  0.4686700000000 1.0
C      1  0.5215290000000  0.4447740000000  0.5218030000000 1.0
C      1  0.4625340000000  0.5626460000000  0.4959050000000 1.0
C      1  0.5245580000000  0.5475420000000  0.4774060000000 1.0
C      1  0.5059410000000  0.5542390000000  0.5217630000000 1.0
END
