TITL C-1154825-9328-90 -0.00221174541344499 125000 -344.352609947692 0 0 60 (C1) n - 1
REM
REM in /home/nfs/bkarasulu/CARBON/AIRSS/Generating-Clusters/AIREBO/Higher-Symm/Only-C60
REM
REM
REM
REM
REM
REM ./C.cell (28575a23ae977d3b5fae324c64b13b57)
REM
REM compiler GCC version 9.2.1 20190827 (Red Hat 9.2.1-1)
REM options -cpp -mtune=generic -march=x86-64 -g -O0 -fpre-include=/usr/include/finclude/math-vector-fortran.h
REM seed -2087836580 1551279078 -1070375979 293759802 57797124 -888032864 1342779024 155786428 -651718853 -383734765 1026732719 359009196 634382853 -1914762032 -728531649 253251469 1944846992 -529987619 1693542082 -471471525 131597258 573900215 1125423098 892545893 813024116 -1436961509 -1077118750 1139978413 -876801333 1408306594 -1752217492 385268657 1772928597
REM
CELL 1.54180   50.00000   50.00000   50.00000   90.00000   90.00000   90.00000
LATT -1
SFAC C  
C      1  0.4662470000000  0.5566610000000  0.5066240000000 1.0
C      1  0.5064370000000  0.5560490000000  0.5324020000000 1.0
C      1  0.5332860000000  0.5570460000000  0.4930430000000 1.0
C      1  0.4930040000000  0.5572380000000  0.4675120000000 1.0
C      1  0.5217160000000  0.5390490000000  0.4666170000000 1.0
C      1  0.4652480000000  0.5401160000000  0.4769370000000 1.0
C      1  0.4774340000000  0.5383040000000  0.5329680000000 1.0
C      1  0.5349410000000  0.5403120000000  0.5225960000000 1.0
C      1  0.4917690000000  0.4630260000000  0.5401480000000 1.0
C      1  0.5516480000000  0.4652080000000  0.5186740000000 1.0
C      1  0.5090330000000  0.4707820000000  0.4507680000000 1.0
C      1  0.4569500000000  0.4650940000000  0.4884260000000 1.0
C      1  0.5125940000000  0.5294120000000  0.4352970000000 1.0
C      1  0.4345280000000  0.5280370000000  0.4850980000000 1.0
C      1  0.4875520000000  0.5272960000000  0.5635100000000 1.0
C      1  0.5655950000000  0.5291000000000  0.5130340000000 1.0
C      1  0.4471910000000  0.4541510000000  0.5299530000000 1.0
C      1  0.5206270000000  0.4544270000000  0.5413970000000 1.0
C      1  0.5365520000000  0.4488190000000  0.4713050000000 1.0
C      1  0.4846470000000  0.4577950000000  0.4581910000000 1.0
C      1  0.5388780000000  0.4777470000000  0.5571360000000 1.0
C      1  0.5542250000000  0.4774880000000  0.4665020000000 1.0
C      1  0.4635760000000  0.4791340000000  0.4416210000000 1.0
C      1  0.4346800000000  0.4794060000000  0.5354390000000 1.0
C      1  0.4460120000000  0.5252590000000  0.5351810000000 1.0
C      1  0.5383230000000  0.5278830000000  0.5540670000000 1.0
C      1  0.5530340000000  0.5265460000000  0.4626240000000 1.0
C      1  0.4615320000000  0.5291470000000  0.4449600000000 1.0
C      1  0.5169190000000  0.4918840000000  0.5750860000000 1.0
C      1  0.5738140000000  0.4915590000000  0.4860070000000 1.0
C      1  0.4834690000000  0.4949960000000  0.4219320000000 1.0
C      1  0.4224600000000  0.4917810000000  0.5124920000000 1.0
C      1  0.5680090000000  0.5201810000000  0.4857480000000 1.0
C      1  0.4849340000000  0.5230760000000  0.4302810000000 1.0
C      1  0.4298770000000  0.5206860000000  0.5121550000000 1.0
C      1  0.5146320000000  0.5197750000000  0.5676480000000 1.0
C      1  0.5121630000000  0.5113430000000  0.4830990000000 1.0
C      1  0.4799180000000  0.5120850000000  0.4859800000000 1.0
C      1  0.4899580000000  0.5119220000000  0.5162850000000 1.0
C      1  0.5211430000000  0.5122030000000  0.5137030000000 1.0
C      1  0.4452580000000  0.5013270000000  0.5507870000000 1.0
C      1  0.5565310000000  0.5056710000000  0.5529680000000 1.0
C      1  0.5502210000000  0.5031610000000  0.4459580000000 1.0
C      1  0.4446720000000  0.5057860000000  0.4451490000000 1.0
C      1  0.4846170000000  0.4453820000000  0.4898540000000 1.0
C      1  0.4729220000000  0.4496610000000  0.5215020000000 1.0
C      1  0.5315950000000  0.4425850000000  0.5167190000000 1.0
C      1  0.5184870000000  0.4423520000000  0.4914650000000 1.0
C      1  0.5289360000000  0.5062050000000  0.4277610000000 1.0
C      1  0.4295760000000  0.5044040000000  0.4686520000000 1.0
C      1  0.4683580000000  0.5020760000000  0.5704880000000 1.0
C      1  0.5733530000000  0.5066490000000  0.5303120000000 1.0
C      1  0.5745260000000  0.4824570000000  0.5131380000000 1.0
C      1  0.5099970000000  0.4839310000000  0.4251790000000 1.0
C      1  0.4301380000000  0.4805070000000  0.4867250000000 1.0
C      1  0.4897640000000  0.4769900000000  0.5709980000000 1.0
C      1  0.5230430000000  0.4861650000000  0.4698730000000 1.0
C      1  0.4668630000000  0.4893060000000  0.4737670000000 1.0
C      1  0.4833920000000  0.4946970000000  0.5408190000000 1.0
C      1  0.5331970000000  0.4886670000000  0.5254410000000 1.0
END
