TITL C-1154823-9327-537 0.00146862945152813 125000 -329.532405067029 0 0 60 (C1) n - 1
REM
REM in /home/nfs/bkarasulu/CARBON/AIRSS/Generating-Clusters/AIREBO/Higher-Symm/Only-C60
REM
REM
REM
REM
REM
REM ./C.cell (28575a23ae977d3b5fae324c64b13b57)
REM
REM compiler GCC version 9.2.1 20190827 (Red Hat 9.2.1-1)
REM options -cpp -mtune=generic -march=x86-64 -g -O0 -fpre-include=/usr/include/finclude/math-vector-fortran.h
REM seed 1950987691 1387531804 -588909791 19559597 -359428699 -1939875174 -52291299 779031803 -1561711025 -1736722312 -498353766 670331001 -1601980388 -440395911 -2036672399 -1892473644 -365953421 -230395166 -1157495805 744190047 -921568828 -1420684268 826731535 -1742970698 819682086 116900903 -42005800 607764938 -574573464 1406290972 660086952 -1587990798 -671385111
REM
CELL 1.54180   50.00000   50.00000   50.00000   90.00000   90.00000   90.00000
LATT -1
SFAC C  
C      1  0.5375650000000  0.4782930000000  0.5550150000000 1.0
C      1  0.5611630000000  0.4737160000000  0.4850150000000 1.0
C      1  0.5019500000000  0.4778020000000  0.4249620000000 1.0
C      1  0.4328460000000  0.4776250000000  0.4800180000000 1.0
C      1  0.4542320000000  0.4863290000000  0.5541950000000 1.0
C      1  0.4573120000000  0.4653960000000  0.4663520000000 1.0
C      1  0.4563800000000  0.4724190000000  0.5243470000000 1.0
C      1  0.5092640000000  0.4690560000000  0.5476350000000 1.0
C      1  0.5522670000000  0.4652520000000  0.5105970000000 1.0
C      1  0.5186360000000  0.4616580000000  0.4461980000000 1.0
C      1  0.4989840000000  0.5611770000000  0.4672070000000 1.0
C      1  0.4708700000000  0.5571540000000  0.4775470000000 1.0
C      1  0.4653180000000  0.5625770000000  0.5046640000000 1.0
C      1  0.5273270000000  0.5577800000000  0.5185400000000 1.0
C      1  0.5541160000000  0.5594940000000  0.5061740000000 1.0
C      1  0.4921160000000  0.5166750000000  0.5283980000000 1.0
C      1  0.5287430000000  0.5072710000000  0.5160470000000 1.0
C      1  0.5192160000000  0.5155760000000  0.4782770000000 1.0
C      1  0.4825790000000  0.5023610000000  0.4604340000000 1.0
C      1  0.4689760000000  0.5118190000000  0.4966730000000 1.0
C      1  0.5670870000000  0.5159830000000  0.5110760000000 1.0
C      1  0.5343400000000  0.5182560000000  0.4415380000000 1.0
C      1  0.4513400000000  0.5121100000000  0.4480350000000 1.0
C      1  0.4379380000000  0.5244630000000  0.5261750000000 1.0
C      1  0.5109680000000  0.5229930000000  0.5629200000000 1.0
C      1  0.4254190000000  0.5196540000000  0.5001720000000 1.0
C      1  0.4817550000000  0.5249790000000  0.5661020000000 1.0
C      1  0.5618920000000  0.5159820000000  0.5393600000000 1.0
C      1  0.5589930000000  0.5147590000000  0.4567290000000 1.0
C      1  0.4812310000000  0.5239870000000  0.4348540000000 1.0
C      1  0.5210900000000  0.5333420000000  0.5337980000000 1.0
C      1  0.5424370000000  0.5297650000000  0.4945260000000 1.0
C      1  0.5073450000000  0.5349710000000  0.4537320000000 1.0
C      1  0.4650580000000  0.5295310000000  0.4709770000000 1.0
C      1  0.4660120000000  0.5364060000000  0.5202230000000 1.0
C      1  0.4568690000000  0.5147180000000  0.5524590000000 1.0
C      1  0.5399450000000  0.5064490000000  0.5563700000000 1.0
C      1  0.5680020000000  0.5017050000000  0.4825410000000 1.0
C      1  0.5081140000000  0.5056570000000  0.4270360000000 1.0
C      1  0.4327370000000  0.5054670000000  0.4757540000000 1.0
C      1  0.5570250000000  0.4640620000000  0.5398120000000 1.0
C      1  0.5427650000000  0.4652340000000  0.4624840000000 1.0
C      1  0.4715570000000  0.4655080000000  0.4345440000000 1.0
C      1  0.4304150000000  0.4686610000000  0.5058150000000 1.0
C      1  0.4780860000000  0.4660310000000  0.5572820000000 1.0
C      1  0.4863410000000  0.4872560000000  0.5306560000000 1.0
C      1  0.5229070000000  0.4775170000000  0.5178370000000 1.0
C      1  0.5237060000000  0.4857510000000  0.4782110000000 1.0
C      1  0.4903470000000  0.4707890000000  0.4623930000000 1.0
C      1  0.4696550000000  0.4808510000000  0.4950380000000 1.0
C      1  0.4979270000000  0.5296420000000  0.4975060000000 1.0
C      1  0.4998040000000  0.4099360000000  0.5044920000000 1.0
C      1  0.5016560000000  0.3586520000000  0.5168340000000 1.0
C      1  0.4834880000000  0.5835870000000  0.5146020000000 1.0
C      1  0.5006430000000  0.4668610000000  0.4945650000000 1.0
C      1  0.4835050000000  0.6081090000000  0.5255130000000 1.0
C      1  0.5007140000000  0.4356540000000  0.4986610000000 1.0
C      1  0.5047190000000  0.5632200000000  0.4994980000000 1.0
C      1  0.4838150000000  0.6308930000000  0.5384620000000 1.0
C      1  0.5014090000000  0.3838530000000  0.5096370000000 1.0
END
