TITL C-1154816-9297-474 -0.000444154769300209 125000 -320.738084526753 0 0 60 (C1) n - 1
REM
REM in /home/nfs/bkarasulu/CARBON/AIRSS/Generating-Clusters/AIREBO/Higher-Symm/Only-C60
REM
REM
REM
REM
REM
REM ./C.cell (28575a23ae977d3b5fae324c64b13b57)
REM
REM compiler GCC version 9.2.1 20190827 (Red Hat 9.2.1-1)
REM options -cpp -mtune=generic -march=x86-64 -g -O0 -fpre-include=/usr/include/finclude/math-vector-fortran.h
REM seed -1199628195 -1949664682 1123579325 -1673657483 -1348815208 -2002328661 -688479134 355274938 1400832583 -85265058 -1104552228 1159623349 -61861879 1570021330 -398523156 542169974 251661426 1587766558 -299174686 -236304377 1380062851 -1579058413 -1828918909 -1864848381 1024520216 -1779880491 134097615 1079328420 1677920908 2031260925 -629296004 -80151231 1210440502
REM
CELL 1.54180   50.00000   50.00000   50.00000   90.00000   90.00000   90.00000
LATT -1
SFAC C  
C      1  0.4672160000000  0.5334900000000  0.4945550000000 1.0
C      1  0.4612770000000  0.5152790000000  0.4664220000000 1.0
C      1  0.4677550000000  0.4821580000000  0.4620700000000 1.0
C      1  0.4599240000000  0.4577850000000  0.4858530000000 1.0
C      1  0.4739750000000  0.4606790000000  0.5170220000000 1.0
C      1  0.4775670000000  0.4927940000000  0.5279820000000 1.0
C      1  0.4571860000000  0.5198760000000  0.5243180000000 1.0
C      1  0.4683390000000  0.4291600000000  0.4760070000000 1.0
C      1  0.4654420000000  0.4536710000000  0.5480650000000 1.0
C      1  0.4644450000000  0.5096000000000  0.5766780000000 1.0
C      1  0.4613670000000  0.5582400000000  0.5347940000000 1.0
C      1  0.4695640000000  0.5611640000000  0.4749250000000 1.0
C      1  0.4784640000000  0.5149690000000  0.4387690000000 1.0
C      1  0.4511480000000  0.4785350000000  0.4346910000000 1.0
C      1  0.4386840000000  0.5491520000000  0.4846900000000 1.0
C      1  0.4288300000000  0.5233660000000  0.4645950000000 1.0
C      1  0.4297690000000  0.4924670000000  0.4572470000000 1.0
C      1  0.4319530000000  0.4764050000000  0.4813550000000 1.0
C      1  0.4433100000000  0.4770100000000  0.5405020000000 1.0
C      1  0.4491340000000  0.5039850000000  0.5533090000000 1.0
C      1  0.4392990000000  0.5482580000000  0.5186830000000 1.0
C      1  0.5601070000000  0.5189420000000  0.4713190000000 1.0
C      1  0.5769580000000  0.4907510000000  0.4725860000000 1.0
C      1  0.5844510000000  0.4778730000000  0.4947400000000 1.0
C      1  0.5744380000000  0.4802680000000  0.5210400000000 1.0
C      1  0.5796660000000  0.5051800000000  0.5331870000000 1.0
C      1  0.5703900000000  0.5291150000000  0.5264670000000 1.0
C      1  0.5601090000000  0.5412440000000  0.4964710000000 1.0
C      1  0.5476780000000  0.4908770000000  0.4563760000000 1.0
C      1  0.5329450000000  0.4649590000000  0.4633530000000 1.0
C      1  0.5365630000000  0.4523420000000  0.4976750000000 1.0
C      1  0.5457520000000  0.4681750000000  0.5255000000000 1.0
C      1  0.5347290000000  0.5193910000000  0.5453510000000 1.0
C      1  0.5400200000000  0.5429960000000  0.5222110000000 1.0
C      1  0.5448440000000  0.5491200000000  0.4676010000000 1.0
C      1  0.4982290000000  0.5325100000000  0.5012530000000 1.0
C      1  0.5065190000000  0.5267330000000  0.4717730000000 1.0
C      1  0.4959820000000  0.4947140000000  0.4762850000000 1.0
C      1  0.5027830000000  0.4614640000000  0.4785990000000 1.0
C      1  0.5054630000000  0.4529980000000  0.5114220000000 1.0
C      1  0.5011880000000  0.4942600000000  0.5491690000000 1.0
C      1  0.5043640000000  0.5220550000000  0.5316050000000 1.0
C      1  0.5058480000000  0.5142590000000  0.4428470000000 1.0
C      1  0.4810290000000  0.4630430000000  0.4298390000000 1.0
C      1  0.4958230000000  0.4287190000000  0.4726410000000 1.0
C      1  0.4983500000000  0.4459660000000  0.5443560000000 1.0
C      1  0.4926840000000  0.5079900000000  0.5760790000000 1.0
C      1  0.4881150000000  0.5518030000000  0.5346560000000 1.0
C      1  0.4925840000000  0.5713120000000  0.4650590000000 1.0
C      1  0.5204510000000  0.5180910000000  0.5747420000000 1.0
C      1  0.5143400000000  0.5576890000000  0.5174700000000 1.0
C      1  0.5166150000000  0.5550500000000  0.4648610000000 1.0
C      1  0.5293250000000  0.5040170000000  0.4346000000000 1.0
C      1  0.5042000000000  0.4602270000000  0.4446380000000 1.0
C      1  0.5233480000000  0.4273950000000  0.4825240000000 1.0
C      1  0.5182960000000  0.4692820000000  0.5455380000000 1.0
C      1  0.5340940000000  0.4971870000000  0.5217990000000 1.0
C      1  0.5158330000000  0.4963830000000  0.5021360000000 1.0
C      1  0.4409300000000  0.4821040000000  0.5111640000000 1.0
C      1  0.4699030000000  0.4942130000000  0.4980980000000 1.0
END
