TITL C-1154823-9327-178 1.17398401513747e-06 125000 -382.34793393735 0 0 60 (Td) n - 1
REM
REM in /home/nfs/bkarasulu/CARBON/AIRSS/Generating-Clusters/AIREBO/Higher-Symm/Only-C60
REM
REM
REM
REM
REM
REM ./C.cell (28575a23ae977d3b5fae324c64b13b57)
REM
REM compiler GCC version 9.2.1 20190827 (Red Hat 9.2.1-1)
REM options -cpp -mtune=generic -march=x86-64 -g -O0 -fpre-include=/usr/include/finclude/math-vector-fortran.h
REM seed 1570389659 -462998978 -432382034 1335750852 816914266 796340485 1710330909 1506248684 -447911488 -253606045 2122750760 -152414142 1363410514 -579848509 -684175684 -2045302074 -1185194851 79724042 -1619920189 -811000246 1434599628 -39589317 -714200723 474785590 -1526602899 326754844 -575664403 -101964046 -694453490 -1498361323 1480979644 1567155229 953949039
REM
CELL 1.54180   50.00000   50.00000   50.00000   90.00000   90.00000   90.00000
LATT -1
SFAC C  
C      1  0.5418530000000  0.5218190000000  0.4384940000000 1.0
C      1  0.5218350000000  0.4385110000000  0.5418700000000 1.0
C      1  0.4384950000000  0.5418550000000  0.5218190000000 1.0
C      1  0.4581410000000  0.5218340000000  0.5614970000000 1.0
C      1  0.4581430000000  0.4781560000000  0.4385050000000 1.0
C      1  0.5418620000000  0.4781920000000  0.5615040000000 1.0
C      1  0.4781800000000  0.4384880000000  0.4581550000000 1.0
C      1  0.4781670000000  0.5615060000000  0.5418460000000 1.0
C      1  0.5218170000000  0.5614950000000  0.4581290000000 1.0
C      1  0.5614940000000  0.5418610000000  0.4781630000000 1.0
C      1  0.5615060000000  0.4581550000000  0.5218330000000 1.0
C      1  0.4385040000000  0.4581300000000  0.4781840000000 1.0
C      1  0.4384980000000  0.5218270000000  0.5418550000000 1.0
C      1  0.5418660000000  0.4385090000000  0.5218380000000 1.0
C      1  0.5218190000000  0.5418480000000  0.4384900000000 1.0
C      1  0.5614960000000  0.5218260000000  0.4581360000000 1.0
C      1  0.4385010000000  0.4781570000000  0.4581480000000 1.0
C      1  0.5615040000000  0.4781900000000  0.5418610000000 1.0
C      1  0.4581490000000  0.4384900000000  0.4781880000000 1.0
C      1  0.5418490000000  0.5615010000000  0.4781600000000 1.0
C      1  0.4581350000000  0.5615000000000  0.5218150000000 1.0
C      1  0.4781700000000  0.5418680000000  0.5614920000000 1.0
C      1  0.5218330000000  0.4581580000000  0.5615080000000 1.0
C      1  0.4781770000000  0.4581270000000  0.4385090000000 1.0
C      1  0.5001450000000  0.4215150000000  0.4638040000000 1.0
C      1  0.4215270000000  0.4637780000000  0.5001450000000 1.0
C      1  0.4637860000000  0.5001150000000  0.4215230000000 1.0
C      1  0.4998750000000  0.4215300000000  0.5362280000000 1.0
C      1  0.4998530000000  0.5784700000000  0.4637720000000 1.0
C      1  0.5001270000000  0.5784850000000  0.5361960000000 1.0
C      1  0.5784820000000  0.4637980000000  0.4998700000000 1.0
C      1  0.5784730000000  0.5362220000000  0.5001260000000 1.0
C      1  0.4215180000000  0.5362020000000  0.4998590000000 1.0
C      1  0.5362140000000  0.5001560000000  0.5784770000000 1.0
C      1  0.5362100000000  0.4998530000000  0.4215210000000 1.0
C      1  0.4637900000000  0.4998760000000  0.5784790000000 1.0
C      1  0.4637980000000  0.4215180000000  0.5001530000000 1.0
C      1  0.5001380000000  0.4637720000000  0.4215300000000 1.0
C      1  0.4215210000000  0.5001180000000  0.4637900000000 1.0
C      1  0.5362220000000  0.4215270000000  0.4998800000000 1.0
C      1  0.4637780000000  0.5784730000000  0.4998490000000 1.0
C      1  0.5362020000000  0.5784820000000  0.5001180000000 1.0
C      1  0.4998710000000  0.4638040000000  0.5784850000000 1.0
C      1  0.5001330000000  0.5362280000000  0.5784700000000 1.0
C      1  0.4998580000000  0.5361960000000  0.4215150000000 1.0
C      1  0.5784790000000  0.5001530000000  0.5362100000000 1.0
C      1  0.4215230000000  0.4998620000000  0.5362140000000 1.0
C      1  0.5784770000000  0.4998670000000  0.4637860000000 1.0
C      1  0.5823540000000  0.4899120000000  0.4899030000000 1.0
C      1  0.4899070000000  0.4899190000000  0.5823550000000 1.0
C      1  0.4898930000000  0.5823490000000  0.4898870000000 1.0
C      1  0.4176490000000  0.4898950000000  0.5101010000000 1.0
C      1  0.4176460000000  0.5100840000000  0.4899040000000 1.0
C      1  0.5823520000000  0.5101090000000  0.5100920000000 1.0
C      1  0.5100950000000  0.4898880000000  0.4176490000000 1.0
C      1  0.4899000000000  0.5100780000000  0.4176450000000 1.0
C      1  0.5101060000000  0.4176460000000  0.4899200000000 1.0
C      1  0.5100860000000  0.5823560000000  0.5100790000000 1.0
C      1  0.4899150000000  0.4176480000000  0.5101140000000 1.0
C      1  0.5100970000000  0.5101150000000  0.5823500000000 1.0
END
