TITL C-1154823-9327-534 -0.00378436098275338 125000 -372.102900130865 0 0 60 (C1) n - 1
REM
REM in /home/nfs/bkarasulu/CARBON/AIRSS/Generating-Clusters/AIREBO/Higher-Symm/Only-C60
REM
REM
REM
REM
REM
REM ./C.cell (28575a23ae977d3b5fae324c64b13b57)
REM
REM compiler GCC version 9.2.1 20190827 (Red Hat 9.2.1-1)
REM options -cpp -mtune=generic -march=x86-64 -g -O0 -fpre-include=/usr/include/finclude/math-vector-fortran.h
REM seed -1014241585 -1291134343 -1275499144 49618029 -1898436833 1801821630 1035702191 606720856 754696115 -1749496011 264115135 606952273 -2042813272 -1299021087 -1089217174 752636377 -1078324222 -274418511 961753368 -461549652 771218867 1130741829 -1311193175 -371151017 837158180 -1019366515 1195828653 1701656180 692644480 -935190246 793989214 1513040228 754526899
REM
CELL 1.54180   50.00000   50.00000   50.00000   90.00000   90.00000   90.00000
LATT -1
SFAC C  
C      1  0.5536970000000  0.5318300000000  0.5187030000000 1.0
C      1  0.5382650000000  0.5233610000000  0.5442930000000 1.0
C      1  0.5103370000000  0.5398550000000  0.5545030000000 1.0
C      1  0.4795600000000  0.5328810000000  0.5601930000000 1.0
C      1  0.4594060000000  0.5360540000000  0.5402430000000 1.0
C      1  0.4497030000000  0.5310310000000  0.4802590000000 1.0
C      1  0.4618640000000  0.5249090000000  0.4567630000000 1.0
C      1  0.4902410000000  0.5403700000000  0.4461690000000 1.0
C      1  0.5206180000000  0.5332700000000  0.4398640000000 1.0
C      1  0.5411860000000  0.5360380000000  0.4595080000000 1.0
C      1  0.4551500000000  0.4646760000000  0.4821080000000 1.0
C      1  0.4721290000000  0.4747450000000  0.4564150000000 1.0
C      1  0.4982380000000  0.4764150000000  0.4489790000000 1.0
C      1  0.5271260000000  0.4678450000000  0.4607680000000 1.0
C      1  0.5438260000000  0.4768050000000  0.4878900000000 1.0
C      1  0.5449430000000  0.4654820000000  0.5189980000000 1.0
C      1  0.5271320000000  0.4733590000000  0.5445420000000 1.0
C      1  0.5007720000000  0.4753130000000  0.5514820000000 1.0
C      1  0.4719090000000  0.4671870000000  0.5393700000000 1.0
C      1  0.4558440000000  0.4765800000000  0.5121940000000 1.0
C      1  0.4694780000000  0.5736600000000  0.4765100000000 1.0
C      1  0.4918340000000  0.5674660000000  0.4606130000000 1.0
C      1  0.5176400000000  0.5749460000000  0.4694160000000 1.0
C      1  0.5374030000000  0.5564930000000  0.4783600000000 1.0
C      1  0.5440020000000  0.5547440000000  0.5058820000000 1.0
C      1  0.5316700000000  0.5728680000000  0.5238430000000 1.0
C      1  0.5092860000000  0.5668000000000  0.5397130000000 1.0
C      1  0.4836350000000  0.5746200000000  0.5307940000000 1.0
C      1  0.4638750000000  0.5563740000000  0.5215250000000 1.0
C      1  0.4579850000000  0.5544400000000  0.4939400000000 1.0
C      1  0.5426510000000  0.4922740000000  0.4425190000000 1.0
C      1  0.5598970000000  0.4993380000000  0.4841010000000 1.0
C      1  0.5690820000000  0.4884820000000  0.5268170000000 1.0
C      1  0.5409980000000  0.4888020000000  0.5638050000000 1.0
C      1  0.4996400000000  0.4936580000000  0.5731070000000 1.0
C      1  0.4566680000000  0.4922940000000  0.5570040000000 1.0
C      1  0.4406310000000  0.4998160000000  0.5149960000000 1.0
C      1  0.4305790000000  0.4867160000000  0.4734790000000 1.0
C      1  0.4570950000000  0.4902190000000  0.4377220000000 1.0
C      1  0.4994220000000  0.4945690000000  0.4273080000000 1.0
C      1  0.5264790000000  0.4374770000000  0.4654970000000 1.0
C      1  0.5426170000000  0.4284700000000  0.4866840000000 1.0
C      1  0.5405520000000  0.4357400000000  0.5137430000000 1.0
C      1  0.5230260000000  0.4225940000000  0.5310540000000 1.0
C      1  0.4973440000000  0.4239340000000  0.5399790000000 1.0
C      1  0.4731290000000  0.4367400000000  0.5344930000000 1.0
C      1  0.4572590000000  0.4273130000000  0.5132450000000 1.0
C      1  0.4595540000000  0.4351300000000  0.4863300000000 1.0
C      1  0.4769410000000  0.4224530000000  0.4686060000000 1.0
C      1  0.5026130000000  0.4241960000000  0.4597690000000 1.0
C      1  0.5239400000000  0.5149300000000  0.5739590000000 1.0
C      1  0.4755950000000  0.5072600000000  0.5726430000000 1.0
C      1  0.4443940000000  0.5116560000000  0.5394400000000 1.0
C      1  0.4331770000000  0.5099780000000  0.4901230000000 1.0
C      1  0.4300190000000  0.4903100000000  0.4452890000000 1.0
C      1  0.4754720000000  0.5160900000000  0.4270720000000 1.0
C      1  0.5237790000000  0.5076340000000  0.4272440000000 1.0
C      1  0.5557430000000  0.5112990000000  0.4597890000000 1.0
C      1  0.5682860000000  0.5099160000000  0.5081190000000 1.0
C      1  0.5646640000000  0.5002960000000  0.5522260000000 1.0
END
