TITL C-1154825-9328-249 0.0022552287114256 125000 -340.315327605606 0 0 60 (C1) n - 1
REM
REM in /home/nfs/bkarasulu/CARBON/AIRSS/Generating-Clusters/AIREBO/Higher-Symm/Only-C60
REM
REM
REM
REM
REM
REM ./C.cell (28575a23ae977d3b5fae324c64b13b57)
REM
REM compiler GCC version 9.2.1 20190827 (Red Hat 9.2.1-1)
REM options -cpp -mtune=generic -march=x86-64 -g -O0 -fpre-include=/usr/include/finclude/math-vector-fortran.h
REM seed 849347652 -888874502 529499719 -1533896900 313102202 398097096 -1455331818 -300847923 505133584 -639735594 880779251 -623629009 -506201600 -919473902 1313373895 -305356194 1139280012 -287113344 -1791644526 686255301 1034973529 -84706092 1740906786 -374171570 1492559528 844316615 -1637668198 166999495 -939215692 787624765 -1221037175 -1421637917 1171522339
REM
CELL 1.54180   50.00000   50.00000   50.00000   90.00000   90.00000   90.00000
LATT -1
SFAC C  
C      1  0.4472900000000  0.4918930000000  0.5154710000000 1.0
C      1  0.5149570000000  0.4603240000000  0.5507490000000 1.0
C      1  0.5551330000000  0.4649460000000  0.5358080000000 1.0
C      1  0.5345790000000  0.5157810000000  0.4961840000000 1.0
C      1  0.5376540000000  0.4012550000000  0.4991870000000 1.0
C      1  0.4542170000000  0.5158980000000  0.4533540000000 1.0
C      1  0.4578810000000  0.4466610000000  0.5054920000000 1.0
C      1  0.5084260000000  0.5042420000000  0.4841670000000 1.0
C      1  0.5177480000000  0.4652480000000  0.5217160000000 1.0
C      1  0.5620030000000  0.5406540000000  0.4814030000000 1.0
C      1  0.5216200000000  0.5219860000000  0.5717810000000 1.0
C      1  0.4285760000000  0.5227370000000  0.6135970000000 1.0
C      1  0.5029080000000  0.5375520000000  0.4891230000000 1.0
C      1  0.4654340000000  0.4913490000000  0.4934660000000 1.0
C      1  0.4946580000000  0.4856940000000  0.5073770000000 1.0
C      1  0.4979270000000  0.5016420000000  0.5691180000000 1.0
C      1  0.5640690000000  0.4597380000000  0.4875620000000 1.0
C      1  0.5435030000000  0.5334840000000  0.5491950000000 1.0
C      1  0.5597260000000  0.4798240000000  0.4700520000000 1.0
C      1  0.4537600000000  0.5421370000000  0.5213170000000 1.0
C      1  0.5275650000000  0.4266050000000  0.4991320000000 1.0
C      1  0.5524430000000  0.5594280000000  0.5544160000000 1.0
C      1  0.4982480000000  0.4947660000000  0.4242970000000 1.0
C      1  0.5097280000000  0.4635800000000  0.4483880000000 1.0
C      1  0.5402900000000  0.5773460000000  0.4481940000000 1.0
C      1  0.4414080000000  0.4645260000000  0.5205490000000 1.0
C      1  0.4662840000000  0.4412330000000  0.4586630000000 1.0
C      1  0.4442690000000  0.5177280000000  0.5933530000000 1.0
C      1  0.4486630000000  0.5133650000000  0.5619710000000 1.0
C      1  0.5223980000000  0.5370720000000  0.5143230000000 1.0
C      1  0.5627920000000  0.5166410000000  0.5333040000000 1.0
C      1  0.4621380000000  0.5479040000000  0.4964230000000 1.0
C      1  0.4577740000000  0.5146550000000  0.5338010000000 1.0
C      1  0.5033380000000  0.4350750000000  0.4887770000000 1.0
C      1  0.4711350000000  0.5912980000000  0.4675990000000 1.0
C      1  0.5085800000000  0.4963730000000  0.4565860000000 1.0
C      1  0.4517770000000  0.5095420000000  0.4255690000000 1.0
C      1  0.5606960000000  0.5066790000000  0.4813710000000 1.0
C      1  0.5714140000000  0.5247860000000  0.5082600000000 1.0
C      1  0.5107900000000  0.5589630000000  0.4677630000000 1.0
C      1  0.4791120000000  0.5651490000000  0.4728420000000 1.0
C      1  0.5450190000000  0.5577130000000  0.4701920000000 1.0
C      1  0.5121660000000  0.5772240000000  0.4391100000000 1.0
C      1  0.5438370000000  0.4502630000000  0.5090860000000 1.0
C      1  0.4496360000000  0.4352230000000  0.4806370000000 1.0
C      1  0.5417200000000  0.4750360000000  0.4501410000000 1.0
C      1  0.5288380000000  0.4918710000000  0.4276630000000 1.0
C      1  0.4417140000000  0.5612500000000  0.5370410000000 1.0
C      1  0.4703950000000  0.4886160000000  0.4196450000000 1.0
C      1  0.4762770000000  0.4706080000000  0.4472800000000 1.0
C      1  0.4639310000000  0.4927270000000  0.4664560000000 1.0
C      1  0.4589460000000  0.5391910000000  0.4664380000000 1.0
C      1  0.4884330000000  0.5060070000000  0.5339780000000 1.0
C      1  0.5072250000000  0.4731690000000  0.5707830000000 1.0
C      1  0.5113610000000  0.5258560000000  0.5403380000000 1.0
C      1  0.4275010000000  0.4200310000000  0.4785040000000 1.0
C      1  0.5651520000000  0.4896850000000  0.5400820000000 1.0
C      1  0.4868300000000  0.4526010000000  0.5068720000000 1.0
C      1  0.4722920000000  0.5078550000000  0.5816640000000 1.0
C      1  0.4958140000000  0.4393130000000  0.4623900000000 1.0
END
