TITL C-1154827-9204-46 -6.91134124347652e-05 125000 -319.488141463723 0 0 60 (C1) n - 1
REM
REM in /home/nfs/bkarasulu/CARBON/AIRSS/Generating-Clusters/AIREBO/Higher-Symm/Only-C60
REM
REM
REM
REM
REM
REM ./C.cell (28575a23ae977d3b5fae324c64b13b57)
REM
REM compiler GCC version 9.2.1 20190827 (Red Hat 9.2.1-1)
REM options -cpp -mtune=generic -march=x86-64 -g -O0 -fpre-include=/usr/include/finclude/math-vector-fortran.h
REM seed 1080002743 -1592935398 -324056617 -1669322342 -2006124641 -990368348 454798214 923724191 76187904 906415064 -1077836999 1301352650 883363061 -768752 -1667105923 -1541129355 871195907 977920977 164650057 -907710012 1043278309 -1444487256 302874249 431154000 -1661447139 -815633637 994270698 2041055437 -944754292 1681068657 -1328940307 -292973267 -521206597
REM
CELL 1.54180   50.00000   50.00000   50.00000   90.00000   90.00000   90.00000
LATT -1
SFAC C  
C      1  0.4479940000000  0.5425450000000  0.4623210000000 1.0
C      1  0.4551220000000  0.4634880000000  0.5349700000000 1.0
C      1  0.5498090000000  0.5387110000000  0.5475500000000 1.0
C      1  0.5540090000000  0.4591770000000  0.4660070000000 1.0
C      1  0.4807610000000  0.5038590000000  0.5535040000000 1.0
C      1  0.4686870000000  0.4911750000000  0.4475870000000 1.0
C      1  0.5278530000000  0.4958820000000  0.4391790000000 1.0
C      1  0.5200630000000  0.4966520000000  0.5543520000000 1.0
C      1  0.5032890000000  0.5433630000000  0.4523440000000 1.0
C      1  0.5062350000000  0.4583100000000  0.5434140000000 1.0
C      1  0.4925300000000  0.5426150000000  0.5506610000000 1.0
C      1  0.4992270000000  0.4482920000000  0.4496530000000 1.0
C      1  0.5603400000000  0.5237670000000  0.4577850000000 1.0
C      1  0.5656640000000  0.4805880000000  0.5516270000000 1.0
C      1  0.4353750000000  0.5198750000000  0.5479860000000 1.0
C      1  0.4263820000000  0.4805750000000  0.4677970000000 1.0
C      1  0.4675230000000  0.5544020000000  0.5446070000000 1.0
C      1  0.4682450000000  0.4429010000000  0.4626350000000 1.0
C      1  0.5276460000000  0.5548230000000  0.4586090000000 1.0
C      1  0.5324400000000  0.4440310000000  0.5367950000000 1.0
C      1  0.4347810000000  0.5497760000000  0.4922340000000 1.0
C      1  0.4376300000000  0.4596280000000  0.5070260000000 1.0
C      1  0.5548970000000  0.5402210000000  0.5140270000000 1.0
C      1  0.5737490000000  0.4538470000000  0.4931800000000 1.0
C      1  0.5606680000000  0.4847460000000  0.4874570000000 1.0
C      1  0.5640420000000  0.5136110000000  0.5294380000000 1.0
C      1  0.4337540000000  0.4874170000000  0.5247530000000 1.0
C      1  0.4362250000000  0.5171570000000  0.4827410000000 1.0
C      1  0.5210160000000  0.5526480000000  0.5365660000000 1.0
C      1  0.5273320000000  0.4381290000000  0.4648360000000 1.0
C      1  0.4794420000000  0.5540370000000  0.4650930000000 1.0
C      1  0.4825950000000  0.4521500000000  0.5217330000000 1.0
C      1  0.4987650000000  0.5186040000000  0.5286800000000 1.0
C      1  0.4903640000000  0.4760130000000  0.4634310000000 1.0
C      1  0.5058510000000  0.5116390000000  0.4542730000000 1.0
C      1  0.5041210000000  0.4870730000000  0.5258360000000 1.0
C      1  0.5219830000000  0.4596020000000  0.4897200000000 1.0
C      1  0.5153210000000  0.5480440000000  0.5074870000000 1.0
C      1  0.4905740000000  0.4649260000000  0.4955760000000 1.0
C      1  0.4846560000000  0.5465660000000  0.4971080000000 1.0
C      1  0.4388550000000  0.5182410000000  0.5157140000000 1.0
C      1  0.4543970000000  0.4885360000000  0.4853490000000 1.0
C      1  0.5496990000000  0.5123080000000  0.4863190000000 1.0
C      1  0.5618660000000  0.4824120000000  0.5199440000000 1.0
C      1  0.4784720000000  0.4750670000000  0.5536480000000 1.0
C      1  0.4666730000000  0.5170630000000  0.4572520000000 1.0
C      1  0.5274960000000  0.4671570000000  0.4462700000000 1.0
C      1  0.5211000000000  0.5269290000000  0.5604300000000 1.0
C      1  0.5444590000000  0.4562210000000  0.5102890000000 1.0
C      1  0.5402600000000  0.5449720000000  0.4851080000000 1.0
C      1  0.4534010000000  0.4547060000000  0.4820520000000 1.0
C      1  0.4581730000000  0.5465060000000  0.5154750000000 1.0
C      1  0.5506250000000  0.5102890000000  0.4356930000000 1.0
C      1  0.5409350000000  0.4819500000000  0.5641460000000 1.0
C      1  0.4582990000000  0.5179430000000  0.5628410000000 1.0
C      1  0.4436360000000  0.4784570000000  0.4442180000000 1.0
C      1  0.4864800000000  0.5184640000000  0.4813880000000 1.0
C      1  0.4822290000000  0.4952460000000  0.5010620000000 1.0
C      1  0.5201240000000  0.5151270000000  0.5024140000000 1.0
C      1  0.5158610000000  0.4915460000000  0.4798110000000 1.0
END
