TITL C-1154804-8633-292 -0.000797097809420449 125000 -313.623999592947 0 0 60 (C1) n - 1
REM
REM in /home/nfs/bkarasulu/CARBON/AIRSS/Generating-Clusters/AIREBO/Higher-Symm/Only-C60
REM
REM
REM
REM
REM
REM ./C.cell (28575a23ae977d3b5fae324c64b13b57)
REM
REM compiler GCC version 9.2.1 20190827 (Red Hat 9.2.1-1)
REM options -cpp -mtune=generic -march=x86-64 -g -O0 -fpre-include=/usr/include/finclude/math-vector-fortran.h
REM seed 45189628 -1537022591 -433486167 -405794691 1337372075 1236341022 -1751309595 -1250459959 1706303041 -744042494 -776869210 -699843076 -2091810474 -1079315588 -559809167 1779298349 -1986905879 338512396 -1934494150 -1349506846 -577862948 640129700 201304160 -1330624747 301024562 146345048 -558467767 -593031182 1626746621 -1059120748 1691367041 -405836098 -898375816
REM
CELL 1.54180   50.00000   50.00000   50.00000   90.00000   90.00000   90.00000
LATT -1
SFAC C  
C      1  0.5134640000000  0.5545060000000  0.4908850000000 1.0
C      1  0.5137760000000  0.4355900000000  0.5163180000000 1.0
C      1  0.4814440000000  0.5594630000000  0.4904790000000 1.0
C      1  0.4861650000000  0.4472910000000  0.5138550000000 1.0
C      1  0.5801780000000  0.4886320000000  0.4597280000000 1.0
C      1  0.5801440000000  0.5111160000000  0.5601330000000 1.0
C      1  0.4293510000000  0.5014540000000  0.4446900000000 1.0
C      1  0.4330520000000  0.4981330000000  0.5623110000000 1.0
C      1  0.5354830000000  0.5723680000000  0.5005920000000 1.0
C      1  0.5285800000000  0.4219520000000  0.4975810000000 1.0
C      1  0.4587540000000  0.5700240000000  0.5045980000000 1.0
C      1  0.4626840000000  0.4326620000000  0.4982750000000 1.0
C      1  0.5379670000000  0.4913270000000  0.4921890000000 1.0
C      1  0.5464630000000  0.5178180000000  0.5112040000000 1.0
C      1  0.4519790000000  0.4811440000000  0.4960140000000 1.0
C      1  0.4444850000000  0.5130380000000  0.5051340000000 1.0
C      1  0.4568720000000  0.5443040000000  0.5395220000000 1.0
C      1  0.4583510000000  0.4526580000000  0.4545510000000 1.0
C      1  0.5409690000000  0.5499260000000  0.5476240000000 1.0
C      1  0.5414930000000  0.4484290000000  0.4589040000000 1.0
C      1  0.4871800000000  0.4874660000000  0.5463900000000 1.0
C      1  0.4846620000000  0.5119470000000  0.4352310000000 1.0
C      1  0.5112870000000  0.4895760000000  0.5577000000000 1.0
C      1  0.5098320000000  0.5029200000000  0.4293840000000 1.0
C      1  0.5348790000000  0.4548090000000  0.5346500000000 1.0
C      1  0.5253630000000  0.5403720000000  0.4650810000000 1.0
C      1  0.4749910000000  0.4590660000000  0.5422880000000 1.0
C      1  0.4720760000000  0.5487200000000  0.4612570000000 1.0
C      1  0.4378460000000  0.5456790000000  0.5135440000000 1.0
C      1  0.4490240000000  0.4504330000000  0.4817170000000 1.0
C      1  0.5529890000000  0.5505510000000  0.5177980000000 1.0
C      1  0.5471410000000  0.4404020000000  0.4857710000000 1.0
C      1  0.4858880000000  0.5276510000000  0.5016700000000 1.0
C      1  0.4855190000000  0.4758290000000  0.4980200000000 1.0
C      1  0.5167470000000  0.5316150000000  0.5130220000000 1.0
C      1  0.5087080000000  0.4798060000000  0.4792500000000 1.0
C      1  0.5541790000000  0.5032450000000  0.5393930000000 1.0
C      1  0.5473470000000  0.4978450000000  0.4603300000000 1.0
C      1  0.4530850000000  0.5047030000000  0.5355310000000 1.0
C      1  0.4551490000000  0.4986680000000  0.4670490000000 1.0
C      1  0.5151100000000  0.5090700000000  0.4631660000000 1.0
C      1  0.5350380000000  0.4822640000000  0.5472890000000 1.0
C      1  0.4825640000000  0.5172540000000  0.4687510000000 1.0
C      1  0.4799440000000  0.4997430000000  0.5176910000000 1.0
C      1  0.4920820000000  0.4389470000000  0.5595990000000 1.0
C      1  0.4897270000000  0.5606820000000  0.4391950000000 1.0
C      1  0.5170340000000  0.4366980000000  0.5560030000000 1.0
C      1  0.5149360000000  0.5573490000000  0.4411630000000 1.0
C      1  0.4475810000000  0.4762820000000  0.4432820000000 1.0
C      1  0.4465350000000  0.5265550000000  0.5607430000000 1.0
C      1  0.5582350000000  0.4685540000000  0.4490650000000 1.0
C      1  0.5543480000000  0.5291370000000  0.5602430000000 1.0
C      1  0.5509780000000  0.5389820000000  0.4849670000000 1.0
C      1  0.5467170000000  0.4627800000000  0.5043540000000 1.0
C      1  0.4492970000000  0.5371730000000  0.4826760000000 1.0
C      1  0.4472290000000  0.4663400000000  0.5262570000000 1.0
C      1  0.5128030000000  0.5465800000000  0.5406520000000 1.0
C      1  0.5144060000000  0.4558290000000  0.4574870000000 1.0
C      1  0.4836770000000  0.5429970000000  0.5323510000000 1.0
C      1  0.4862090000000  0.4536450000000  0.4554040000000 1.0
END
