TITL C-1154816-9297-300 -0.000955954385212459 125000 -303.122409653349 0 0 60 (C1) n - 1
REM
REM in /home/nfs/bkarasulu/CARBON/AIRSS/Generating-Clusters/AIREBO/Higher-Symm/Only-C60
REM
REM
REM
REM
REM
REM ./C.cell (28575a23ae977d3b5fae324c64b13b57)
REM
REM compiler GCC version 9.2.1 20190827 (Red Hat 9.2.1-1)
REM options -cpp -mtune=generic -march=x86-64 -g -O0 -fpre-include=/usr/include/finclude/math-vector-fortran.h
REM seed 480896836 879085782 2081434158 -395153389 -251869664 1890580 -2057699053 -208283111 -1698329543 -661035013 661502268 1580663704 1751637732 -726529944 -2055759188 -738106618 1074294404 -926141758 -1156187245 -801457814 -792563288 -1640804077 -2012892595 -863260023 -1056375884 -269884833 -84662927 -1268071907 564716224 597691328 1931882275 -1446801150 -769616351
REM
CELL 1.54180   50.00000   50.00000   50.00000   90.00000   90.00000   90.00000
LATT -1
SFAC C  
C      1  0.4740240000000  0.4302520000000  0.4577570000000 1.0
C      1  0.4510220000000  0.4303190000000  0.5123940000000 1.0
C      1  0.4964120000000  0.4302290000000  0.5497560000000 1.0
C      1  0.5462040000000  0.4302400000000  0.5185240000000 1.0
C      1  0.5321780000000  0.4311720000000  0.4613550000000 1.0
C      1  0.4764390000000  0.4871890000000  0.4632710000000 1.0
C      1  0.4585390000000  0.4857630000000  0.5119920000000 1.0
C      1  0.4972000000000  0.4873270000000  0.5434680000000 1.0
C      1  0.5392690000000  0.4868300000000  0.5158460000000 1.0
C      1  0.5275430000000  0.4875380000000  0.4668400000000 1.0
C      1  0.5510020000000  0.5404710000000  0.4968030000000 1.0
C      1  0.5131540000000  0.5404800000000  0.4520760000000 1.0
C      1  0.4497710000000  0.5451280000000  0.4627670000000 1.0
C      1  0.4614370000000  0.5398170000000  0.5295370000000 1.0
C      1  0.5189410000000  0.5446750000000  0.5615630000000 1.0
C      1  0.5248100000000  0.4429930000000  0.5417890000000 1.0
C      1  0.5475530000000  0.4435750000000  0.4891060000000 1.0
C      1  0.5044580000000  0.4440230000000  0.4510660000000 1.0
C      1  0.4553920000000  0.4427050000000  0.4809180000000 1.0
C      1  0.4676550000000  0.4433200000000  0.5370550000000 1.0
C      1  0.4753310000000  0.5115920000000  0.5048610000000 1.0
C      1  0.4967830000000  0.5130930000000  0.5251850000000 1.0
C      1  0.5217420000000  0.5121480000000  0.5100860000000 1.0
C      1  0.5166450000000  0.5134900000000  0.4812890000000 1.0
C      1  0.4869460000000  0.5134490000000  0.4773540000000 1.0
C      1  0.5271360000000  0.5634970000000  0.4896170000000 1.0
C      1  0.4986440000000  0.5614260000000  0.4751400000000 1.0
C      1  0.4771270000000  0.5623790000000  0.4974430000000 1.0
C      1  0.4902900000000  0.5666590000000  0.5227360000000 1.0
C      1  0.5190420000000  0.5667320000000  0.5201780000000 1.0
C      1  0.4323460000000  0.5031020000000  0.4824790000000 1.0
C      1  0.4637920000000  0.5055000000000  0.5584680000000 1.0
C      1  0.5444180000000  0.5036610000000  0.5522610000000 1.0
C      1  0.5639550000000  0.5046360000000  0.4752890000000 1.0
C      1  0.4950740000000  0.5053450000000  0.4314630000000 1.0
C      1  0.5144350000000  0.5016830000000  0.5689150000000 1.0
C      1  0.5687360000000  0.5023870000000  0.5091430000000 1.0
C      1  0.5289540000000  0.5032690000000  0.4367310000000 1.0
C      1  0.4475010000000  0.5006260000000  0.4518960000000 1.0
C      1  0.4391190000000  0.5020110000000  0.5346850000000 1.0
C      1  0.5203860000000  0.4624800000000  0.4827290000000 1.0
C      1  0.4897160000000  0.4623790000000  0.4750550000000 1.0
C      1  0.4734120000000  0.4612400000000  0.5017920000000 1.0
C      1  0.4933230000000  0.4622530000000  0.5264270000000 1.0
C      1  0.5222570000000  0.4615870000000  0.5142520000000 1.0
C      1  0.5482900000000  0.5244530000000  0.5256090000000 1.0
C      1  0.5413440000000  0.5244640000000  0.4606510000000 1.0
C      1  0.4723340000000  0.5240360000000  0.4485320000000 1.0
C      1  0.4431450000000  0.5222620000000  0.5073670000000 1.0
C      1  0.4919390000000  0.5245530000000  0.5568290000000 1.0
C      1  0.5330150000000  0.5507950000000  0.5388310000000 1.0
C      1  0.5529960000000  0.5553800000000  0.4687180000000 1.0
C      1  0.4864880000000  0.5546440000000  0.4441180000000 1.0
C      1  0.4526570000000  0.5498010000000  0.4898320000000 1.0
C      1  0.4780190000000  0.5542690000000  0.5478970000000 1.0
C      1  0.5574750000000  0.4750650000000  0.4907710000000 1.0
C      1  0.5083800000000  0.4759320000000  0.4421570000000 1.0
C      1  0.4476290000000  0.4739280000000  0.4740230000000 1.0
C      1  0.4591390000000  0.4753110000000  0.5435220000000 1.0
C      1  0.5270350000000  0.4744380000000  0.5517900000000 1.0
END
