TITL C-1154801-8518-651 2.71961673904908e-05 125000 -343.30081817755 0 0 60 (C1) n - 1
REM
REM in /home/nfs/bkarasulu/CARBON/AIRSS/Generating-Clusters/AIREBO/Higher-Symm/Only-C60
REM
REM
REM
REM
REM
REM ./C.cell (28575a23ae977d3b5fae324c64b13b57)
REM
REM compiler GCC version 9.2.1 20190827 (Red Hat 9.2.1-1)
REM options -cpp -mtune=generic -march=x86-64 -g -O0 -fpre-include=/usr/include/finclude/math-vector-fortran.h
REM seed -1300466514 -258014904 -1754353098 -17165653 -275124377 1798778563 1237445848 -1795701297 409196103 919402708 -1377845283 1370826681 585215940 -1201622372 -308078342 914897706 -586450547 1610417878 -454819560 -1011413621 722413585 1780419182 -1214255181 -2037040087 1563098046 504840920 -1372999533 86601106 460984023 60653441 1999768428 839576417 -87061375
REM
CELL 1.54180   50.00000   50.00000   50.00000   90.00000   90.00000   90.00000
LATT -1
SFAC C  
C      1  0.4929790000000  0.5198330000000  0.4572370000000 1.0
C      1  0.4572030000000  0.5002960000000  0.5221910000000 1.0
C      1  0.5188400000000  0.4646800000000  0.4993930000000 1.0
C      1  0.4973530000000  0.5256230000000  0.5460080000000 1.0
C      1  0.5012310000000  0.4734370000000  0.5465390000000 1.0
C      1  0.5012950000000  0.4808780000000  0.4526990000000 1.0
C      1  0.5429080000000  0.5056690000000  0.4815760000000 1.0
C      1  0.4512250000000  0.4877440000000  0.4724920000000 1.0
C      1  0.5482840000000  0.4892460000000  0.5322920000000 1.0
C      1  0.4860760000000  0.4670190000000  0.4991900000000 1.0
C      1  0.5315640000000  0.5476050000000  0.5102080000000 1.0
C      1  0.4783590000000  0.5453240000000  0.5032860000000 1.0
C      1  0.4547660000000  0.5317550000000  0.5126640000000 1.0
C      1  0.5238780000000  0.5058100000000  0.4595900000000 1.0
C      1  0.5005040000000  0.4530820000000  0.5250890000000 1.0
C      1  0.5496150000000  0.5293640000000  0.5015400000000 1.0
C      1  0.5419520000000  0.4802920000000  0.5024880000000 1.0
C      1  0.4632370000000  0.4835470000000  0.4975910000000 1.0
C      1  0.4786530000000  0.4987020000000  0.5436650000000 1.0
C      1  0.4704390000000  0.4950850000000  0.4512360000000 1.0
C      1  0.5297830000000  0.4871490000000  0.5515170000000 1.0
C      1  0.5022360000000  0.4575670000000  0.4716690000000 1.0
C      1  0.5025060000000  0.5440540000000  0.5237540000000 1.0
C      1  0.4876920000000  0.5445250000000  0.4723080000000 1.0
C      1  0.5226120000000  0.4136840000000  0.4811480000000 1.0
C      1  0.4852350000000  0.5213260000000  0.4252160000000 1.0
C      1  0.4238230000000  0.4979850000000  0.5274880000000 1.0
C      1  0.4749050000000  0.4143390000000  0.5086350000000 1.0
C      1  0.5317840000000  0.5766790000000  0.5014980000000 1.0
C      1  0.4761080000000  0.5765740000000  0.4924960000000 1.0
C      1  0.5078680000000  0.5248020000000  0.5731580000000 1.0
C      1  0.4887170000000  0.4775750000000  0.5760260000000 1.0
C      1  0.5102740000000  0.4738860000000  0.4217240000000 1.0
C      1  0.5773480000000  0.5060790000000  0.4768580000000 1.0
C      1  0.4233540000000  0.4924770000000  0.4741740000000 1.0
C      1  0.5754600000000  0.4995430000000  0.5281830000000 1.0
C      1  0.4989890000000  0.4230670000000  0.5217430000000 1.0
C      1  0.4171520000000  0.5188820000000  0.4835010000000 1.0
C      1  0.5249930000000  0.4999590000000  0.4269660000000 1.0
C      1  0.4999420000000  0.4274230000000  0.4699540000000 1.0
C      1  0.5095640000000  0.5777340000000  0.5236920000000 1.0
C      1  0.4962410000000  0.5738430000000  0.4686160000000 1.0
C      1  0.5754960000000  0.5240080000000  0.5125470000000 1.0
C      1  0.5726110000000  0.4814010000000  0.4926880000000 1.0
C      1  0.4084690000000  0.4766120000000  0.5170430000000 1.0
C      1  0.4699030000000  0.5008540000000  0.5766750000000 1.0
C      1  0.4694370000000  0.4964500000000  0.4178360000000 1.0
C      1  0.5245490000000  0.5009710000000  0.5768850000000 1.0
C      1  0.4084000000000  0.4730010000000  0.4892030000000 1.0
C      1  0.4753360000000  0.4169690000000  0.4805330000000 1.0
C      1  0.4829260000000  0.5239480000000  0.5895540000000 1.0
C      1  0.5119880000000  0.5219970000000  0.4129080000000 1.0
C      1  0.5926570000000  0.4773180000000  0.5155350000000 1.0
C      1  0.4267200000000  0.5231110000000  0.5101760000000 1.0
C      1  0.5960440000000  0.5260070000000  0.4901480000000 1.0
C      1  0.5222110000000  0.4115570000000  0.5092930000000 1.0
C      1  0.4861780000000  0.5922140000000  0.5148060000000 1.0
C      1  0.5226950000000  0.5825230000000  0.4750030000000 1.0
C      1  0.5114800000000  0.4809850000000  0.5957240000000 1.0
C      1  0.4859570000000  0.4759270000000  0.4061490000000 1.0
END
