TITL C-1154802-8274-551 -2.25535875937154e-05 125000 -324.9928996231 0 0 60 (C1) n - 1
REM
REM in /home/nfs/bkarasulu/CARBON/AIRSS/Generating-Clusters/AIREBO/Higher-Symm/Only-C60
REM
REM
REM
REM
REM
REM ./C.cell (28575a23ae977d3b5fae324c64b13b57)
REM
REM compiler GCC version 9.2.1 20190827 (Red Hat 9.2.1-1)
REM options -cpp -mtune=generic -march=x86-64 -g -O0 -fpre-include=/usr/include/finclude/math-vector-fortran.h
REM seed 1477212780 445126610 344181002 -588324436 -1541973690 -2063275982 1951836152 -1951996809 -1596661579 1726269014 -766531632 971395665 1510182745 878847548 1572461774 2081714488 -339352433 130639234 87213323 60555795 2016422081 533782361 309127417 -870547819 40030146 -2055861393 -2045596514 -2115371176 1500635386 -1800549658 1966056294 1366918918 -110475398
REM
CELL 1.54180   50.00000   50.00000   50.00000   90.00000   90.00000   90.00000
LATT -1
SFAC C  
C      1  0.5455670000000  0.4456840000000  0.4858560000000 1.0
C      1  0.4765070000000  0.4247960000000  0.4849040000000 1.0
C      1  0.4370250000000  0.4681850000000  0.4869720000000 1.0
C      1  0.4349200000000  0.5460750000000  0.4856210000000 1.0
C      1  0.4851530000000  0.5706910000000  0.4841930000000 1.0
C      1  0.5356740000000  0.5508120000000  0.4899570000000 1.0
C      1  0.5815610000000  0.4935670000000  0.4840590000000 1.0
C      1  0.4350470000000  0.5038350000000  0.4524090000000 1.0
C      1  0.4652130000000  0.5470020000000  0.4459360000000 1.0
C      1  0.5144440000000  0.5559460000000  0.4476150000000 1.0
C      1  0.5574080000000  0.5259890000000  0.4529650000000 1.0
C      1  0.5546870000000  0.4725380000000  0.4464810000000 1.0
C      1  0.5138700000000  0.4394700000000  0.4497330000000 1.0
C      1  0.4695170000000  0.4617580000000  0.4537590000000 1.0
C      1  0.5688260000000  0.4714710000000  0.5274340000000 1.0
C      1  0.5116590000000  0.4423790000000  0.5242900000000 1.0
C      1  0.4594400000000  0.4438070000000  0.5291860000000 1.0
C      1  0.4400860000000  0.5050090000000  0.5206930000000 1.0
C      1  0.4569800000000  0.5552200000000  0.5295650000000 1.0
C      1  0.5113420000000  0.5589120000000  0.5273090000000 1.0
C      1  0.5572040000000  0.5220940000000  0.5260760000000 1.0
C      1  0.5102600000000  0.4628210000000  0.4736660000000 1.0
C      1  0.4750270000000  0.4810370000000  0.4794800000000 1.0
C      1  0.4613020000000  0.5062070000000  0.4723250000000 1.0
C      1  0.4799280000000  0.5230570000000  0.4560240000000 1.0
C      1  0.5069540000000  0.5294400000000  0.4675550000000 1.0
C      1  0.5318970000000  0.5126040000000  0.4710220000000 1.0
C      1  0.5359720000000  0.4822020000000  0.4726580000000 1.0
C      1  0.5506230000000  0.4741830000000  0.5002440000000 1.0
C      1  0.4959670000000  0.4482090000000  0.4964550000000 1.0
C      1  0.4641040000000  0.4592650000000  0.5008010000000 1.0
C      1  0.4523180000000  0.5213770000000  0.4962200000000 1.0
C      1  0.4718280000000  0.5470860000000  0.5009390000000 1.0
C      1  0.5050400000000  0.5398430000000  0.4998700000000 1.0
C      1  0.5551400000000  0.5087220000000  0.4955360000000 1.0
C      1  0.5403890000000  0.5504840000000  0.4618590000000 1.0
C      1  0.5693030000000  0.4977480000000  0.4570350000000 1.0
C      1  0.5427000000000  0.4460650000000  0.4574230000000 1.0
C      1  0.4837800000000  0.4375800000000  0.4575490000000 1.0
C      1  0.4413280000000  0.4741690000000  0.4592540000000 1.0
C      1  0.4393280000000  0.5361090000000  0.4574550000000 1.0
C      1  0.4869910000000  0.5649700000000  0.4564630000000 1.0
C      1  0.4435170000000  0.5289930000000  0.5413990000000 1.0
C      1  0.4843120000000  0.5636810000000  0.5438460000000 1.0
C      1  0.5353580000000  0.5433920000000  0.5403050000000 1.0
C      1  0.5670270000000  0.4982730000000  0.5436500000000 1.0
C      1  0.5433350000000  0.4509030000000  0.5318530000000 1.0
C      1  0.4872700000000  0.4396880000000  0.5437630000000 1.0
C      1  0.4460940000000  0.4740930000000  0.5331940000000 1.0
C      1  0.4364800000000  0.5652230000000  0.5052850000000 1.0
C      1  0.5052950000000  0.5797970000000  0.5013700000000 1.0
C      1  0.5564600000000  0.5484530000000  0.5068950000000 1.0
C      1  0.5904570000000  0.4753790000000  0.5025010000000 1.0
C      1  0.5313080000000  0.4283830000000  0.5012840000000 1.0
C      1  0.4575660000000  0.4201340000000  0.5047690000000 1.0
C      1  0.4220000000000  0.4842470000000  0.5031130000000 1.0
C      1  0.5034150000000  0.5098480000000  0.5113190000000 1.0
C      1  0.4960290000000  0.5011740000000  0.5637130000000 1.0
C      1  0.5009540000000  0.5053840000000  0.5383160000000 1.0
C      1  0.5021950000000  0.4905860000000  0.4915580000000 1.0
END
