TITL C-1154816-9297-282 0.000103104710128519 125000 -285.685630953779 0 0 60 (C1) n - 1
REM
REM in /home/nfs/bkarasulu/CARBON/AIRSS/Generating-Clusters/AIREBO/Higher-Symm/Only-C60
REM
REM
REM
REM
REM
REM ./C.cell (28575a23ae977d3b5fae324c64b13b57)
REM
REM compiler GCC version 9.2.1 20190827 (Red Hat 9.2.1-1)
REM options -cpp -mtune=generic -march=x86-64 -g -O0 -fpre-include=/usr/include/finclude/math-vector-fortran.h
REM seed -352241187 -1105886214 -1688923965 2086852472 -1227599958 -1432654193 84961574 1072445682 -520791217 -329078384 764393153 -1598665677 1284560551 149845488 2011677643 -746451688 -221773083 2097061657 1608344791 1455176787 1444623388 -922463865 438110908 1410447610 -1895815988 -1298984370 1414346503 2104714832 2134519835 -716366792 998374344 -1886785667 -503526275
REM
CELL 1.54180   50.00000   50.00000   50.00000   90.00000   90.00000   90.00000
LATT -1
SFAC C  
C      1  0.4777560000000  0.4781750000000  0.4816880000000 1.0
C      1  0.4750980000000  0.5290090000000  0.5143980000000 1.0
C      1  0.5247760000000  0.4835160000000  0.4813370000000 1.0
C      1  0.5222540000000  0.5155820000000  0.5200920000000 1.0
C      1  0.4761380000000  0.4776620000000  0.5222890000000 1.0
C      1  0.4820070000000  0.5304040000000  0.4851030000000 1.0
C      1  0.5178380000000  0.4820540000000  0.5201760000000 1.0
C      1  0.5261100000000  0.5175000000000  0.4805560000000 1.0
C      1  0.5102400000000  0.5808870000000  0.5157380000000 1.0
C      1  0.5137990000000  0.4165210000000  0.4849130000000 1.0
C      1  0.4796340000000  0.5818600000000  0.5149470000000 1.0
C      1  0.4826160000000  0.4205600000000  0.4835050000000 1.0
C      1  0.5157680000000  0.5819360000000  0.4831140000000 1.0
C      1  0.5145350000000  0.4174590000000  0.5183390000000 1.0
C      1  0.4851050000000  0.5816810000000  0.4850910000000 1.0
C      1  0.4852580000000  0.4208500000000  0.5124470000000 1.0
C      1  0.4484680000000  0.4721260000000  0.4562710000000 1.0
C      1  0.4547770000000  0.5268830000000  0.5481440000000 1.0
C      1  0.5450380000000  0.4630510000000  0.4545690000000 1.0
C      1  0.5464470000000  0.5353550000000  0.5444040000000 1.0
C      1  0.4549950000000  0.4651220000000  0.5531780000000 1.0
C      1  0.4589680000000  0.5267260000000  0.4533230000000 1.0
C      1  0.5469510000000  0.4691750000000  0.5434610000000 1.0
C      1  0.5505380000000  0.5329920000000  0.4537160000000 1.0
C      1  0.5592900000000  0.5157900000000  0.4818690000000 1.0
C      1  0.5508050000000  0.4852500000000  0.5135970000000 1.0
C      1  0.4534500000000  0.5137210000000  0.4844480000000 1.0
C      1  0.4430670000000  0.4770260000000  0.5227850000000 1.0
C      1  0.5547880000000  0.5191610000000  0.5154650000000 1.0
C      1  0.5574530000000  0.4817390000000  0.4803830000000 1.0
C      1  0.4481380000000  0.5097400000000  0.5193680000000 1.0
C      1  0.4462820000000  0.4817590000000  0.4892200000000 1.0
C      1  0.5114860000000  0.4586920000000  0.4511590000000 1.0
C      1  0.5142910000000  0.5455900000000  0.5486000000000 1.0
C      1  0.4797590000000  0.4627460000000  0.4452010000000 1.0
C      1  0.4851760000000  0.5425540000000  0.5511750000000 1.0
C      1  0.5164020000000  0.4555150000000  0.5495460000000 1.0
C      1  0.5181000000000  0.5428310000000  0.4509650000000 1.0
C      1  0.4877140000000  0.4552140000000  0.5531380000000 1.0
C      1  0.4894050000000  0.5418540000000  0.4476510000000 1.0
C      1  0.4670270000000  0.5584160000000  0.5272930000000 1.0
C      1  0.4728150000000  0.4456330000000  0.4730170000000 1.0
C      1  0.5227700000000  0.5492790000000  0.5155860000000 1.0
C      1  0.5201500000000  0.4498600000000  0.4828390000000 1.0
C      1  0.4731340000000  0.5592060000000  0.4711990000000 1.0
C      1  0.4724500000000  0.4439560000000  0.5251230000000 1.0
C      1  0.5296960000000  0.5512830000000  0.4822690000000 1.0
C      1  0.5254560000000  0.4490930000000  0.5167050000000 1.0
C      1  0.5587640000000  0.4473990000000  0.5233350000000 1.0
C      1  0.5624190000000  0.5548130000000  0.4737280000000 1.0
C      1  0.4413180000000  0.4401930000000  0.5382690000000 1.0
C      1  0.4464040000000  0.5550740000000  0.4505940000000 1.0
C      1  0.5526160000000  0.4407390000000  0.4745230000000 1.0
C      1  0.5544620000000  0.5581240000000  0.5241840000000 1.0
C      1  0.4466960000000  0.4416290000000  0.4516160000000 1.0
C      1  0.4405040000000  0.5544910000000  0.5482060000000 1.0
C      1  0.5147660000000  0.4993280000000  0.4541540000000 1.0
C      1  0.4856590000000  0.5027510000000  0.5310000000000 1.0
C      1  0.5123660000000  0.5006590000000  0.5481220000000 1.0
C      1  0.4898070000000  0.5018030000000  0.4728630000000 1.0
END
