TITL C-1154821-8623-533 -0.0044468700751506 125000 -314.334222258023 0 0 60 (C1) n - 1
REM
REM in /home/nfs/bkarasulu/CARBON/AIRSS/Generating-Clusters/AIREBO/Higher-Symm/Only-C60
REM
REM
REM
REM
REM
REM ./C.cell (28575a23ae977d3b5fae324c64b13b57)
REM
REM compiler GCC version 9.2.1 20190827 (Red Hat 9.2.1-1)
REM options -cpp -mtune=generic -march=x86-64 -g -O0 -fpre-include=/usr/include/finclude/math-vector-fortran.h
REM seed 1257838714 1443946241 -1672755155 -1309308973 -173831018 1503118194 2026416518 899499060 -1072929239 1340693504 1333758004 -1808259283 344418131 1845407947 -1082739203 -403532527 1671523393 -739431660 -966707293 1018925288 1516824001 2032508711 809911263 1778910835 949364755 -232664499 1513197846 -1243206833 -1725800821 -298513123 -1324717321 263973162 1886981497
REM
CELL 1.54180   50.00000   50.00000   50.00000   90.00000   90.00000   90.00000
LATT -1
SFAC C  
C      1  0.5119230000000  0.4272850000000  0.5238220000000 1.0
C      1  0.4390180000000  0.5281710000000  0.5225720000000 1.0
C      1  0.5545600000000  0.5378410000000  0.5249170000000 1.0
C      1  0.4500640000000  0.5681500000000  0.4829610000000 1.0
C      1  0.5794130000000  0.5046580000000  0.4892630000000 1.0
C      1  0.4572840000000  0.4075640000000  0.5058580000000 1.0
C      1  0.5045740000000  0.4263290000000  0.4720000000000 1.0
C      1  0.4392720000000  0.5419180000000  0.4774860000000 1.0
C      1  0.5678390000000  0.5295690000000  0.4806390000000 1.0
C      1  0.4670690000000  0.4889300000000  0.5134550000000 1.0
C      1  0.5168030000000  0.5359440000000  0.5122650000000 1.0
C      1  0.5172580000000  0.4634540000000  0.5079430000000 1.0
C      1  0.4893760000000  0.4996680000000  0.5332880000000 1.0
C      1  0.4921660000000  0.5294570000000  0.5314750000000 1.0
C      1  0.5166380000000  0.4868120000000  0.5312740000000 1.0
C      1  0.4613750000000  0.4328950000000  0.5152860000000 1.0
C      1  0.4677370000000  0.5688700000000  0.5053540000000 1.0
C      1  0.5664640000000  0.4929880000000  0.5119860000000 1.0
C      1  0.5119500000000  0.5676310000000  0.5232810000000 1.0
C      1  0.5420400000000  0.4533970000000  0.5245570000000 1.0
C      1  0.4434640000000  0.4767900000000  0.5276660000000 1.0
C      1  0.5370110000000  0.5554460000000  0.5407330000000 1.0
C      1  0.5280340000000  0.4373080000000  0.5485860000000 1.0
C      1  0.4374480000000  0.5055190000000  0.5407440000000 1.0
C      1  0.4772430000000  0.5391950000000  0.4426760000000 1.0
C      1  0.5488250000000  0.5056610000000  0.4396050000000 1.0
C      1  0.4775570000000  0.4599590000000  0.4384330000000 1.0
C      1  0.4615560000000  0.4808250000000  0.4325400000000 1.0
C      1  0.5019170000000  0.5449150000000  0.4339100000000 1.0
C      1  0.5384600000000  0.4825860000000  0.4305300000000 1.0
C      1  0.5376260000000  0.5094550000000  0.5169010000000 1.0
C      1  0.4876350000000  0.4469280000000  0.5112390000000 1.0
C      1  0.4664850000000  0.5405860000000  0.5185930000000 1.0
C      1  0.5235460000000  0.4702820000000  0.5555690000000 1.0
C      1  0.4663570000000  0.4965680000000  0.5536430000000 1.0
C      1  0.5090790000000  0.5419610000000  0.5536060000000 1.0
C      1  0.4241930000000  0.5316330000000  0.4994960000000 1.0
C      1  0.5675260000000  0.5475330000000  0.5026210000000 1.0
C      1  0.5097910000000  0.4168060000000  0.4970470000000 1.0
C      1  0.5516220000000  0.4566320000000  0.4694800000000 1.0
C      1  0.4363660000000  0.4789090000000  0.4730950000000 1.0
C      1  0.5148950000000  0.5702570000000  0.4712810000000 1.0
C      1  0.5139190000000  0.5411920000000  0.4810450000000 1.0
C      1  0.5262040000000  0.4709250000000  0.4793780000000 1.0
C      1  0.4607400000000  0.4909120000000  0.4814550000000 1.0
C      1  0.5263470000000  0.4597680000000  0.4382150000000 1.0
C      1  0.4487780000000  0.5022400000000  0.4430830000000 1.0
C      1  0.5278660000000  0.5467220000000  0.4416590000000 1.0
C      1  0.5268580000000  0.5539010000000  0.5756870000000 1.0
C      1  0.5252270000000  0.4498840000000  0.5800890000000 1.0
C      1  0.4456290000000  0.4950580000000  0.5753460000000 1.0
C      1  0.4915820000000  0.5816970000000  0.5131500000000 1.0
C      1  0.5651270000000  0.4665220000000  0.5209400000000 1.0
C      1  0.4416630000000  0.4493240000000  0.5266570000000 1.0
C      1  0.4837890000000  0.4683700000000  0.4868850000000 1.0
C      1  0.4836550000000  0.5313200000000  0.4907330000000 1.0
C      1  0.5301260000000  0.5006170000000  0.4849350000000 1.0
C      1  0.4628730000000  0.5216930000000  0.4671500000000 1.0
C      1  0.5391610000000  0.5248710000000  0.4651350000000 1.0
C      1  0.5009990000000  0.4576940000000  0.4607810000000 1.0
END
