TITL C-1154810-7815-367 0.00162127880996109 125000 -345.556913033719 0 0 60 (C1) n - 1
REM
REM in /home/nfs/bkarasulu/CARBON/AIRSS/Generating-Clusters/AIREBO/Higher-Symm/Only-C60
REM
REM
REM
REM
REM
REM ./C.cell (28575a23ae977d3b5fae324c64b13b57)
REM
REM compiler GCC version 9.2.1 20190827 (Red Hat 9.2.1-1)
REM options -cpp -mtune=generic -march=x86-64 -g -O0 -fpre-include=/usr/include/finclude/math-vector-fortran.h
REM seed -1488547349 146086085 -324412066 -1822063033 376195259 -204051558 1766672976 1845745493 591807913 366265706 -756416416 -737147481 -497132371 878069948 -1851698019 1666510709 641848852 1753355488 -1522635315 721542948 -273637030 1454350233 -786934379 -1251762477 -1143107923 -290344498 -1690652578 -1942748742 -1677327880 -1886308599 1977148391 -1700644312 -2052564756
REM
CELL 1.54180   50.00000   50.00000   50.00000   90.00000   90.00000   90.00000
LATT -1
SFAC C  
C      1  0.5483620000000  0.4677640000000  0.5250360000000 1.0
C      1  0.5283390000000  0.4641110000000  0.4558990000000 1.0
C      1  0.5028600000000  0.4706540000000  0.4429800000000 1.0
C      1  0.4518420000000  0.4654210000000  0.4639680000000 1.0
C      1  0.4483970000000  0.4598470000000  0.5212780000000 1.0
C      1  0.4959530000000  0.4710910000000  0.5369700000000 1.0
C      1  0.5257780000000  0.4715400000000  0.5472890000000 1.0
C      1  0.4978630000000  0.5384660000000  0.5355730000000 1.0
C      1  0.5285000000000  0.5353400000000  0.5246890000000 1.0
C      1  0.5357860000000  0.5315720000000  0.4916210000000 1.0
C      1  0.5416840000000  0.5344960000000  0.4582550000000 1.0
C      1  0.4834760000000  0.5339680000000  0.4687620000000 1.0
C      1  0.4592570000000  0.5339300000000  0.4907010000000 1.0
C      1  0.4671610000000  0.5344310000000  0.5215190000000 1.0
C      1  0.5828200000000  0.5214480000000  0.4738040000000 1.0
C      1  0.5196010000000  0.5404660000000  0.4173910000000 1.0
C      1  0.4395740000000  0.5349960000000  0.4416430000000 1.0
C      1  0.4108680000000  0.5310630000000  0.4996950000000 1.0
C      1  0.4403270000000  0.5378820000000  0.5628180000000 1.0
C      1  0.5113630000000  0.5386400000000  0.5851560000000 1.0
C      1  0.5805030000000  0.5379280000000  0.5278610000000 1.0
C      1  0.4500160000000  0.5079570000000  0.4417650000000 1.0
C      1  0.4226550000000  0.5049680000000  0.5134430000000 1.0
C      1  0.4577330000000  0.5115680000000  0.5668830000000 1.0
C      1  0.5140740000000  0.5096030000000  0.5781650000000 1.0
C      1  0.5736070000000  0.5113380000000  0.5369460000000 1.0
C      1  0.5682800000000  0.4952330000000  0.4696900000000 1.0
C      1  0.5212140000000  0.5116710000000  0.4230280000000 1.0
C      1  0.5538910000000  0.5029110000000  0.4942750000000 1.0
C      1  0.5421830000000  0.5096660000000  0.4430350000000 1.0
C      1  0.4784340000000  0.5127800000000  0.4432830000000 1.0
C      1  0.4400050000000  0.5068250000000  0.4869700000000 1.0
C      1  0.4476170000000  0.5097800000000  0.5353710000000 1.0
C      1  0.4895620000000  0.5163430000000  0.5601530000000 1.0
C      1  0.5453210000000  0.5151330000000  0.5453830000000 1.0
C      1  0.5008170000000  0.5543590000000  0.5646880000000 1.0
C      1  0.5573460000000  0.5533110000000  0.5239870000000 1.0
C      1  0.5681020000000  0.5413140000000  0.4874160000000 1.0
C      1  0.5313700000000  0.5542860000000  0.4396140000000 1.0
C      1  0.4578960000000  0.5516160000000  0.4549370000000 1.0
C      1  0.4285930000000  0.5451070000000  0.4876790000000 1.0
C      1  0.4450280000000  0.5493500000000  0.5405230000000 1.0
C      1  0.4331160000000  0.4793510000000  0.5300380000000 1.0
C      1  0.4764970000000  0.4874220000000  0.5518170000000 1.0
C      1  0.5327900000000  0.4968590000000  0.5621980000000 1.0
C      1  0.5619760000000  0.4910950000000  0.5181150000000 1.0
C      1  0.5499050000000  0.4821820000000  0.4508690000000 1.0
C      1  0.4986620000000  0.4970590000000  0.4318980000000 1.0
C      1  0.4423600000000  0.4914990000000  0.4638250000000 1.0
C      1  0.5394650000000  0.4459740000000  0.5053310000000 1.0
C      1  0.5244450000000  0.4499270000000  0.4807190000000 1.0
C      1  0.4802790000000  0.4575990000000  0.4521550000000 1.0
C      1  0.4693740000000  0.4410760000000  0.4799680000000 1.0
C      1  0.4657550000000  0.4401630000000  0.5115470000000 1.0
C      1  0.4896010000000  0.4402210000000  0.5261850000000 1.0
C      1  0.5203720000000  0.4404570000000  0.5306660000000 1.0
C      1  0.4974870000000  0.4529790000000  0.4891270000000 1.0
C      1  0.5002220000000  0.4987630000000  0.4957360000000 1.0
C      1  0.5059310000000  0.5221100000000  0.4848110000000 1.0
C      1  0.4951910000000  0.4744760000000  0.5063260000000 1.0
END
