TITL C-1154816-9297-458 -0.000362671449422405 125000 -352.60982371596 0 0 60 (C1) n - 1
REM
REM in /home/nfs/bkarasulu/CARBON/AIRSS/Generating-Clusters/AIREBO/Higher-Symm/Only-C60
REM
REM
REM
REM
REM
REM ./C.cell (28575a23ae977d3b5fae324c64b13b57)
REM
REM compiler GCC version 9.2.1 20190827 (Red Hat 9.2.1-1)
REM options -cpp -mtune=generic -march=x86-64 -g -O0 -fpre-include=/usr/include/finclude/math-vector-fortran.h
REM seed -715617272 -1809283135 -794949787 1075628943 809396459 -366095843 1082125908 1438782833 -2078325801 1811804842 -661462071 -110285755 106088400 1316963496 1528724207 -1542423591 1752803095 1863470584 374263573 169463215 -1296643437 1453708053 1352959445 1846036122 -1285367111 -220107346 781860115 1444748813 51149464 -2144564530 -807999750 1376119053 1807797625
REM
CELL 1.54180   50.00000   50.00000   50.00000   90.00000   90.00000   90.00000
LATT -1
SFAC C  
C      1  0.4523170000000  0.5141570000000  0.4806990000000 1.0
C      1  0.5470370000000  0.4777750000000  0.4857540000000 1.0
C      1  0.4346760000000  0.4647760000000  0.5228310000000 1.0
C      1  0.5648760000000  0.4442900000000  0.5169490000000 1.0
C      1  0.4809220000000  0.4552090000000  0.5456130000000 1.0
C      1  0.5017130000000  0.5340920000000  0.4700140000000 1.0
C      1  0.5363720000000  0.5670850000000  0.4720160000000 1.0
C      1  0.4944280000000  0.5133720000000  0.5686910000000 1.0
C      1  0.4450040000000  0.4527430000000  0.4732970000000 1.0
C      1  0.5550330000000  0.5519140000000  0.4862360000000 1.0
C      1  0.4583090000000  0.5431630000000  0.5538620000000 1.0
C      1  0.4519960000000  0.5587370000000  0.5305650000000 1.0
C      1  0.5762710000000  0.5042370000000  0.4921090000000 1.0
C      1  0.5001010000000  0.4395560000000  0.5039790000000 1.0
C      1  0.5104310000000  0.5180040000000  0.4986770000000 1.0
C      1  0.4855490000000  0.5389680000000  0.5597700000000 1.0
C      1  0.5660100000000  0.4885150000000  0.4636590000000 1.0
C      1  0.4798730000000  0.5321590000000  0.5033880000000 1.0
C      1  0.5077550000000  0.4066320000000  0.4698150000000 1.0
C      1  0.4731220000000  0.4900840000000  0.4784800000000 1.0
C      1  0.5146470000000  0.5555140000000  0.4583140000000 1.0
C      1  0.5293810000000  0.4823540000000  0.4007820000000 1.0
C      1  0.4409890000000  0.5609980000000  0.4609900000000 1.0
C      1  0.5695560000000  0.5058570000000  0.5207260000000 1.0
C      1  0.4935460000000  0.4898530000000  0.4972520000000 1.0
C      1  0.5219170000000  0.4301370000000  0.5481090000000 1.0
C      1  0.5103770000000  0.5016000000000  0.5498260000000 1.0
C      1  0.4365280000000  0.5438850000000  0.4827550000000 1.0
C      1  0.4571650000000  0.5455080000000  0.5065380000000 1.0
C      1  0.4540420000000  0.4575310000000  0.5416550000000 1.0
C      1  0.4997790000000  0.4681100000000  0.5128120000000 1.0
C      1  0.5063260000000  0.5482940000000  0.5422660000000 1.0
C      1  0.5603610000000  0.4598940000000  0.5401510000000 1.0
C      1  0.5127470000000  0.5739450000000  0.5355040000000 1.0
C      1  0.4689300000000  0.4656730000000  0.4653930000000 1.0
C      1  0.4095400000000  0.5415560000000  0.4903140000000 1.0
C      1  0.5337210000000  0.4733780000000  0.4266800000000 1.0
C      1  0.5002370000000  0.4312990000000  0.4776160000000 1.0
C      1  0.5217780000000  0.5232630000000  0.5290740000000 1.0
C      1  0.4413570000000  0.5833970000000  0.5322210000000 1.0
C      1  0.4386160000000  0.5244700000000  0.5613360000000 1.0
C      1  0.4276570000000  0.5051350000000  0.4986950000000 1.0
C      1  0.5369450000000  0.5054550000000  0.4852550000000 1.0
C      1  0.5244780000000  0.4930590000000  0.3773660000000 1.0
C      1  0.4257320000000  0.4914960000000  0.5232120000000 1.0
C      1  0.5578480000000  0.5253660000000  0.4766660000000 1.0
C      1  0.4767180000000  0.5264950000000  0.4624940000000 1.0
C      1  0.4929100000000  0.4513500000000  0.4583920000000 1.0
C      1  0.4335030000000  0.4508800000000  0.4982120000000 1.0
C      1  0.5350340000000  0.4560400000000  0.5511560000000 1.0
C      1  0.5505730000000  0.4518520000000  0.4947330000000 1.0
C      1  0.5591950000000  0.4776720000000  0.4388310000000 1.0
C      1  0.5128840000000  0.4602050000000  0.4405370000000 1.0
C      1  0.5520870000000  0.5278170000000  0.5273330000000 1.0
C      1  0.5587000000000  0.5523790000000  0.5143890000000 1.0
C      1  0.5099140000000  0.4730360000000  0.5427730000000 1.0
C      1  0.5075770000000  0.5645740000000  0.4338770000000 1.0
C      1  0.4241100000000  0.5066180000000  0.5466910000000 1.0
C      1  0.5731450000000  0.4850080000000  0.5393590000000 1.0
C      1  0.4976510000000  0.4335840000000  0.5333150000000 1.0
END
