TITL C-1154828-9214-130 -0.00944521823186673 125000 -316.616614971406 0 0 60 (C2) n - 1
REM
REM in /home/nfs/bkarasulu/CARBON/AIRSS/Generating-Clusters/AIREBO/Higher-Symm/Only-C60
REM
REM
REM
REM
REM
REM ./C.cell (28575a23ae977d3b5fae324c64b13b57)
REM
REM compiler GCC version 9.2.1 20190827 (Red Hat 9.2.1-1)
REM options -cpp -mtune=generic -march=x86-64 -g -O0 -fpre-include=/usr/include/finclude/math-vector-fortran.h
REM seed 2135371676 -1544942832 -1136082847 -113136259 -863305030 1211444217 758226578 -1259856478 -1645000974 -1826013282 -179842167 396579315 66573178 -815084352 -1868384853 -1876534702 583996975 1486329009 635420404 -595251464 -943285605 -505378678 2011478001 -1769409682 1591439337 -1942268754 -1000707754 -1534479844 -1954256488 1775849575 1063126471 -812768930 2013220515
REM
CELL 1.54180   50.00000   50.00000   50.00000   90.00000   90.00000   90.00000
LATT -1
SFAC C  
C      1  0.4431290000000  0.4390280000000  0.4891200000000 1.0
C      1  0.4603620000000  0.4470510000000  0.5157630000000 1.0
C      1  0.4769390000000  0.4520000000000  0.5431160000000 1.0
C      1  0.5090960000000  0.4521040000000  0.5501430000000 1.0
C      1  0.5361660000000  0.4387530000000  0.5369100000000 1.0
C      1  0.5568690000000  0.4390260000000  0.5108810000000 1.0
C      1  0.5396360000000  0.4470490000000  0.4842380000000 1.0
C      1  0.5230600000000  0.4519980000000  0.4568850000000 1.0
C      1  0.4909020000000  0.4521030000000  0.4498570000000 1.0
C      1  0.4638320000000  0.4387540000000  0.4630910000000 1.0
C      1  0.4274470000000  0.4550140000000  0.5138550000000 1.0
C      1  0.4577110000000  0.4774130000000  0.5295890000000 1.0
C      1  0.4906030000000  0.4746120000000  0.5642090000000 1.0
C      1  0.5377510000000  0.4548430000000  0.5667020000000 1.0
C      1  0.5650140000000  0.4564960000000  0.5375630000000 1.0
C      1  0.5725510000000  0.4550110000000  0.4861460000000 1.0
C      1  0.5422880000000  0.4774110000000  0.4704110000000 1.0
C      1  0.5093960000000  0.4746110000000  0.4357910000000 1.0
C      1  0.4622480000000  0.4548430000000  0.4332980000000 1.0
C      1  0.4349840000000  0.4564980000000  0.4624380000000 1.0
C      1  0.5367800000000  0.5630290000000  0.4700680000000 1.0
C      1  0.5142610000000  0.5652520000000  0.4514220000000 1.0
C      1  0.4848000000000  0.5689960000000  0.4522610000000 1.0
C      1  0.4630940000000  0.5697660000000  0.4716960000000 1.0
C      1  0.4624470000000  0.5640560000000  0.5010880000000 1.0
C      1  0.4632220000000  0.5630310000000  0.5299310000000 1.0
C      1  0.4857410000000  0.5652540000000  0.5485770000000 1.0
C      1  0.5152030000000  0.5689960000000  0.5477370000000 1.0
C      1  0.5369090000000  0.5697650000000  0.5283030000000 1.0
C      1  0.5375560000000  0.5640540000000  0.4989110000000 1.0
C      1  0.5463900000000  0.4879250000000  0.4430550000000 1.0
C      1  0.5006590000000  0.4868000000000  0.4078690000000 1.0
C      1  0.4531090000000  0.4804110000000  0.4293320000000 1.0
C      1  0.4312310000000  0.4832480000000  0.4626850000000 1.0
C      1  0.4217880000000  0.4821950000000  0.5130960000000 1.0
C      1  0.4536100000000  0.4879280000000  0.5569450000000 1.0
C      1  0.4993410000000  0.4868010000000  0.5921310000000 1.0
C      1  0.5468900000000  0.4804100000000  0.5706680000000 1.0
C      1  0.5687690000000  0.4832460000000  0.5373150000000 1.0
C      1  0.5782110000000  0.4821910000000  0.4869040000000 1.0
C      1  0.4913610000000  0.5093940000000  0.4280200000000 1.0
C      1  0.4633280000000  0.5066020000000  0.4441620000000 1.0
C      1  0.4505790000000  0.5050690000000  0.4756540000000 1.0
C      1  0.4491410000000  0.5012240000000  0.5088670000000 1.0
C      1  0.4759910000000  0.5052900000000  0.5654870000000 1.0
C      1  0.5086390000000  0.5093950000000  0.5719800000000 1.0
C      1  0.5366720000000  0.5066010000000  0.5558380000000 1.0
C      1  0.5494210000000  0.5050670000000  0.5243460000000 1.0
C      1  0.5508590000000  0.5012220000000  0.4911330000000 1.0
C      1  0.5240100000000  0.5052880000000  0.4345120000000 1.0
C      1  0.5456520000000  0.5348910000000  0.5117050000000 1.0
C      1  0.5396880000000  0.5294820000000  0.4789910000000 1.0
C      1  0.5203880000000  0.5318030000000  0.4516480000000 1.0
C      1  0.4877210000000  0.5387810000000  0.4383960000000 1.0
C      1  0.4593070000000  0.5384790000000  0.4557320000000 1.0
C      1  0.4543500000000  0.5348930000000  0.4882950000000 1.0
C      1  0.4603130000000  0.5294840000000  0.5210080000000 1.0
C      1  0.4796130000000  0.5318040000000  0.5483510000000 1.0
C      1  0.5122810000000  0.5387810000000  0.5616040000000 1.0
C      1  0.5406950000000  0.5384780000000  0.5442680000000 1.0
END
