TITL C-1154803-8277-368 0.00551093356097541 125000 -325.85521001543 0 0 60 (C1) n - 1
REM
REM in /home/nfs/bkarasulu/CARBON/AIRSS/Generating-Clusters/AIREBO/Higher-Symm/Only-C60
REM
REM
REM
REM
REM
REM ./C.cell (28575a23ae977d3b5fae324c64b13b57)
REM
REM compiler GCC version 9.2.1 20190827 (Red Hat 9.2.1-1)
REM options -cpp -mtune=generic -march=x86-64 -g -O0 -fpre-include=/usr/include/finclude/math-vector-fortran.h
REM seed 198510068 -680460462 459723408 430770307 2099904007 407504297 1619885671 1271354656 -1822516100 -2141474465 -1131038248 -2122235690 -1120130204 -1659896099 639715415 1567718805 -1475744191 2007753914 1295918905 -1183428273 1157602353 -620271064 1374912785 -314145636 1549319003 421335948 -1834236785 208068452 1345094303 2081836176 -602749246 -463125279 -1216326776
REM
CELL 1.54180   50.00000   50.00000   50.00000   90.00000   90.00000   90.00000
LATT -1
SFAC C  
C      1  0.4735030000000  0.5386100000000  0.5241900000000 1.0
C      1  0.4564010000000  0.5208460000000  0.5007770000000 1.0
C      1  0.4629900000000  0.5434180000000  0.4756740000000 1.0
C      1  0.4861970000000  0.5435500000000  0.4528750000000 1.0
C      1  0.5363540000000  0.5255650000000  0.4900320000000 1.0
C      1  0.5397100000000  0.5441990000000  0.5182830000000 1.0
C      1  0.5245430000000  0.5446020000000  0.5487450000000 1.0
C      1  0.4813530000000  0.5637220000000  0.5301980000000 1.0
C      1  0.4833260000000  0.5828410000000  0.5066030000000 1.0
C      1  0.4806140000000  0.5700860000000  0.4819300000000 1.0
C      1  0.5061380000000  0.5646530000000  0.4673380000000 1.0
C      1  0.5275460000000  0.5577530000000  0.4828090000000 1.0
C      1  0.5339980000000  0.5743270000000  0.5066540000000 1.0
C      1  0.5063050000000  0.5688950000000  0.5467710000000 1.0
C      1  0.4822020000000  0.5324600000000  0.4222180000000 1.0
C      1  0.5339930000000  0.5254300000000  0.4561110000000 1.0
C      1  0.5666530000000  0.5278670000000  0.5159540000000 1.0
C      1  0.5546450000000  0.5389230000000  0.5596080000000 1.0
C      1  0.4765990000000  0.5263750000000  0.5618030000000 1.0
C      1  0.4337590000000  0.5371120000000  0.5208160000000 1.0
C      1  0.4322750000000  0.5357080000000  0.4725900000000 1.0
C      1  0.4709140000000  0.4841860000000  0.5536950000000 1.0
C      1  0.4333100000000  0.4826920000000  0.5085900000000 1.0
C      1  0.4508010000000  0.4803510000000  0.4524150000000 1.0
C      1  0.5000580000000  0.4895600000000  0.4414470000000 1.0
C      1  0.5509110000000  0.4910980000000  0.4688720000000 1.0
C      1  0.5625360000000  0.4759820000000  0.5236820000000 1.0
C      1  0.5252370000000  0.4909060000000  0.5530520000000 1.0
C      1  0.5681500000000  0.5136840000000  0.4876450000000 1.0
C      1  0.5668390000000  0.5185820000000  0.5433420000000 1.0
C      1  0.5094770000000  0.5196850000000  0.5562480000000 1.0
C      1  0.4530060000000  0.5173860000000  0.5404600000000 1.0
C      1  0.4263090000000  0.5096250000000  0.4895870000000 1.0
C      1  0.4649850000000  0.5123220000000  0.4154050000000 1.0
C      1  0.5072590000000  0.5207790000000  0.4420450000000 1.0
C      1  0.5046780000000  0.4361520000000  0.4620210000000 1.0
C      1  0.5294580000000  0.4277320000000  0.4719850000000 1.0
C      1  0.5394180000000  0.4369810000000  0.4965600000000 1.0
C      1  0.4991040000000  0.4397130000000  0.5425500000000 1.0
C      1  0.4716720000000  0.4389000000000  0.5286950000000 1.0
C      1  0.4739420000000  0.4265450000000  0.5012750000000 1.0
C      1  0.4762560000000  0.4373680000000  0.4736210000000 1.0
C      1  0.4682070000000  0.4898450000000  0.4325180000000 1.0
C      1  0.5329400000000  0.4861000000000  0.4495410000000 1.0
C      1  0.5692980000000  0.4818690000000  0.4950340000000 1.0
C      1  0.5558950000000  0.4925460000000  0.5455510000000 1.0
C      1  0.4942120000000  0.4917030000000  0.5680900000000 1.0
C      1  0.4447240000000  0.4878600000000  0.5335300000000 1.0
C      1  0.4301070000000  0.4814020000000  0.4746390000000 1.0
C      1  0.5249140000000  0.4967950000000  0.5010180000000 1.0
C      1  0.5359890000000  0.4659980000000  0.5102570000000 1.0
C      1  0.5135530000000  0.4691030000000  0.5333940000000 1.0
C      1  0.4801400000000  0.4709090000000  0.5268920000000 1.0
C      1  0.4716600000000  0.4904190000000  0.5007520000000 1.0
C      1  0.4677560000000  0.4684400000000  0.4749410000000 1.0
C      1  0.4996530000000  0.4676870000000  0.4630920000000 1.0
C      1  0.5013430000000  0.4460180000000  0.5032700000000 1.0
C      1  0.5124830000000  0.5864550000000  0.5206670000000 1.0
C      1  0.5226210000000  0.4308020000000  0.5231200000000 1.0
C      1  0.5014290000000  0.4772390000000  0.4938780000000 1.0
END
