TITL C-1154828-9214-186 -0.000270221976614654 125000 -337.727545730307 0 0 60 (C1) n - 1
REM
REM in /home/nfs/bkarasulu/CARBON/AIRSS/Generating-Clusters/AIREBO/Higher-Symm/Only-C60
REM
REM
REM
REM
REM
REM ./C.cell (28575a23ae977d3b5fae324c64b13b57)
REM
REM compiler GCC version 9.2.1 20190827 (Red Hat 9.2.1-1)
REM options -cpp -mtune=generic -march=x86-64 -g -O0 -fpre-include=/usr/include/finclude/math-vector-fortran.h
REM seed 1661020021 -1281446491 -763655414 964433678 -250913201 830690630 19881072 223880720 1324008369 1469753698 653429021 -1865396681 1150290314 1063536760 1706689348 -1315006239 -890189375 -293654051 -311847864 -1648371121 -2109193030 1009905458 -1458131052 -1464059912 252921016 -858491598 602301347 -1731319657 1609353693 1254122317 845487804 1385453223 -1812588962
REM
CELL 1.54180   50.00000   50.00000   50.00000   90.00000   90.00000   90.00000
LATT -1
SFAC C  
C      1  0.4418480000000  0.4992620000000  0.4865310000000 1.0
C      1  0.5448360000000  0.4964290000000  0.5126410000000 1.0
C      1  0.5597120000000  0.4992990000000  0.4821440000000 1.0
C      1  0.4514000000000  0.4948060000000  0.5177840000000 1.0
C      1  0.5621450000000  0.4508640000000  0.4821540000000 1.0
C      1  0.4430770000000  0.4486630000000  0.5132990000000 1.0
C      1  0.4363410000000  0.4508160000000  0.4842790000000 1.0
C      1  0.5591780000000  0.4502450000000  0.5117530000000 1.0
C      1  0.4727950000000  0.5154320000000  0.4444430000000 1.0
C      1  0.5249360000000  0.5117330000000  0.5581850000000 1.0
C      1  0.5390540000000  0.5135800000000  0.4357730000000 1.0
C      1  0.4680460000000  0.5119020000000  0.5605710000000 1.0
C      1  0.5197460000000  0.5333600000000  0.4304380000000 1.0
C      1  0.4819880000000  0.5332860000000  0.5709290000000 1.0
C      1  0.4911230000000  0.5356270000000  0.4393460000000 1.0
C      1  0.5105910000000  0.5357690000000  0.5646750000000 1.0
C      1  0.5412380000000  0.5161850000000  0.5355000000000 1.0
C      1  0.4506100000000  0.5208850000000  0.4645750000000 1.0
C      1  0.4510770000000  0.5180210000000  0.5375520000000 1.0
C      1  0.5519970000000  0.5169950000000  0.4621490000000 1.0
C      1  0.4837580000000  0.5711400000000  0.4879810000000 1.0
C      1  0.5183450000000  0.5703850000000  0.5122350000000 1.0
C      1  0.5166450000000  0.5659190000000  0.4813410000000 1.0
C      1  0.4862830000000  0.5672000000000  0.5194520000000 1.0
C      1  0.5102800000000  0.4316620000000  0.4713410000000 1.0
C      1  0.4896370000000  0.4341860000000  0.5380790000000 1.0
C      1  0.4857790000000  0.4402870000000  0.4633420000000 1.0
C      1  0.5154610000000  0.4419470000000  0.5431990000000 1.0
C      1  0.5348180000000  0.5446500000000  0.5256730000000 1.0
C      1  0.4723760000000  0.5423430000000  0.4740280000000 1.0
C      1  0.4696980000000  0.5413590000000  0.5287080000000 1.0
C      1  0.5316670000000  0.5392530000000  0.4710370000000 1.0
C      1  0.5123650000000  0.4866540000000  0.5633180000000 1.0
C      1  0.4802300000000  0.4847100000000  0.4427680000000 1.0
C      1  0.4827360000000  0.4855540000000  0.5555120000000 1.0
C      1  0.5112400000000  0.4780950000000  0.4467930000000 1.0
C      1  0.5282530000000  0.4495210000000  0.5183400000000 1.0
C      1  0.4692150000000  0.4551120000000  0.4838910000000 1.0
C      1  0.4746660000000  0.4511380000000  0.5168360000000 1.0
C      1  0.5296550000000  0.4517690000000  0.4849790000000 1.0
C      1  0.5173600000000  0.5117590000000  0.4812180000000 1.0
C      1  0.4852280000000  0.5172950000000  0.5167620000000 1.0
C      1  0.4847830000000  0.5148410000000  0.4844300000000 1.0
C      1  0.5140080000000  0.5269420000000  0.5086220000000 1.0
C      1  0.5201710000000  0.5616610000000  0.4479260000000 1.0
C      1  0.4824790000000  0.5615980000000  0.5528560000000 1.0
C      1  0.4871230000000  0.5651720000000  0.4544600000000 1.0
C      1  0.5159160000000  0.5633550000000  0.5459660000000 1.0
C      1  0.4688440000000  0.4641800000000  0.5679560000000 1.0
C      1  0.5303770000000  0.4872860000000  0.4299170000000 1.0
C      1  0.5220100000000  0.4598360000000  0.5644420000000 1.0
C      1  0.4817420000000  0.4524730000000  0.4387820000000 1.0
C      1  0.4833430000000  0.4836840000000  0.5215490000000 1.0
C      1  0.5186710000000  0.4809880000000  0.4759720000000 1.0
C      1  0.5153480000000  0.4796040000000  0.5097920000000 1.0
C      1  0.4705840000000  0.4877360000000  0.4742390000000 1.0
C      1  0.5668860000000  0.4748590000000  0.5226020000000 1.0
C      1  0.4236920000000  0.4745620000000  0.4774680000000 1.0
C      1  0.4333640000000  0.4706050000000  0.5277780000000 1.0
C      1  0.5732270000000  0.4755220000000  0.4736920000000 1.0
END
