TITL C-1154824-75-297 -0.000562790715975041 125000 -336.938855755948 0 0 60 (C1) n - 1
REM
REM in /home/nfs/bkarasulu/CARBON/AIRSS/Generating-Clusters/AIREBO/Higher-Symm/Only-C60
REM
REM
REM
REM
REM
REM ./C.cell (28575a23ae977d3b5fae324c64b13b57)
REM
REM compiler GCC version 9.2.1 20190827 (Red Hat 9.2.1-1)
REM options -cpp -mtune=generic -march=x86-64 -g -O0 -fpre-include=/usr/include/finclude/math-vector-fortran.h
REM seed 1874166564 -1565430957 544301544 1681291688 822118658 2081684392 -62544857 -795826345 -237854910 -1529946661 -1183765158 1628523614 -217141153 563349904 1583154038 -1190902910 -1846312918 1273116317 -1936263154 732587244 -1316972643 -466412312 -444053557 -1474668444 -40804090 878068641 70261886 -675185060 1963974832 479795021 -1613965991 -377079970 1555202975
REM
CELL 1.54180   50.00000   50.00000   50.00000   90.00000   90.00000   90.00000
LATT -1
SFAC C  
C      1  0.5357240000000  0.5655380000000  0.5218120000000 1.0
C      1  0.5316980000000  0.4857370000000  0.4308320000000 1.0
C      1  0.5250480000000  0.4500120000000  0.5528910000000 1.0
C      1  0.5394900000000  0.4816730000000  0.4572240000000 1.0
C      1  0.5364570000000  0.4718720000000  0.5393800000000 1.0
C      1  0.5433260000000  0.5501620000000  0.5002990000000 1.0
C      1  0.4857620000000  0.4633580000000  0.5250680000000 1.0
C      1  0.4978540000000  0.5345770000000  0.5264930000000 1.0
C      1  0.4874060000000  0.4960850000000  0.4492340000000 1.0
C      1  0.5081910000000  0.5640700000000  0.5205510000000 1.0
C      1  0.5051170000000  0.4784590000000  0.4298160000000 1.0
C      1  0.4971070000000  0.4534010000000  0.5537610000000 1.0
C      1  0.4739100000000  0.5312100000000  0.5478640000000 1.0
C      1  0.4719570000000  0.5234890000000  0.4398680000000 1.0
C      1  0.4713630000000  0.4404820000000  0.5081450000000 1.0
C      1  0.5729820000000  0.4638440000000  0.4899450000000 1.0
C      1  0.5737660000000  0.5171350000000  0.5421120000000 1.0
C      1  0.5723800000000  0.5322690000000  0.4637030000000 1.0
C      1  0.4891100000000  0.5489450000000  0.4353650000000 1.0
C      1  0.4913210000000  0.4216160000000  0.4942910000000 1.0
C      1  0.4904960000000  0.5295590000000  0.5747150000000 1.0
C      1  0.5042180000000  0.5017230000000  0.5715660000000 1.0
C      1  0.4972250000000  0.5580700000000  0.4610270000000 1.0
C      1  0.4998350000000  0.4353410000000  0.4710990000000 1.0
C      1  0.4486640000000  0.4492830000000  0.5290590000000 1.0
C      1  0.4498380000000  0.5499030000000  0.5339690000000 1.0
C      1  0.4494410000000  0.5008610000000  0.4378010000000 1.0
C      1  0.5420840000000  0.5196800000000  0.5036220000000 1.0
C      1  0.5323570000000  0.5057660000000  0.4752690000000 1.0
C      1  0.5317400000000  0.4713140000000  0.5117030000000 1.0
C      1  0.5281780000000  0.5002340000000  0.5515820000000 1.0
C      1  0.5274790000000  0.5579690000000  0.4731150000000 1.0
C      1  0.5278240000000  0.4521590000000  0.4661340000000 1.0
C      1  0.4271730000000  0.5358540000000  0.5284600000000 1.0
C      1  0.4268390000000  0.5083720000000  0.4513660000000 1.0
C      1  0.4254670000000  0.4565100000000  0.5150790000000 1.0
C      1  0.5712470000000  0.5123860000000  0.5121550000000 1.0
C      1  0.5869290000000  0.5180330000000  0.4829250000000 1.0
C      1  0.5848920000000  0.4884080000000  0.4937090000000 1.0
C      1  0.5012610000000  0.4977380000000  0.4772940000000 1.0
C      1  0.5030670000000  0.4840940000000  0.5072310000000 1.0
C      1  0.5170890000000  0.5109210000000  0.5228060000000 1.0
C      1  0.4565350000000  0.4583210000000  0.4843650000000 1.0
C      1  0.4546360000000  0.5045810000000  0.5389050000000 1.0
C      1  0.4573580000000  0.5286560000000  0.4696900000000 1.0
C      1  0.4616480000000  0.4729550000000  0.5454170000000 1.0
C      1  0.4717530000000  0.5502130000000  0.5131380000000 1.0
C      1  0.4617670000000  0.4755820000000  0.4474590000000 1.0
C      1  0.5548890000000  0.5145530000000  0.5586280000000 1.0
C      1  0.5451170000000  0.5327490000000  0.4646400000000 1.0
C      1  0.5451720000000  0.4603330000000  0.4905260000000 1.0
C      1  0.4720950000000  0.4478820000000  0.4563400000000 1.0
C      1  0.4709520000000  0.4958650000000  0.5675760000000 1.0
C      1  0.4719850000000  0.5524270000000  0.4822030000000 1.0
C      1  0.4995400000000  0.5701800000000  0.4924350000000 1.0
C      1  0.5022920000000  0.4500220000000  0.4408130000000 1.0
C      1  0.4881720000000  0.4687730000000  0.5750370000000 1.0
C      1  0.4344220000000  0.5085510000000  0.5146830000000 1.0
C      1  0.4341160000000  0.5100510000000  0.4819040000000 1.0
C      1  0.4342380000000  0.4801940000000  0.4958990000000 1.0
END
