TITL C-1154830-9999-120 -0.000669936564434295 125000 -357.008017518855 0 0 60 (C1) n - 1
REM
REM in /home/nfs/bkarasulu/CARBON/AIRSS/Generating-Clusters/AIREBO/Higher-Symm/Only-C60
REM
REM
REM
REM
REM
REM ./C.cell (28575a23ae977d3b5fae324c64b13b57)
REM
REM compiler GCC version 9.2.1 20190827 (Red Hat 9.2.1-1)
REM options -cpp -mtune=generic -march=x86-64 -g -O0 -fpre-include=/usr/include/finclude/math-vector-fortran.h
REM seed 204072868 -448867061 -563992110 1960503485 1629465453 -1370050114 2101295412 -626128443 962819740 -620247430 -1501990505 -990663675 -86666867 -960966060 -819829533 -1234189197 -2101112453 -2119288711 -1623903192 -1664115699 -1645820225 412293701 1092584317 93763211 -2138736770 1012765204 874662211 -804892573 -1589071484 -1618591462 -370916143 1262796657 608489275
REM
CELL 1.54180   50.00000   50.00000   50.00000   90.00000   90.00000   90.00000
LATT -1
SFAC C  
C      1  0.5268200000000  0.5558840000000  0.5000150000000 1.0
C      1  0.4618660000000  0.5377390000000  0.5007410000000 1.0
C      1  0.4489330000000  0.4885960000000  0.5039830000000 1.0
C      1  0.4872230000000  0.4466550000000  0.5015080000000 1.0
C      1  0.5628530000000  0.4708690000000  0.4962080000000 1.0
C      1  0.5453060000000  0.4454980000000  0.4881240000000 1.0
C      1  0.4640820000000  0.4644280000000  0.4914100000000 1.0
C      1  0.4540580000000  0.5137460000000  0.4886940000000 1.0
C      1  0.4937190000000  0.5477960000000  0.4991650000000 1.0
C      1  0.5480360000000  0.5310210000000  0.4968320000000 1.0
C      1  0.4274420000000  0.5192510000000  0.5471710000000 1.0
C      1  0.4580130000000  0.4383310000000  0.5477660000000 1.0
C      1  0.5473020000000  0.4458510000000  0.5348480000000 1.0
C      1  0.5587360000000  0.5301970000000  0.5288270000000 1.0
C      1  0.4937920000000  0.5605100000000  0.5304520000000 1.0
C      1  0.4386630000000  0.4917300000000  0.5356120000000 1.0
C      1  0.4630360000000  0.5614670000000  0.5399140000000 1.0
C      1  0.5468910000000  0.5571120000000  0.5427750000000 1.0
C      1  0.5702770000000  0.4701190000000  0.5284750000000 1.0
C      1  0.4867610000000  0.4369920000000  0.5329240000000 1.0
C      1  0.4697780000000  0.5104190000000  0.4079320000000 1.0
C      1  0.4801690000000  0.4616370000000  0.4161970000000 1.0
C      1  0.5279940000000  0.4613900000000  0.4317740000000 1.0
C      1  0.5463290000000  0.5130400000000  0.4360660000000 1.0
C      1  0.5082730000000  0.5413860000000  0.4199620000000 1.0
C      1  0.4655530000000  0.4854730000000  0.4204630000000 1.0
C      1  0.4822520000000  0.5307200000000  0.4230830000000 1.0
C      1  0.5282800000000  0.5360330000000  0.4391370000000 1.0
C      1  0.5403590000000  0.4851910000000  0.4438730000000 1.0
C      1  0.4992710000000  0.4540120000000  0.4353290000000 1.0
C      1  0.5855530000000  0.4917930000000  0.5069330000000 1.0
C      1  0.5328940000000  0.5723810000000  0.5239750000000 1.0
C      1  0.4462870000000  0.5520660000000  0.5193450000000 1.0
C      1  0.4306580000000  0.4646340000000  0.5199880000000 1.0
C      1  0.5099460000000  0.4250690000000  0.5127540000000 1.0
C      1  0.5789560000000  0.5195500000000  0.5057950000000 1.0
C      1  0.5361930000000  0.4337500000000  0.5119140000000 1.0
C      1  0.4343260000000  0.4416900000000  0.5333080000000 1.0
C      1  0.4226370000000  0.5403810000000  0.5294140000000 1.0
C      1  0.5104990000000  0.5884870000000  0.5323640000000 1.0
C      1  0.5020720000000  0.4571720000000  0.5546130000000 1.0
C      1  0.5481650000000  0.4829950000000  0.5487770000000 1.0
C      1  0.5304020000000  0.5349980000000  0.5563530000000 1.0
C      1  0.4735470000000  0.5389580000000  0.5572840000000 1.0
C      1  0.4621380000000  0.4872330000000  0.5583150000000 1.0
C      1  0.5032770000000  0.5390570000000  0.5544980000000 1.0
C      1  0.5441330000000  0.5090940000000  0.5490500000000 1.0
C      1  0.5287570000000  0.4605740000000  0.5545540000000 1.0
C      1  0.4729640000000  0.4620500000000  0.5606340000000 1.0
C      1  0.4556570000000  0.5171940000000  0.5610270000000 1.0
C      1  0.4886340000000  0.5464390000000  0.4672220000000 1.0
C      1  0.4577350000000  0.5116920000000  0.4610550000000 1.0
C      1  0.4631450000000  0.4643100000000  0.4621430000000 1.0
C      1  0.5238610000000  0.4566990000000  0.4665310000000 1.0
C      1  0.5400390000000  0.5146700000000  0.4707520000000 1.0
C      1  0.4926470000000  0.4487640000000  0.4682730000000 1.0
C      1  0.4570900000000  0.4868820000000  0.4474250000000 1.0
C      1  0.4731490000000  0.5323920000000  0.4497500000000 1.0
C      1  0.5206780000000  0.5426230000000  0.4701200000000 1.0
C      1  0.5418900000000  0.4833080000000  0.4765700000000 1.0
END
