TITL C-1154829-9094-484 0.00027610470901045 125000 -362.593342784773 0 0 60 (C1) n - 1
REM
REM in /home/nfs/bkarasulu/CARBON/AIRSS/Generating-Clusters/AIREBO/Higher-Symm/Only-C60
REM
REM
REM
REM
REM
REM ./C.cell (28575a23ae977d3b5fae324c64b13b57)
REM
REM compiler GCC version 9.2.1 20190827 (Red Hat 9.2.1-1)
REM options -cpp -mtune=generic -march=x86-64 -g -O0 -fpre-include=/usr/include/finclude/math-vector-fortran.h
REM seed 906436599 -2051647209 1072470531 1274694468 28222068 -583837126 -2040634339 1732922346 -781466379 -622140454 -970547428 -661473243 1328142448 -1993867130 1579603693 -515748815 -551148293 -428289271 641420901 -1939769495 -1558941643 -2027530039 -1465351984 -1783524831 1858294717 -332452015 1667024496 1493751237 -1906094314 -1729232262 501704551 -1401884567 1176233998
REM
CELL 1.54180   50.00000   50.00000   50.00000   90.00000   90.00000   90.00000
LATT -1
SFAC C  
C      1  0.4701970000000  0.4662560000000  0.5505330000000 1.0
C      1  0.5586260000000  0.4693430000000  0.5020720000000 1.0
C      1  0.4714410000000  0.4715970000000  0.4494260000000 1.0
C      1  0.4703270000000  0.5283840000000  0.5500060000000 1.0
C      1  0.5587640000000  0.5304740000000  0.4991780000000 1.0
C      1  0.4712030000000  0.5336730000000  0.4488530000000 1.0
C      1  0.5292090000000  0.4694090000000  0.5516050000000 1.0
C      1  0.4415120000000  0.4691520000000  0.5013900000000 1.0
C      1  0.5293390000000  0.4699250000000  0.4496710000000 1.0
C      1  0.5304470000000  0.5305060000000  0.5494140000000 1.0
C      1  0.4412070000000  0.5301500000000  0.4999080000000 1.0
C      1  0.5280790000000  0.5310730000000  0.4480360000000 1.0
C      1  0.4270220000000  0.5151970000000  0.5236000000000 1.0
C      1  0.5576180000000  0.5148360000000  0.5488010000000 1.0
C      1  0.5135710000000  0.5151820000000  0.4252240000000 1.0
C      1  0.4286480000000  0.4846760000000  0.5254410000000 1.0
C      1  0.5567920000000  0.4843970000000  0.5521990000000 1.0
C      1  0.5160420000000  0.4846580000000  0.4252720000000 1.0
C      1  0.5732740000000  0.5159980000000  0.5229730000000 1.0
C      1  0.4429740000000  0.5130780000000  0.5492450000000 1.0
C      1  0.4834380000000  0.5173040000000  0.4248150000000 1.0
C      1  0.5713530000000  0.4855390000000  0.5257410000000 1.0
C      1  0.4432210000000  0.4825210000000  0.5518190000000 1.0
C      1  0.4858450000000  0.4867470000000  0.4260950000000 1.0
C      1  0.5508920000000  0.4454560000000  0.5456260000000 1.0
C      1  0.5123610000000  0.4460370000000  0.4347050000000 1.0
C      1  0.4345860000000  0.4452630000000  0.5223360000000 1.0
C      1  0.5520930000000  0.5540410000000  0.5432520000000 1.0
C      1  0.5131380000000  0.5546770000000  0.4314330000000 1.0
C      1  0.4367960000000  0.5538880000000  0.5223140000000 1.0
C      1  0.4477190000000  0.4435880000000  0.5440740000000 1.0
C      1  0.4869890000000  0.4475280000000  0.4337530000000 1.0
C      1  0.5645220000000  0.4461780000000  0.5241560000000 1.0
C      1  0.4488350000000  0.5523550000000  0.5446620000000 1.0
C      1  0.4877530000000  0.5563090000000  0.4322920000000 1.0
C      1  0.5639090000000  0.5547490000000  0.5207320000000 1.0
C      1  0.4860380000000  0.5316860000000  0.4758050000000 1.0
C      1  0.4864510000000  0.5291500000000  0.5234410000000 1.0
C      1  0.5275530000000  0.5302370000000  0.4991470000000 1.0
C      1  0.4863300000000  0.4708380000000  0.4767450000000 1.0
C      1  0.4863150000000  0.4683140000000  0.5243290000000 1.0
C      1  0.5277070000000  0.4697650000000  0.5006790000000 1.0
C      1  0.5137410000000  0.5309290000000  0.4754760000000 1.0
C      1  0.5138880000000  0.5296970000000  0.5232500000000 1.0
C      1  0.4724910000000  0.5302510000000  0.4995880000000 1.0
C      1  0.5140240000000  0.4703620000000  0.4768880000000 1.0
C      1  0.5136840000000  0.4691840000000  0.5245310000000 1.0
C      1  0.4724490000000  0.4695640000000  0.5003650000000 1.0
C      1  0.5549530000000  0.4855620000000  0.4523520000000 1.0
C      1  0.4297970000000  0.4832650000000  0.4777370000000 1.0
C      1  0.5138110000000  0.4854890000000  0.5719320000000 1.0
C      1  0.5543890000000  0.5167700000000  0.4495170000000 1.0
C      1  0.4309540000000  0.5145440000000  0.4762570000000 1.0
C      1  0.5158260000000  0.5167800000000  0.5716870000000 1.0
C      1  0.4456390000000  0.4866820000000  0.4521300000000 1.0
C      1  0.5705670000000  0.4830150000000  0.4782180000000 1.0
C      1  0.4837020000000  0.4822260000000  0.5725760000000 1.0
C      1  0.4453150000000  0.5178810000000  0.4497910000000 1.0
C      1  0.5689540000000  0.5142290000000  0.4759260000000 1.0
C      1  0.4856800000000  0.5134350000000  0.5709800000000 1.0
END
