TITL C-1154829-9094-297 0.000115166244229114 125000 -326.063184237034 0 0 60 (C1) n - 1
REM
REM in /home/nfs/bkarasulu/CARBON/AIRSS/Generating-Clusters/AIREBO/Higher-Symm/Only-C60
REM
REM
REM
REM
REM
REM ./C.cell (28575a23ae977d3b5fae324c64b13b57)
REM
REM compiler GCC version 9.2.1 20190827 (Red Hat 9.2.1-1)
REM options -cpp -mtune=generic -march=x86-64 -g -O0 -fpre-include=/usr/include/finclude/math-vector-fortran.h
REM seed -306572902 -1532160205 544262353 -1517230270 -999692480 833873148 -1118534711 2089698223 -110169170 -56195069 727564647 -276033742 389793904 1742861342 1872385143 -11110181 -103292377 -1786021754 2140688362 -1481540497 -1068306507 2042242561 -386479141 508361591 2092871880 -26506245 1681932553 1342890052 -853893604 -1509127447 1831238383 1038346759 -36436161
REM
CELL 1.54180   50.00000   50.00000   50.00000   90.00000   90.00000   90.00000
LATT -1
SFAC C  
C      1  0.5453370000000  0.4921860000000  0.5576560000000 1.0
C      1  0.4595350000000  0.5000820000000  0.5629340000000 1.0
C      1  0.4412470000000  0.5559180000000  0.5038360000000 1.0
C      1  0.5665700000000  0.5167600000000  0.4619620000000 1.0
C      1  0.5903690000000  0.5336790000000  0.5496220000000 1.0
C      1  0.4072930000000  0.5109670000000  0.5652140000000 1.0
C      1  0.4391930000000  0.4882180000000  0.4423530000000 1.0
C      1  0.5753900000000  0.5128540000000  0.4375890000000 1.0
C      1  0.4917450000000  0.4392630000000  0.4892680000000 1.0
C      1  0.5119650000000  0.4444460000000  0.5037800000000 1.0
C      1  0.5313800000000  0.4769380000000  0.5322220000000 1.0
C      1  0.4722210000000  0.4895180000000  0.5358960000000 1.0
C      1  0.4768000000000  0.5282810000000  0.5278640000000 1.0
C      1  0.5237450000000  0.5198630000000  0.5238860000000 1.0
C      1  0.4807090000000  0.5117230000000  0.5768840000000 1.0
C      1  0.5270080000000  0.5075080000000  0.5711010000000 1.0
C      1  0.5455150000000  0.4694090000000  0.4793330000000 1.0
C      1  0.4497140000000  0.4686940000000  0.4574810000000 1.0
C      1  0.5390420000000  0.4461370000000  0.4583690000000 1.0
C      1  0.4557310000000  0.4352940000000  0.4550430000000 1.0
C      1  0.5517140000000  0.5238370000000  0.5135010000000 1.0
C      1  0.4492020000000  0.5128500000000  0.5267170000000 1.0
C      1  0.4559440000000  0.4569440000000  0.5051000000000 1.0
C      1  0.5579670000000  0.4332540000000  0.5121310000000 1.0
C      1  0.4734080000000  0.5592610000000  0.5422660000000 1.0
C      1  0.5270660000000  0.5578500000000  0.5359110000000 1.0
C      1  0.4666640000000  0.5639500000000  0.5130110000000 1.0
C      1  0.5172840000000  0.5639240000000  0.5138170000000 1.0
C      1  0.4323410000000  0.5094620000000  0.5559280000000 1.0
C      1  0.5717140000000  0.5275850000000  0.5322480000000 1.0
C      1  0.4726440000000  0.4192720000000  0.4410410000000 1.0
C      1  0.5132670000000  0.4452300000000  0.4472400000000 1.0
C      1  0.5411640000000  0.4442710000000  0.5310760000000 1.0
C      1  0.4624860000000  0.4609900000000  0.5306810000000 1.0
C      1  0.4759260000000  0.4675900000000  0.4791210000000 1.0
C      1  0.5236210000000  0.4741790000000  0.4992320000000 1.0
C      1  0.4423470000000  0.4461450000000  0.4815250000000 1.0
C      1  0.5578370000000  0.4405670000000  0.4849150000000 1.0
C      1  0.5593120000000  0.5189170000000  0.4875000000000 1.0
C      1  0.4335660000000  0.5294840000000  0.5058720000000 1.0
C      1  0.4724850000000  0.4570880000000  0.5592050000000 1.0
C      1  0.5193840000000  0.4547270000000  0.5550040000000 1.0
C      1  0.4890670000000  0.5349400000000  0.5588670000000 1.0
C      1  0.5193770000000  0.5324220000000  0.5540330000000 1.0
C      1  0.4979350000000  0.4661360000000  0.5692000000000 1.0
C      1  0.5299570000000  0.5100580000000  0.4029950000000 1.0
C      1  0.4981890000000  0.5247190000000  0.5015890000000 1.0
C      1  0.5101230000000  0.5330440000000  0.4472800000000 1.0
C      1  0.5173260000000  0.5261750000000  0.4735220000000 1.0
C      1  0.4891860000000  0.5987760000000  0.4686960000000 1.0
C      1  0.4912560000000  0.5576160000000  0.4963980000000 1.0
C      1  0.4996750000000  0.4227610000000  0.4369210000000 1.0
C      1  0.4949940000000  0.4917420000000  0.4939010000000 1.0
C      1  0.4963050000000  0.4678670000000  0.4518990000000 1.0
C      1  0.4908270000000  0.5714340000000  0.4697020000000 1.0
C      1  0.5020880000000  0.4937790000000  0.5265240000000 1.0
C      1  0.4957440000000  0.4901140000000  0.4358350000000 1.0
C      1  0.5192760000000  0.5204110000000  0.4245740000000 1.0
C      1  0.4929170000000  0.5552340000000  0.4470090000000 1.0
C      1  0.5028540000000  0.4936200000000  0.5800790000000 1.0
END
