TITL C-1154827-9204-256 0.000218645830865497 125000 -317.850589466437 0 0 60 (C1) n - 1
REM
REM in /home/nfs/bkarasulu/CARBON/AIRSS/Generating-Clusters/AIREBO/Higher-Symm/Only-C60
REM
REM
REM
REM
REM
REM ./C.cell (28575a23ae977d3b5fae324c64b13b57)
REM
REM compiler GCC version 9.2.1 20190827 (Red Hat 9.2.1-1)
REM options -cpp -mtune=generic -march=x86-64 -g -O0 -fpre-include=/usr/include/finclude/math-vector-fortran.h
REM seed 673409353 -1532314922 -374660840 1464137453 -952633013 -495391417 -579268474 1615289928 -1546586831 -685193063 1554206226 -1350933818 -556551472 -304796169 1002891136 -318103489 -854239096 -2123430045 -239248254 1939447977 -1913754374 1519192572 574704934 374888294 802474994 -1010025071 -1008193494 1902913076 196398476 956448631 -787391261 1104625465 1320968406
REM
CELL 1.54180   50.00000   50.00000   50.00000   90.00000   90.00000   90.00000
LATT -1
SFAC C  
C      1  0.5294200000000  0.5133050000000  0.4379340000000 1.0
C      1  0.4734200000000  0.4880780000000  0.5652760000000 1.0
C      1  0.5171540000000  0.5695340000000  0.4623330000000 1.0
C      1  0.4898060000000  0.4322080000000  0.5424400000000 1.0
C      1  0.4955160000000  0.5255350000000  0.5676990000000 1.0
C      1  0.5059890000000  0.4802300000000  0.4263720000000 1.0
C      1  0.4655300000000  0.4964930000000  0.4486740000000 1.0
C      1  0.5347700000000  0.5091270000000  0.5485210000000 1.0
C      1  0.5315960000000  0.5566910000000  0.5135630000000 1.0
C      1  0.4677470000000  0.4398650000000  0.4890190000000 1.0
C      1  0.5369560000000  0.4700760000000  0.5206330000000 1.0
C      1  0.4625910000000  0.5317890000000  0.4800330000000 1.0
C      1  0.4841910000000  0.5296890000000  0.5337560000000 1.0
C      1  0.5111140000000  0.4742210000000  0.4590620000000 1.0
C      1  0.4784240000000  0.5548670000000  0.5095130000000 1.0
C      1  0.5202400000000  0.4377060000000  0.4937310000000 1.0
C      1  0.4824220000000  0.4967820000000  0.4247460000000 1.0
C      1  0.5187780000000  0.5112410000000  0.5732060000000 1.0
C      1  0.4848220000000  0.4880620000000  0.4724380000000 1.0
C      1  0.5130510000000  0.5136800000000  0.5255610000000 1.0
C      1  0.5012570000000  0.5128640000000  0.4559730000000 1.0
C      1  0.5001180000000  0.4894440000000  0.5456000000000 1.0
C      1  0.4579610000000  0.4691770000000  0.5342500000000 1.0
C      1  0.5470570000000  0.5266890000000  0.4706220000000 1.0
C      1  0.5041920000000  0.5766730000000  0.5135750000000 1.0
C      1  0.4942870000000  0.4207050000000  0.4876230000000 1.0
C      1  0.4782510000000  0.4821750000000  0.5007110000000 1.0
C      1  0.5171450000000  0.5160630000000  0.4949290000000 1.0
C      1  0.5493590000000  0.4687990000000  0.4750020000000 1.0
C      1  0.4361520000000  0.5092780000000  0.5146310000000 1.0
C      1  0.5493310000000  0.4860590000000  0.5403000000000 1.0
C      1  0.4518470000000  0.5199180000000  0.4578630000000 1.0
C      1  0.5034400000000  0.4408700000000  0.5207030000000 1.0
C      1  0.5006090000000  0.5617550000000  0.4839050000000 1.0
C      1  0.5109940000000  0.4818750000000  0.5769560000000 1.0
C      1  0.4936020000000  0.5252570000000  0.4251940000000 1.0
C      1  0.5432310000000  0.4536060000000  0.4979890000000 1.0
C      1  0.4502450000000  0.5393060000000  0.5082870000000 1.0
C      1  0.4368310000000  0.4885770000000  0.5497220000000 1.0
C      1  0.5673660000000  0.5129630000000  0.4488810000000 1.0
C      1  0.4669140000000  0.5010930000000  0.5265950000000 1.0
C      1  0.5327850000000  0.4959430000000  0.4737940000000 1.0
C      1  0.5478920000000  0.5412190000000  0.4991690000000 1.0
C      1  0.4514210000000  0.4531340000000  0.5065520000000 1.0
C      1  0.4934780000000  0.5316580000000  0.4808210000000 1.0
C      1  0.5030440000000  0.4726210000000  0.5194730000000 1.0
C      1  0.4745370000000  0.4545540000000  0.5595930000000 1.0
C      1  0.5321920000000  0.5459990000000  0.4469030000000 1.0
C      1  0.5484710000000  0.5111240000000  0.5072090000000 1.0
C      1  0.4441930000000  0.4830110000000  0.4996430000000 1.0
C      1  0.4526880000000  0.5119890000000  0.5671550000000 1.0
C      1  0.5516030000000  0.4908480000000  0.4303430000000 1.0
C      1  0.4668080000000  0.5421470000000  0.5602110000000 1.0
C      1  0.5315420000000  0.4636290000000  0.4264540000000 1.0
C      1  0.5091810000000  0.5525280000000  0.5369900000000 1.0
C      1  0.4916980000000  0.4489530000000  0.4686520000000 1.0
C      1  0.4425060000000  0.5297300000000  0.5399950000000 1.0
C      1  0.5548380000000  0.4630640000000  0.4482830000000 1.0
C      1  0.5126580000000  0.5442600000000  0.4196130000000 1.0
C      1  0.4947400000000  0.4612640000000  0.5853280000000 1.0
END
