TITL C-1154823-9327-344 0.000138754837859966 125000 -330.098553353024 0 0 60 (C1) n - 1
REM
REM in /home/nfs/bkarasulu/CARBON/AIRSS/Generating-Clusters/AIREBO/Higher-Symm/Only-C60
REM
REM
REM
REM
REM
REM ./C.cell (28575a23ae977d3b5fae324c64b13b57)
REM
REM compiler GCC version 9.2.1 20190827 (Red Hat 9.2.1-1)
REM options -cpp -mtune=generic -march=x86-64 -g -O0 -fpre-include=/usr/include/finclude/math-vector-fortran.h
REM seed -1996814995 -961343511 -503027185 1140521339 1020422391 412973124 -15153412 -1157160747 1270858459 -378220987 -283055719 -744244810 1775987960 -1602859082 1220627930 619996010 1550124355 -1244769911 454502246 -48748711 1665914845 -642207232 224333878 52147164 -1344648478 1836907348 -1940514937 473753508 -1054717592 -72932239 -1527097054 -2020413382 -261981846
REM
CELL 1.54180   50.00000   50.00000   50.00000   90.00000   90.00000   90.00000
LATT -1
SFAC C  
C      1  0.5194980000000  0.5211280000000  0.5158330000000 1.0
C      1  0.5189070000000  0.5193170000000  0.4841580000000 1.0
C      1  0.5192370000000  0.4881530000000  0.4776530000000 1.0
C      1  0.5195370000000  0.4708340000000  0.5036860000000 1.0
C      1  0.5195700000000  0.4915450000000  0.5279120000000 1.0
C      1  0.4676100000000  0.5453150000000  0.4546750000000 1.0
C      1  0.4622360000000  0.4728040000000  0.4281470000000 1.0
C      1  0.4671950000000  0.4285000000000  0.5099940000000 1.0
C      1  0.4668490000000  0.4883580000000  0.5690630000000 1.0
C      1  0.4684460000000  0.5594350000000  0.5261910000000 1.0
C      1  0.5093100000000  0.4370260000000  0.4687030000000 1.0
C      1  0.5093740000000  0.4493820000000  0.5517110000000 1.0
C      1  0.5089990000000  0.5332860000000  0.5650730000000 1.0
C      1  0.5104290000000  0.5723260000000  0.4893320000000 1.0
C      1  0.5077190000000  0.5171100000000  0.4283350000000 1.0
C      1  0.5194060000000  0.5616080000000  0.4590050000000 1.0
C      1  0.5150240000000  0.4893130000000  0.4308450000000 1.0
C      1  0.5209950000000  0.4292040000000  0.4976590000000 1.0
C      1  0.5199790000000  0.4757440000000  0.5688150000000 1.0
C      1  0.5198450000000  0.5579750000000  0.5443630000000 1.0
C      1  0.4611830000000  0.4415860000000  0.4842070000000 1.0
C      1  0.4608800000000  0.4669690000000  0.5495580000000 1.0
C      1  0.4610540000000  0.5369330000000  0.5442300000000 1.0
C      1  0.4625730000000  0.5548520000000  0.4828760000000 1.0
C      1  0.4595900000000  0.5007700000000  0.4388390000000 1.0
C      1  0.5488730000000  0.5472740000000  0.5085860000000 1.0
C      1  0.5473300000000  0.5226320000000  0.4562200000000 1.0
C      1  0.5523380000000  0.4647720000000  0.4659220000000 1.0
C      1  0.5505130000000  0.4553100000000  0.5234670000000 1.0
C      1  0.5490750000000  0.5069270000000  0.5500440000000 1.0
C      1  0.5249170000000  0.5083570000000  0.5670860000000 1.0
C      1  0.5260370000000  0.5650200000000  0.5132680000000 1.0
C      1  0.5256300000000  0.5356470000000  0.4416970000000 1.0
C      1  0.5205180000000  0.4642480000000  0.4535070000000 1.0
C      1  0.5258810000000  0.4396220000000  0.5289050000000 1.0
C      1  0.4798930000000  0.4731140000000  0.5000810000000 1.0
C      1  0.4798340000000  0.4918590000000  0.5245760000000 1.0
C      1  0.4796500000000  0.5203980000000  0.5130230000000 1.0
C      1  0.4790070000000  0.5184030000000  0.4819300000000 1.0
C      1  0.4797180000000  0.4884870000000  0.4722380000000 1.0
C      1  0.4477270000000  0.4809250000000  0.5221840000000 1.0
C      1  0.4476230000000  0.5150670000000  0.5231420000000 1.0
C      1  0.4471220000000  0.5260760000000  0.4909170000000 1.0
C      1  0.4462090000000  0.4995510000000  0.4696640000000 1.0
C      1  0.4478890000000  0.4717030000000  0.4892260000000 1.0
C      1  0.4888550000000  0.4748140000000  0.4470060000000 1.0
C      1  0.4950930000000  0.4471990000000  0.5045980000000 1.0
C      1  0.4954660000000  0.4868370000000  0.5507490000000 1.0
C      1  0.4972430000000  0.5414410000000  0.5279060000000 1.0
C      1  0.4976060000000  0.5400230000000  0.4697910000000 1.0
C      1  0.5497030000000  0.4801760000000  0.5367040000000 1.0
C      1  0.5491110000000  0.5267590000000  0.5300420000000 1.0
C      1  0.5483010000000  0.5351310000000  0.4833610000000 1.0
C      1  0.5458380000000  0.4947590000000  0.4584680000000 1.0
C      1  0.5509810000000  0.4600380000000  0.4933820000000 1.0
C      1  0.4784690000000  0.5187050000000  0.4258350000000 1.0
C      1  0.4809580000000  0.4334100000000  0.4652900000000 1.0
C      1  0.4803150000000  0.4460250000000  0.5537500000000 1.0
C      1  0.4795300000000  0.5348790000000  0.5662010000000 1.0
C      1  0.4812980000000  0.5749390000000  0.4903700000000 1.0
END
