TITL C-1154821-8623-67 -0.0030771196279267 125000 -335.565774560366 0 0 60 (C1) n - 1
REM
REM in /home/nfs/bkarasulu/CARBON/AIRSS/Generating-Clusters/AIREBO/Higher-Symm/Only-C60
REM
REM
REM
REM
REM
REM ./C.cell (28575a23ae977d3b5fae324c64b13b57)
REM
REM compiler GCC version 9.2.1 20190827 (Red Hat 9.2.1-1)
REM options -cpp -mtune=generic -march=x86-64 -g -O0 -fpre-include=/usr/include/finclude/math-vector-fortran.h
REM seed -1519076452 542019949 545992477 -442307780 1719970517 1353609348 -1509012343 -1474822299 2102125640 1348980445 -573208151 1650840329 45144547 -1257223971 -729161570 338342778 -605571559 141566833 -321055052 -417047959 816001978 1930899829 -2123713807 -1857361671 183588796 959864021 725789228 201974152 -1464326920 -738690765 1221748045 -650851550 1562655677
REM
CELL 1.54180   50.00000   50.00000   50.00000   90.00000   90.00000   90.00000
LATT -1
SFAC C  
C      1  0.4841770000000  0.4426760000000  0.5089880000000 1.0
C      1  0.5127420000000  0.4319560000000  0.4835020000000 1.0
C      1  0.4840370000000  0.4277350000000  0.4798140000000 1.0
C      1  0.5181340000000  0.4458690000000  0.5126540000000 1.0
C      1  0.4595910000000  0.5247980000000  0.4817690000000 1.0
C      1  0.5454700000000  0.5230920000000  0.5215220000000 1.0
C      1  0.4624560000000  0.5157960000000  0.5204710000000 1.0
C      1  0.5445030000000  0.5290330000000  0.4684650000000 1.0
C      1  0.5630910000000  0.4941120000000  0.5200360000000 1.0
C      1  0.4356740000000  0.5002370000000  0.4823900000000 1.0
C      1  0.5711040000000  0.4890230000000  0.4897220000000 1.0
C      1  0.4397570000000  0.4910840000000  0.5149570000000 1.0
C      1  0.5129150000000  0.5616480000000  0.4459910000000 1.0
C      1  0.4835610000000  0.5551680000000  0.5377660000000 1.0
C      1  0.5122010000000  0.5538500000000  0.5375830000000 1.0
C      1  0.4857110000000  0.5577930000000  0.4535960000000 1.0
C      1  0.4324740000000  0.5299130000000  0.5192110000000 1.0
C      1  0.5728570000000  0.5389420000000  0.4844150000000 1.0
C      1  0.4299690000000  0.5383300000000  0.4916200000000 1.0
C      1  0.5722470000000  0.5385470000000  0.5119420000000 1.0
C      1  0.4735700000000  0.5415050000000  0.5612060000000 1.0
C      1  0.5279490000000  0.5376140000000  0.4440980000000 1.0
C      1  0.4736280000000  0.5393920000000  0.4353790000000 1.0
C      1  0.5235690000000  0.5421950000000  0.5615500000000 1.0
C      1  0.4823850000000  0.5485890000000  0.4821750000000 1.0
C      1  0.5223030000000  0.5417820000000  0.5147540000000 1.0
C      1  0.4718430000000  0.5452090000000  0.5138870000000 1.0
C      1  0.5098680000000  0.5363520000000  0.4910670000000 1.0
C      1  0.5455220000000  0.4664420000000  0.5105580000000 1.0
C      1  0.4436610000000  0.4704640000000  0.4812240000000 1.0
C      1  0.5583860000000  0.4652290000000  0.4810190000000 1.0
C      1  0.4555100000000  0.4615770000000  0.5088430000000 1.0
C      1  0.4705700000000  0.4395510000000  0.4583660000000 1.0
C      1  0.5272330000000  0.4349460000000  0.5435440000000 1.0
C      1  0.4698570000000  0.4398890000000  0.5387010000000 1.0
C      1  0.5279000000000  0.4382000000000  0.4608890000000 1.0
C      1  0.4745040000000  0.4905470000000  0.5487250000000 1.0
C      1  0.5281210000000  0.4873910000000  0.4489690000000 1.0
C      1  0.4770480000000  0.4927410000000  0.4562140000000 1.0
C      1  0.5274300000000  0.4876180000000  0.5550370000000 1.0
C      1  0.5837930000000  0.5180980000000  0.5312070000000 1.0
C      1  0.4108120000000  0.5221300000000  0.4746950000000 1.0
C      1  0.5718980000000  0.5103460000000  0.4724090000000 1.0
C      1  0.4154520000000  0.5082780000000  0.5317320000000 1.0
C      1  0.4853560000000  0.5158520000000  0.5656600000000 1.0
C      1  0.5151730000000  0.5147110000000  0.4333200000000 1.0
C      1  0.4868440000000  0.5143020000000  0.4351110000000 1.0
C      1  0.5135930000000  0.5160860000000  0.5675330000000 1.0
C      1  0.5414340000000  0.4625960000000  0.4601270000000 1.0
C      1  0.4567070000000  0.4669570000000  0.5419570000000 1.0
C      1  0.5388060000000  0.4626570000000  0.5423800000000 1.0
C      1  0.4610540000000  0.4657210000000  0.4598940000000 1.0
C      1  0.4864400000000  0.5043540000000  0.4868010000000 1.0
C      1  0.5195490000000  0.5048890000000  0.5297630000000 1.0
C      1  0.4908550000000  0.4995090000000  0.5202120000000 1.0
C      1  0.5169990000000  0.5094490000000  0.4726920000000 1.0
C      1  0.5104470000000  0.4786820000000  0.5809390000000 1.0
C      1  0.4855250000000  0.4747400000000  0.4296830000000 1.0
C      1  0.5102680000000  0.4762060000000  0.4241890000000 1.0
C      1  0.4854650000000  0.4775970000000  0.5770750000000 1.0
END
