TITL C-1154801-8518-146 0.000684651757508365 125000 -308.8752712032 0 0 60 (C1) n - 1
REM
REM in /home/nfs/bkarasulu/CARBON/AIRSS/Generating-Clusters/AIREBO/Higher-Symm/Only-C60
REM
REM
REM
REM
REM
REM ./C.cell (28575a23ae977d3b5fae324c64b13b57)
REM
REM compiler GCC version 9.2.1 20190827 (Red Hat 9.2.1-1)
REM options -cpp -mtune=generic -march=x86-64 -g -O0 -fpre-include=/usr/include/finclude/math-vector-fortran.h
REM seed -1810678102 1292495824 722702231 636880987 1424881473 -513341112 1891271892 1577602171 -2024820847 -1981235261 778265973 -613048398 1227111443 51313380 -1621510094 -1950757727 246633438 1788909097 -1338757653 2004630010 1026453322 1998223663 -613007434 -1468111396 538163203 -458860662 1573443496 288763969 -1580039454 137086427 282107756 -1890483577 -1744855759
REM
CELL 1.54180   50.00000   50.00000   50.00000   90.00000   90.00000   90.00000
LATT -1
SFAC C  
C      1  0.5417130000000  0.4936950000000  0.5776220000000 1.0
C      1  0.5538150000000  0.4515360000000  0.5400180000000 1.0
C      1  0.4822540000000  0.4435020000000  0.5475370000000 1.0
C      1  0.4402800000000  0.4615930000000  0.5654620000000 1.0
C      1  0.4507700000000  0.5331470000000  0.5601800000000 1.0
C      1  0.5006890000000  0.5569980000000  0.5644540000000 1.0
C      1  0.5495200000000  0.5397050000000  0.5495860000000 1.0
C      1  0.5369170000000  0.4972950000000  0.4550070000000 1.0
C      1  0.5223790000000  0.4697260000000  0.4527000000000 1.0
C      1  0.4923200000000  0.4724060000000  0.4566010000000 1.0
C      1  0.4606080000000  0.4830450000000  0.4511020000000 1.0
C      1  0.4794100000000  0.5098670000000  0.4545670000000 1.0
C      1  0.4902050000000  0.5420330000000  0.4569180000000 1.0
C      1  0.5224410000000  0.5308700000000  0.4570870000000 1.0
C      1  0.4718500000000  0.5895790000000  0.4594480000000 1.0
C      1  0.5224850000000  0.5600870000000  0.5027400000000 1.0
C      1  0.5793280000000  0.5189940000000  0.4770730000000 1.0
C      1  0.5591050000000  0.4480510000000  0.4807390000000 1.0
C      1  0.4972260000000  0.4219510000000  0.4996790000000 1.0
C      1  0.4480060000000  0.4624890000000  0.5004090000000 1.0
C      1  0.4477200000000  0.5286910000000  0.4874670000000 1.0
C      1  0.5005330000000  0.5347600000000  0.5503670000000 1.0
C      1  0.5277450000000  0.5232450000000  0.5404190000000 1.0
C      1  0.5337310000000  0.4936920000000  0.5509100000000 1.0
C      1  0.5315000000000  0.4679300000000  0.5393050000000 1.0
C      1  0.5044730000000  0.4538190000000  0.5269450000000 1.0
C      1  0.4648020000000  0.4634000000000  0.5536720000000 1.0
C      1  0.4734690000000  0.5222800000000  0.5427960000000 1.0
C      1  0.4420080000000  0.4292880000000  0.4985010000000 1.0
C      1  0.4253430000000  0.5090450000000  0.4779400000000 1.0
C      1  0.4498930000000  0.5724450000000  0.4619130000000 1.0
C      1  0.5071700000000  0.5786790000000  0.4916320000000 1.0
C      1  0.5685200000000  0.5417390000000  0.4786370000000 1.0
C      1  0.5741000000000  0.4681260000000  0.4778410000000 1.0
C      1  0.5135180000000  0.4264900000000  0.4811280000000 1.0
C      1  0.4415980000000  0.4822000000000  0.4739980000000 1.0
C      1  0.4586030000000  0.5470480000000  0.4684600000000 1.0
C      1  0.4951120000000  0.5743910000000  0.4666440000000 1.0
C      1  0.5383410000000  0.5414740000000  0.4813180000000 1.0
C      1  0.5599620000000  0.4952540000000  0.4771600000000 1.0
C      1  0.5285660000000  0.4530860000000  0.4790870000000 1.0
C      1  0.4654580000000  0.4339820000000  0.4787360000000 1.0
C      1  0.4510280000000  0.4958230000000  0.5038720000000 1.0
C      1  0.4670040000000  0.5224010000000  0.5129950000000 1.0
C      1  0.4961930000000  0.5191170000000  0.5017120000000 1.0
C      1  0.5263130000000  0.5254700000000  0.5088130000000 1.0
C      1  0.5384830000000  0.4967850000000  0.5000530000000 1.0
C      1  0.5179770000000  0.4728580000000  0.5022120000000 1.0
C      1  0.4770310000000  0.4463420000000  0.5082230000000 1.0
C      1  0.4750920000000  0.4452100000000  0.4566780000000 1.0
C      1  0.4492720000000  0.4761810000000  0.4239380000000 1.0
C      1  0.4851050000000  0.5200620000000  0.4240120000000 1.0
C      1  0.4874880000000  0.5474000000000  0.4225100000000 1.0
C      1  0.5345420000000  0.5374980000000  0.4277070000000 1.0
C      1  0.5435060000000  0.5117410000000  0.4289810000000 1.0
C      1  0.5304220000000  0.4547090000000  0.4273590000000 1.0
C      1  0.4772110000000  0.4899230000000  0.5465220000000 1.0
C      1  0.4910700000000  0.4938400000000  0.4814930000000 1.0
C      1  0.4914320000000  0.4894280000000  0.5155730000000 1.0
C      1  0.4849050000000  0.5026430000000  0.5755490000000 1.0
END
