TITL C-1154828-9214-361 -0.000376497593553968 125000 -335.700479287395 0 0 60 (C1) n - 1
REM
REM in /home/nfs/bkarasulu/CARBON/AIRSS/Generating-Clusters/AIREBO/Higher-Symm/Only-C60
REM
REM
REM
REM
REM
REM ./C.cell (28575a23ae977d3b5fae324c64b13b57)
REM
REM compiler GCC version 9.2.1 20190827 (Red Hat 9.2.1-1)
REM options -cpp -mtune=generic -march=x86-64 -g -O0 -fpre-include=/usr/include/finclude/math-vector-fortran.h
REM seed -551892376 -1049297252 -1153071374 -1087627860 -1782342289 342390506 -607842764 1443799278 746853188 1499621669 -1250073078 -1607931796 1578286646 -120953160 1958923146 -302334243 1199165995 -724496931 2041312680 -1186842285 -950910082 117726073 -2011629281 -1343004908 1756796290 1868771201 472534570 1080217051 335601678 -749348892 -727667901 128942028 -1344558493
REM
CELL 1.54180   50.00000   50.00000   50.00000   90.00000   90.00000   90.00000
LATT -1
SFAC C  
C      1  0.5224710000000  0.4546730000000  0.4484590000000 1.0
C      1  0.5395840000000  0.4605980000000  0.5182830000000 1.0
C      1  0.4690420000000  0.4493100000000  0.5489120000000 1.0
C      1  0.4503680000000  0.4531690000000  0.4767290000000 1.0
C      1  0.5160920000000  0.5506580000000  0.4506040000000 1.0
C      1  0.5483260000000  0.5613060000000  0.5267900000000 1.0
C      1  0.4755130000000  0.5427140000000  0.5464310000000 1.0
C      1  0.4522540000000  0.5438580000000  0.4754400000000 1.0
C      1  0.4922140000000  0.4771630000000  0.5253280000000 1.0
C      1  0.4819610000000  0.4712270000000  0.4933020000000 1.0
C      1  0.5070940000000  0.4808020000000  0.4744020000000 1.0
C      1  0.5326760000000  0.4790940000000  0.4914670000000 1.0
C      1  0.5017550000000  0.5316340000000  0.5185230000000 1.0
C      1  0.4746780000000  0.5234930000000  0.5015130000000 1.0
C      1  0.4979760000000  0.5235660000000  0.4785300000000 1.0
C      1  0.5263020000000  0.5252900000000  0.4959590000000 1.0
C      1  0.5209000000000  0.5741360000000  0.4820260000000 1.0
C      1  0.5271620000000  0.5840470000000  0.5138340000000 1.0
C      1  0.5014740000000  0.5655540000000  0.5157950000000 1.0
C      1  0.4815100000000  0.5738790000000  0.4955660000000 1.0
C      1  0.5037300000000  0.4268180000000  0.4798290000000 1.0
C      1  0.5228330000000  0.4254820000000  0.5266030000000 1.0
C      1  0.4970880000000  0.4467140000000  0.5208260000000 1.0
C      1  0.4810910000000  0.4374050000000  0.4967120000000 1.0
C      1  0.5237720000000  0.5181610000000  0.4570410000000 1.0
C      1  0.5410650000000  0.5287090000000  0.5252920000000 1.0
C      1  0.4875050000000  0.5125810000000  0.5432110000000 1.0
C      1  0.4511710000000  0.5140560000000  0.4801760000000 1.0
C      1  0.5204610000000  0.4871010000000  0.4437710000000 1.0
C      1  0.5387430000000  0.4951960000000  0.5207970000000 1.0
C      1  0.4701450000000  0.4836800000000  0.5481310000000 1.0
C      1  0.4509280000000  0.4832100000000  0.4861170000000 1.0
C      1  0.4541850000000  0.5470420000000  0.5261980000000 1.0
C      1  0.4722310000000  0.5496070000000  0.4556990000000 1.0
C      1  0.5433760000000  0.5511820000000  0.4708890000000 1.0
C      1  0.5263110000000  0.5546150000000  0.5518240000000 1.0
C      1  0.4445160000000  0.4445340000000  0.5287660000000 1.0
C      1  0.4693040000000  0.4500790000000  0.4549560000000 1.0
C      1  0.5433440000000  0.4489080000000  0.4676020000000 1.0
C      1  0.5258330000000  0.4525130000000  0.5480150000000 1.0
C      1  0.5330370000000  0.5263860000000  0.5583260000000 1.0
C      1  0.4459310000000  0.5187460000000  0.5191900000000 1.0
C      1  0.4855740000000  0.5250410000000  0.4477370000000 1.0
C      1  0.5526960000000  0.5208200000000  0.4749740000000 1.0
C      1  0.5176760000000  0.4833960000000  0.5422720000000 1.0
C      1  0.4427360000000  0.4749190000000  0.5340480000000 1.0
C      1  0.4831810000000  0.4758180000000  0.4507480000000 1.0
C      1  0.5585780000000  0.4740310000000  0.4737330000000 1.0
C      1  0.5305150000000  0.4372500000000  0.4955790000000 1.0
C      1  0.4985160000000  0.4324700000000  0.5508680000000 1.0
C      1  0.4502640000000  0.4359600000000  0.5021270000000 1.0
C      1  0.4991120000000  0.4394170000000  0.4546370000000 1.0
C      1  0.5532530000000  0.5731560000000  0.4949500000000 1.0
C      1  0.4982650000000  0.5601570000000  0.5462440000000 1.0
C      1  0.4571670000000  0.5600780000000  0.4994350000000 1.0
C      1  0.4937600000000  0.5726320000000  0.4640420000000 1.0
C      1  0.4903680000000  0.5012160000000  0.4351430000000 1.0
C      1  0.5132420000000  0.5069720000000  0.5619060000000 1.0
C      1  0.5713560000000  0.4974210000000  0.4701940000000 1.0
C      1  0.4377890000000  0.4928130000000  0.5134980000000 1.0
END
