TITL C-1154830-9999-302 -0.00132582722150498 125000 -314.213649217307 0 0 60 (C1) n - 1
REM
REM in /home/nfs/bkarasulu/CARBON/AIRSS/Generating-Clusters/AIREBO/Higher-Symm/Only-C60
REM
REM
REM
REM
REM
REM ./C.cell (28575a23ae977d3b5fae324c64b13b57)
REM
REM compiler GCC version 9.2.1 20190827 (Red Hat 9.2.1-1)
REM options -cpp -mtune=generic -march=x86-64 -g -O0 -fpre-include=/usr/include/finclude/math-vector-fortran.h
REM seed -1986570126 -976003481 496494288 1481534052 1154649490 -228808444 1590870534 1586836891 729516760 -505917566 -1305496650 42160407 1101833828 1153716670 -509726196 -1223404890 -868563479 2090835784 -944456766 1792136283 -1703965755 129347450 -1460296851 95794238 268257780 328106046 -338441016 -1547531555 456743014 2111730785 337034629 -310623583 360104238
REM
CELL 1.54180   50.00000   50.00000   50.00000   90.00000   90.00000   90.00000
LATT -1
SFAC C  
C      1  0.5424590000000  0.4682490000000  0.5395320000000 1.0
C      1  0.5559830000000  0.4578480000000  0.4692900000000 1.0
C      1  0.5303040000000  0.5007130000000  0.4412270000000 1.0
C      1  0.5516680000000  0.5521610000000  0.4975750000000 1.0
C      1  0.5396310000000  0.5269400000000  0.5440080000000 1.0
C      1  0.4635640000000  0.4989680000000  0.4775120000000 1.0
C      1  0.4535450000000  0.5266100000000  0.4901570000000 1.0
C      1  0.4658660000000  0.5167710000000  0.5173330000000 1.0
C      1  0.4630050000000  0.4852040000000  0.5207070000000 1.0
C      1  0.4517900000000  0.4735390000000  0.4938730000000 1.0
C      1  0.4950090000000  0.4881740000000  0.4759420000000 1.0
C      1  0.4975570000000  0.5196830000000  0.4812410000000 1.0
C      1  0.4982070000000  0.5229260000000  0.5134830000000 1.0
C      1  0.4958830000000  0.4921070000000  0.5261090000000 1.0
C      1  0.4958120000000  0.4725090000000  0.5017420000000 1.0
C      1  0.4071920000000  0.5168520000000  0.5127350000000 1.0
C      1  0.4061630000000  0.4888080000000  0.5143350000000 1.0
C      1  0.4216860000000  0.4755050000000  0.4921430000000 1.0
C      1  0.4130870000000  0.5004920000000  0.4767290000000 1.0
C      1  0.4235110000000  0.5263600000000  0.4892530000000 1.0
C      1  0.5159590000000  0.5423710000000  0.4655890000000 1.0
C      1  0.5143060000000  0.5433410000000  0.5300070000000 1.0
C      1  0.5148520000000  0.4836750000000  0.5494040000000 1.0
C      1  0.5167570000000  0.4483030000000  0.5010390000000 1.0
C      1  0.5105260000000  0.4779060000000  0.4518980000000 1.0
C      1  0.4793300000000  0.4469090000000  0.5148240000000 1.0
C      1  0.4715660000000  0.4634300000000  0.4439620000000 1.0
C      1  0.4779810000000  0.5334540000000  0.4570820000000 1.0
C      1  0.4778830000000  0.5627670000000  0.5312090000000 1.0
C      1  0.4716250000000  0.4927520000000  0.5694470000000 1.0
C      1  0.4893700000000  0.4460570000000  0.5445170000000 1.0
C      1  0.4924490000000  0.4432110000000  0.4594540000000 1.0
C      1  0.4816270000000  0.5154090000000  0.4305450000000 1.0
C      1  0.4941990000000  0.5659830000000  0.5041590000000 1.0
C      1  0.4862750000000  0.5205990000000  0.5646390000000 1.0
C      1  0.5228050000000  0.4450720000000  0.5429080000000 1.0
C      1  0.5254750000000  0.4507060000000  0.4560710000000 1.0
C      1  0.5140450000000  0.5232810000000  0.4340790000000 1.0
C      1  0.5276760000000  0.5639900000000  0.5099300000000 1.0
C      1  0.5184930000000  0.5117790000000  0.5613360000000 1.0
C      1  0.5668490000000  0.5132210000000  0.5285640000000 1.0
C      1  0.5708710000000  0.4794030000000  0.5238490000000 1.0
C      1  0.5725270000000  0.4792210000000  0.4897430000000 1.0
C      1  0.5739680000000  0.5085500000000  0.4802640000000 1.0
C      1  0.5738820000000  0.5294370000000  0.5003260000000 1.0
C      1  0.4734970000000  0.5514980000000  0.4829180000000 1.0
C      1  0.4722150000000  0.5368770000000  0.5404470000000 1.0
C      1  0.4695280000000  0.4732390000000  0.5493680000000 1.0
C      1  0.4695650000000  0.4480140000000  0.4841740000000 1.0
C      1  0.4670390000000  0.4907940000000  0.4475140000000 1.0
C      1  0.5443440000000  0.4984460000000  0.4689100000000 1.0
C      1  0.5385130000000  0.5269440000000  0.4817240000000 1.0
C      1  0.5377580000000  0.5173430000000  0.5114420000000 1.0
C      1  0.5409230000000  0.4872230000000  0.5128350000000 1.0
C      1  0.5332890000000  0.4725930000000  0.4880770000000 1.0
C      1  0.5078620000000  0.4281020000000  0.4839510000000 1.0
C      1  0.4979260000000  0.4867760000000  0.4227140000000 1.0
C      1  0.5084990000000  0.5686680000000  0.4743270000000 1.0
C      1  0.5044700000000  0.5488700000000  0.5606170000000 1.0
C      1  0.5013570000000  0.4633700000000  0.5712130000000 1.0
END
