TITL C-1154829-9094-89 1.05644586528275e-05 125000 -324.350790942037 0 0 60 (C1) n - 1
REM
REM in /home/nfs/bkarasulu/CARBON/AIRSS/Generating-Clusters/AIREBO/Higher-Symm/Only-C60
REM
REM
REM
REM
REM
REM ./C.cell (28575a23ae977d3b5fae324c64b13b57)
REM
REM compiler GCC version 9.2.1 20190827 (Red Hat 9.2.1-1)
REM options -cpp -mtune=generic -march=x86-64 -g -O0 -fpre-include=/usr/include/finclude/math-vector-fortran.h
REM seed 314860355 216676626 -592927902 812822948 630287012 1273669622 714385545 -940913896 18525374 1914532521 1171679709 -1725684624 623034116 1346475093 -964111318 -1590777844 981266971 -1288177984 -2061674146 -313466247 609028939 -758577596 522911280 -1303343341 -942606124 -558581604 -1118402481 -1042215451 2055979013 401037906 166953474 -693154028 -1200554402
REM
CELL 1.54180   50.00000   50.00000   50.00000   90.00000   90.00000   90.00000
LATT -1
SFAC C  
C      1  0.5040320000000  0.4690880000000  0.4556380000000 1.0
C      1  0.4464090000000  0.4695180000000  0.5178000000000 1.0
C      1  0.5398210000000  0.4712590000000  0.5276870000000 1.0
C      1  0.5014780000000  0.5222830000000  0.4473930000000 1.0
C      1  0.4551370000000  0.5280680000000  0.5169410000000 1.0
C      1  0.5361280000000  0.5271330000000  0.5260120000000 1.0
C      1  0.5642080000000  0.5138950000000  0.5121060000000 1.0
C      1  0.4754720000000  0.5085570000000  0.4382580000000 1.0
C      1  0.4551220000000  0.5124070000000  0.5465950000000 1.0
C      1  0.5653310000000  0.4862340000000  0.5109230000000 1.0
C      1  0.4763670000000  0.4810910000000  0.4399310000000 1.0
C      1  0.4534780000000  0.4848110000000  0.5452650000000 1.0
C      1  0.5769320000000  0.5316850000000  0.4944920000000 1.0
C      1  0.4527290000000  0.5241960000000  0.4423190000000 1.0
C      1  0.4699320000000  0.5263380000000  0.5662380000000 1.0
C      1  0.5736950000000  0.4714230000000  0.4883980000000 1.0
C      1  0.4537240000000  0.4648590000000  0.4424660000000 1.0
C      1  0.4697600000000  0.4702050000000  0.5628040000000 1.0
C      1  0.5111310000000  0.5470900000000  0.5843440000000 1.0
C      1  0.5684760000000  0.5622450000000  0.4575340000000 1.0
C      1  0.4283100000000  0.5569170000000  0.4695760000000 1.0
C      1  0.5145550000000  0.4589070000000  0.5796320000000 1.0
C      1  0.5628650000000  0.4461280000000  0.4471970000000 1.0
C      1  0.4211300000000  0.4416450000000  0.4713420000000 1.0
C      1  0.4963790000000  0.4914360000000  0.5120290000000 1.0
C      1  0.5261670000000  0.4856770000000  0.5000820000000 1.0
C      1  0.4871290000000  0.4822980000000  0.4820220000000 1.0
C      1  0.4871280000000  0.5173260000000  0.5198980000000 1.0
C      1  0.5212550000000  0.5186890000000  0.4966060000000 1.0
C      1  0.4946890000000  0.5144930000000  0.4794260000000 1.0
C      1  0.5275270000000  0.4631970000000  0.4787180000000 1.0
C      1  0.4636860000000  0.4613910000000  0.4896530000000 1.0
C      1  0.5059340000000  0.4662540000000  0.5308430000000 1.0
C      1  0.5336090000000  0.5464620000000  0.4874950000000 1.0
C      1  0.4696070000000  0.5347960000000  0.4869160000000 1.0
C      1  0.5050010000000  0.5371560000000  0.5353420000000 1.0
C      1  0.4971940000000  0.4658560000000  0.5597030000000 1.0
C      1  0.5559520000000  0.4604420000000  0.4693730000000 1.0
C      1  0.4438740000000  0.4561870000000  0.4672070000000 1.0
C      1  0.4962820000000  0.5364060000000  0.5641000000000 1.0
C      1  0.5600100000000  0.5474360000000  0.4782740000000 1.0
C      1  0.4484320000000  0.5387740000000  0.4657990000000 1.0
C      1  0.5191830000000  0.5707100000000  0.5041180000000 1.0
C      1  0.4950350000000  0.5566220000000  0.4846750000000 1.0
C      1  0.4909820000000  0.5608770000000  0.5181640000000 1.0
C      1  0.5195720000000  0.4416910000000  0.5021330000000 1.0
C      1  0.4914850000000  0.4425320000000  0.4827730000000 1.0
C      1  0.4889520000000  0.4435250000000  0.5155760000000 1.0
C      1  0.5442860000000  0.4871430000000  0.5552400000000 1.0
C      1  0.5254670000000  0.4832700000000  0.4353420000000 1.0
C      1  0.4238770000000  0.4893670000000  0.5088410000000 1.0
C      1  0.5413650000000  0.5122430000000  0.5548580000000 1.0
C      1  0.5252560000000  0.5085550000000  0.4342590000000 1.0
C      1  0.4281930000000  0.5140380000000  0.5061040000000 1.0
C      1  0.4622820000000  0.4417040000000  0.5243580000000 1.0
C      1  0.5434050000000  0.4382790000000  0.5202260000000 1.0
C      1  0.4953350000000  0.4362970000000  0.4533300000000 1.0
C      1  0.4622360000000  0.5602830000000  0.5250330000000 1.0
C      1  0.5441930000000  0.5600600000000  0.5234050000000 1.0
C      1  0.5028210000000  0.5525420000000  0.4571900000000 1.0
END
