TITL C-1154828-9214-616 0.00160649759311983 125000 -327.466162585657 0 0 60 (C1) n - 1
REM
REM in /home/nfs/bkarasulu/CARBON/AIRSS/Generating-Clusters/AIREBO/Higher-Symm/Only-C60
REM
REM
REM
REM
REM
REM ./C.cell (28575a23ae977d3b5fae324c64b13b57)
REM
REM compiler GCC version 9.2.1 20190827 (Red Hat 9.2.1-1)
REM options -cpp -mtune=generic -march=x86-64 -g -O0 -fpre-include=/usr/include/finclude/math-vector-fortran.h
REM seed -1396064743 -950685009 -884477128 1584067958 -2141267168 1438599757 1535561191 -202077498 -514202402 -43853119 75706298 536794320 -525695055 2058922728 551137296 1772619037 -790647745 1568977266 -610512335 1573565428 2039289201 -499463494 287554564 153090606 -394045209 122656104 1399466213 1695441533 1971895492 -1563987460 420412360 -1762275155 622146648
REM
CELL 1.54180   50.00000   50.00000   50.00000   90.00000   90.00000   90.00000
LATT -1
SFAC C  
C      1  0.4636560000000  0.4929670000000  0.4879210000000 1.0
C      1  0.4796840000000  0.4667390000000  0.5026820000000 1.0
C      1  0.5038950000000  0.4577810000000  0.4892220000000 1.0
C      1  0.5591630000000  0.4825280000000  0.4958520000000 1.0
C      1  0.5161470000000  0.5291950000000  0.4953470000000 1.0
C      1  0.4873300000000  0.5369270000000  0.4911310000000 1.0
C      1  0.4673330000000  0.5201450000000  0.5057400000000 1.0
C      1  0.4526860000000  0.4466530000000  0.5061160000000 1.0
C      1  0.5101230000000  0.4281400000000  0.5151300000000 1.0
C      1  0.5548870000000  0.4549960000000  0.5034960000000 1.0
C      1  0.5540920000000  0.5229900000000  0.5235040000000 1.0
C      1  0.5470250000000  0.5775090000000  0.4959920000000 1.0
C      1  0.4777680000000  0.5831870000000  0.5078600000000 1.0
C      1  0.4169320000000  0.5009490000000  0.5114660000000 1.0
C      1  0.5335400000000  0.5548360000000  0.4945720000000 1.0
C      1  0.4788900000000  0.5676040000000  0.4864690000000 1.0
C      1  0.4353970000000  0.5181770000000  0.5013380000000 1.0
C      1  0.4416010000000  0.4693100000000  0.4913590000000 1.0
C      1  0.5090650000000  0.4251250000000  0.4812600000000 1.0
C      1  0.5352140000000  0.4438860000000  0.4888280000000 1.0
C      1  0.5704810000000  0.5052490000000  0.5107190000000 1.0
C      1  0.4780230000000  0.5727350000000  0.5333530000000 1.0
C      1  0.4171630000000  0.4883660000000  0.5360010000000 1.0
C      1  0.4479870000000  0.4433330000000  0.5338830000000 1.0
C      1  0.5066310000000  0.4262840000000  0.5443630000000 1.0
C      1  0.5522770000000  0.4494920000000  0.5327690000000 1.0
C      1  0.5610780000000  0.5466820000000  0.5352860000000 1.0
C      1  0.5625240000000  0.5986110000000  0.4970970000000 1.0
C      1  0.4867710000000  0.5493540000000  0.5458030000000 1.0
C      1  0.4744160000000  0.5227110000000  0.5360790000000 1.0
C      1  0.4588470000000  0.4660430000000  0.5477580000000 1.0
C      1  0.4898860000000  0.4708370000000  0.5345250000000 1.0
C      1  0.5204390000000  0.4589480000000  0.5254480000000 1.0
C      1  0.5387900000000  0.4863000000000  0.5269710000000 1.0
C      1  0.5224210000000  0.5147650000000  0.5221840000000 1.0
C      1  0.5030070000000  0.4437310000000  0.4534500000000 1.0
C      1  0.5163790000000  0.4736470000000  0.4626930000000 1.0
C      1  0.5459950000000  0.4888060000000  0.4698120000000 1.0
C      1  0.5221890000000  0.5117430000000  0.4722740000000 1.0
C      1  0.4806450000000  0.5468500000000  0.4595850000000 1.0
C      1  0.4597390000000  0.5270120000000  0.4497160000000 1.0
C      1  0.4686120000000  0.4988770000000  0.4581610000000 1.0
C      1  0.4526110000000  0.5128430000000  0.5556720000000 1.0
C      1  0.4412360000000  0.4876330000000  0.5509940000000 1.0
C      1  0.5012680000000  0.4504910000000  0.5592870000000 1.0
C      1  0.5157110000000  0.4698450000000  0.5745340000000 1.0
C      1  0.5323550000000  0.4953010000000  0.5582580000000 1.0
C      1  0.5277820000000  0.5273160000000  0.5687770000000 1.0
C      1  0.5070190000000  0.5449310000000  0.5649760000000 1.0
C      1  0.5183280000000  0.4787330000000  0.4223410000000 1.0
C      1  0.5368910000000  0.4977490000000  0.4382640000000 1.0
C      1  0.5254620000000  0.5278420000000  0.4438340000000 1.0
C      1  0.5067540000000  0.5473900000000  0.4414790000000 1.0
C      1  0.4379160000000  0.5329480000000  0.4368890000000 1.0
C      1  0.4718730000000  0.4747180000000  0.4344510000000 1.0
C      1  0.4970480000000  0.4605220000000  0.4302440000000 1.0
C      1  0.4990450000000  0.4988150000000  0.4509790000000 1.0
C      1  0.5013040000000  0.4979630000000  0.5718570000000 1.0
C      1  0.5035890000000  0.5066280000000  0.4181870000000 1.0
C      1  0.4980320000000  0.5032890000000  0.5393550000000 1.0
END
