TITL C-1154830-9999-219 -0.00106427651539852 125000 -323.561853047413 0 0 60 (C1) n - 1
REM
REM in /home/nfs/bkarasulu/CARBON/AIRSS/Generating-Clusters/AIREBO/Higher-Symm/Only-C60
REM
REM
REM
REM
REM
REM ./C.cell (28575a23ae977d3b5fae324c64b13b57)
REM
REM compiler GCC version 9.2.1 20190827 (Red Hat 9.2.1-1)
REM options -cpp -mtune=generic -march=x86-64 -g -O0 -fpre-include=/usr/include/finclude/math-vector-fortran.h
REM seed 1896714440 -2134948004 -960958246 370281050 983004485 1550216226 1177744920 -638574925 597977598 -1841838866 -356984363 977048424 -1722406354 2118944995 1277443834 1388170073 -418886884 1995430766 1280418578 855690450 2101613798 706993409 -994807161 544854374 742761823 855800178 1982093304 2073172252 1654581283 -232116296 -1145646415 549724427 -830467811
REM
CELL 1.54180   50.00000   50.00000   50.00000   90.00000   90.00000   90.00000
LATT -1
SFAC C  
C      1  0.5138610000000  0.4986780000000  0.5295550000000 1.0
C      1  0.4742120000000  0.4967830000000  0.5247400000000 1.0
C      1  0.5195320000000  0.4892070000000  0.4652600000000 1.0
C      1  0.4783570000000  0.5016050000000  0.4740950000000 1.0
C      1  0.5161340000000  0.5223790000000  0.5153680000000 1.0
C      1  0.4976130000000  0.4790780000000  0.5129460000000 1.0
C      1  0.5084740000000  0.5160890000000  0.4829270000000 1.0
C      1  0.4963290000000  0.4738590000000  0.4820590000000 1.0
C      1  0.5287470000000  0.5433840000000  0.4838550000000 1.0
C      1  0.4894340000000  0.4413150000000  0.4883490000000 1.0
C      1  0.5295130000000  0.4675450000000  0.5101470000000 1.0
C      1  0.4801950000000  0.5527340000000  0.5192950000000 1.0
C      1  0.5589030000000  0.5286180000000  0.4854730000000 1.0
C      1  0.4548700000000  0.4805020000000  0.4867440000000 1.0
C      1  0.4586010000000  0.5266180000000  0.5165200000000 1.0
C      1  0.5571490000000  0.4862340000000  0.5120790000000 1.0
C      1  0.4522750000000  0.5650050000000  0.4768240000000 1.0
C      1  0.5408360000000  0.4296600000000  0.4693660000000 1.0
C      1  0.4531580000000  0.4366830000000  0.5268760000000 1.0
C      1  0.5414010000000  0.5666080000000  0.5272550000000 1.0
C      1  0.5648340000000  0.4498470000000  0.4749550000000 1.0
C      1  0.4302470000000  0.5406240000000  0.4740730000000 1.0
C      1  0.4274480000000  0.4558210000000  0.5206030000000 1.0
C      1  0.5699960000000  0.5507860000000  0.5299780000000 1.0
C      1  0.5402850000000  0.5729300000000  0.4966150000000 1.0
C      1  0.4624390000000  0.4328670000000  0.4969700000000 1.0
C      1  0.5391170000000  0.4357540000000  0.5017310000000 1.0
C      1  0.4545320000000  0.5660450000000  0.5082800000000 1.0
C      1  0.5659860000000  0.5537830000000  0.4988850000000 1.0
C      1  0.4423710000000  0.4547240000000  0.4931850000000 1.0
C      1  0.4321940000000  0.5443090000000  0.5041980000000 1.0
C      1  0.5670090000000  0.4560330000000  0.5048790000000 1.0
C      1  0.4718590000000  0.4508540000000  0.5456280000000 1.0
C      1  0.5195500000000  0.5451820000000  0.5360840000000 1.0
C      1  0.4751100000000  0.5567400000000  0.4589600000000 1.0
C      1  0.5216450000000  0.4421230000000  0.4500150000000 1.0
C      1  0.4503040000000  0.4754300000000  0.5360760000000 1.0
C      1  0.5497400000000  0.5299550000000  0.5403700000000 1.0
C      1  0.5415430000000  0.4677920000000  0.4578030000000 1.0
C      1  0.4600410000000  0.5284360000000  0.4630090000000 1.0
C      1  0.5042850000000  0.5576440000000  0.4650070000000 1.0
C      1  0.4946200000000  0.4435520000000  0.4562090000000 1.0
C      1  0.4990460000000  0.4472290000000  0.5426790000000 1.0
C      1  0.4915380000000  0.5495310000000  0.5482590000000 1.0
C      1  0.5662110000000  0.4880640000000  0.4636700000000 1.0
C      1  0.4397280000000  0.5012080000000  0.4644260000000 1.0
C      1  0.4364680000000  0.5065160000000  0.5327340000000 1.0
C      1  0.5524980000000  0.5020280000000  0.5389670000000 1.0
C      1  0.5180090000000  0.4613260000000  0.5588370000000 1.0
C      1  0.4766020000000  0.5326390000000  0.5635620000000 1.0
C      1  0.5198380000000  0.5378790000000  0.4452880000000 1.0
C      1  0.4754620000000  0.4598750000000  0.4427730000000 1.0
C      1  0.4631200000000  0.5117250000000  0.5531970000000 1.0
C      1  0.5291770000000  0.4861080000000  0.5511090000000 1.0
C      1  0.5179020000000  0.5131500000000  0.4441900000000 1.0
C      1  0.4648810000000  0.4839700000000  0.4483260000000 1.0
C      1  0.5014600000000  0.5565510000000  0.4993020000000 1.0
C      1  0.5090740000000  0.4408700000000  0.5139010000000 1.0
C      1  0.5650190000000  0.5023770000000  0.4868860000000 1.0
C      1  0.4392150000000  0.5051380000000  0.4986510000000 1.0
END
