TITL C-1154816-9297-180 -9.16377807351655e-05 125000 -350.470407361438 0 0 60 (C1) n - 1
REM
REM in /home/nfs/bkarasulu/CARBON/AIRSS/Generating-Clusters/AIREBO/Higher-Symm/Only-C60
REM
REM
REM
REM
REM
REM ./C.cell (28575a23ae977d3b5fae324c64b13b57)
REM
REM compiler GCC version 9.2.1 20190827 (Red Hat 9.2.1-1)
REM options -cpp -mtune=generic -march=x86-64 -g -O0 -fpre-include=/usr/include/finclude/math-vector-fortran.h
REM seed 1442745321 51449746 -1144193030 -558945870 2038673310 -540554924 -1097699826 1762578106 1262938144 1481282349 -1805573455 -1723347569 1131222075 2040044451 1327418369 -891702354 499638302 1089352339 1380145427 -1440168787 -1908436564 -598382693 1817085521 -89806329 -184474582 -52301109 -2009695928 -1664248015 -384758026 2104326901 1955091063 1887037289 -1411104202
REM
CELL 1.54180   50.00000   50.00000   50.00000   90.00000   90.00000   90.00000
LATT -1
SFAC C  
C      1  0.4691920000000  0.5108720000000  0.5091080000000 1.0
C      1  0.5254080000000  0.5125750000000  0.4827530000000 1.0
C      1  0.4740740000000  0.5120590000000  0.4801110000000 1.0
C      1  0.5331060000000  0.5121160000000  0.5102100000000 1.0
C      1  0.4824800000000  0.5647850000000  0.5108920000000 1.0
C      1  0.5263040000000  0.5654550000000  0.4859330000000 1.0
C      1  0.4730400000000  0.5634260000000  0.4821610000000 1.0
C      1  0.5141450000000  0.5699530000000  0.5107690000000 1.0
C      1  0.4346860000000  0.4805160000000  0.4680700000000 1.0
C      1  0.5558930000000  0.4821940000000  0.5358180000000 1.0
C      1  0.4475380000000  0.4805980000000  0.5365330000000 1.0
C      1  0.5606050000000  0.4857470000000  0.4650060000000 1.0
C      1  0.4245410000000  0.4914950000000  0.4920660000000 1.0
C      1  0.5605520000000  0.4987240000000  0.5128920000000 1.0
C      1  0.4414710000000  0.4961060000000  0.5140010000000 1.0
C      1  0.5733900000000  0.4966920000000  0.4878110000000 1.0
C      1  0.5165250000000  0.5318580000000  0.5267560000000 1.0
C      1  0.4859840000000  0.5368560000000  0.4693950000000 1.0
C      1  0.5155760000000  0.5373220000000  0.4712910000000 1.0
C      1  0.4853680000000  0.5332250000000  0.5239520000000 1.0
C      1  0.4680060000000  0.4963880000000  0.5534450000000 1.0
C      1  0.5383210000000  0.4996030000000  0.4474230000000 1.0
C      1  0.4575030000000  0.4965300000000  0.4567710000000 1.0
C      1  0.5351140000000  0.4969040000000  0.5546900000000 1.0
C      1  0.5166850000000  0.4919410000000  0.5282520000000 1.0
C      1  0.4866000000000  0.4839500000000  0.4691930000000 1.0
C      1  0.5167290000000  0.4860520000000  0.4699550000000 1.0
C      1  0.4855740000000  0.4866310000000  0.5258550000000 1.0
C      1  0.4754970000000  0.5378820000000  0.5554240000000 1.0
C      1  0.5289650000000  0.5412470000000  0.4421200000000 1.0
C      1  0.4772610000000  0.5396080000000  0.4378660000000 1.0
C      1  0.5271730000000  0.5359900000000  0.5574300000000 1.0
C      1  0.5239450000000  0.4580830000000  0.4860650000000 1.0
C      1  0.4820900000000  0.4557560000000  0.5120370000000 1.0
C      1  0.5149420000000  0.4597260000000  0.5166960000000 1.0
C      1  0.4758790000000  0.4558340000000  0.4831010000000 1.0
C      1  0.5156730000000  0.5137190000000  0.5765820000000 1.0
C      1  0.4881770000000  0.5171790000000  0.4245270000000 1.0
C      1  0.5191250000000  0.5165750000000  0.4247550000000 1.0
C      1  0.4852820000000  0.5149110000000  0.5747100000000 1.0
C      1  0.4637940000000  0.5650590000000  0.4528770000000 1.0
C      1  0.5273280000000  0.5619630000000  0.5368270000000 1.0
C      1  0.4682200000000  0.5641560000000  0.5417560000000 1.0
C      1  0.5379280000000  0.5663180000000  0.4562130000000 1.0
C      1  0.4852570000000  0.4653650000000  0.4310320000000 1.0
C      1  0.5113450000000  0.4570500000000  0.5733580000000 1.0
C      1  0.4832340000000  0.4574190000000  0.5778310000000 1.0
C      1  0.5138850000000  0.4613920000000  0.4296340000000 1.0
C      1  0.5256930000000  0.4498150000000  0.4526910000000 1.0
C      1  0.4668620000000  0.4427690000000  0.5592680000000 1.0
C      1  0.5205370000000  0.4457680000000  0.5492710000000 1.0
C      1  0.4714550000000  0.4492910000000  0.4497930000000 1.0
C      1  0.5283800000000  0.4842320000000  0.4198230000000 1.0
C      1  0.4737270000000  0.4838900000000  0.5828740000000 1.0
C      1  0.5244750000000  0.4810360000000  0.5810390000000 1.0
C      1  0.4761690000000  0.4926160000000  0.4315670000000 1.0
C      1  0.5519940000000  0.4592090000000  0.4678520000000 1.0
C      1  0.4600970000000  0.4552010000000  0.5344920000000 1.0
C      1  0.5454980000000  0.4560930000000  0.5311840000000 1.0
C      1  0.4457010000000  0.4542750000000  0.4681920000000 1.0
END
