TITL C-1154804-8633-327 -0.00157552741339587 125000 -308.480365494455 0 0 60 (C1) n - 1
REM
REM in /home/nfs/bkarasulu/CARBON/AIRSS/Generating-Clusters/AIREBO/Higher-Symm/Only-C60
REM
REM
REM
REM
REM
REM ./C.cell (28575a23ae977d3b5fae324c64b13b57)
REM
REM compiler GCC version 9.2.1 20190827 (Red Hat 9.2.1-1)
REM options -cpp -mtune=generic -march=x86-64 -g -O0 -fpre-include=/usr/include/finclude/math-vector-fortran.h
REM seed 2055940777 -1058937337 -1176213365 214439276 -1935003650 -474984887 -713183997 -2118938918 1112180641 2096108765 1456072782 1767574918 68393904 -1640341322 -1499531467 1937345388 1384979814 -1099304737 538334256 887948006 4728159 1481162274 1387857988 1576823165 -987480406 -1656134417 -167609714 -1443392266 -281794673 343994504 -426435626 -821872823 -153573232
REM
CELL 1.54180   50.00000   50.00000   50.00000   90.00000   90.00000   90.00000
LATT -1
SFAC C  
C      1  0.5256610000000  0.4917580000000  0.4753990000000 1.0
C      1  0.5034140000000  0.5166640000000  0.4818780000000 1.0
C      1  0.5206280000000  0.5359860000000  0.5039710000000 1.0
C      1  0.5086010000000  0.5211710000000  0.5321340000000 1.0
C      1  0.5277000000000  0.4938770000000  0.5253120000000 1.0
C      1  0.5203880000000  0.4633030000000  0.5383950000000 1.0
C      1  0.5086810000000  0.4623680000000  0.4777480000000 1.0
C      1  0.5260130000000  0.5596880000000  0.4798760000000 1.0
C      1  0.5351310000000  0.5552190000000  0.5279800000000 1.0
C      1  0.5597140000000  0.5219570000000  0.5560730000000 1.0
C      1  0.5537110000000  0.4674260000000  0.5401440000000 1.0
C      1  0.5375030000000  0.4522940000000  0.4866420000000 1.0
C      1  0.5570640000000  0.4705670000000  0.4457280000000 1.0
C      1  0.5476920000000  0.5211190000000  0.4429040000000 1.0
C      1  0.4502450000000  0.5076740000000  0.4721560000000 1.0
C      1  0.4565080000000  0.5366990000000  0.4887300000000 1.0
C      1  0.4507760000000  0.5242070000000  0.5198310000000 1.0
C      1  0.4584370000000  0.5008650000000  0.5398630000000 1.0
C      1  0.4529020000000  0.4691120000000  0.5317780000000 1.0
C      1  0.4421880000000  0.4650190000000  0.5051480000000 1.0
C      1  0.4559790000000  0.4743100000000  0.4754560000000 1.0
C      1  0.4402950000000  0.4443130000000  0.4787150000000 1.0
C      1  0.4333200000000  0.5173140000000  0.4454530000000 1.0
C      1  0.4492930000000  0.5333730000000  0.4289320000000 1.0
C      1  0.4463400000000  0.5692620000000  0.4908440000000 1.0
C      1  0.4338620000000  0.5447510000000  0.5409970000000 1.0
C      1  0.4348400000000  0.4851260000000  0.5557320000000 1.0
C      1  0.4139560000000  0.4483450000000  0.4998500000000 1.0
C      1  0.4880280000000  0.5566200000000  0.4529750000000 1.0
C      1  0.4795400000000  0.5706660000000  0.5314870000000 1.0
C      1  0.4773360000000  0.5311460000000  0.5774620000000 1.0
C      1  0.4917310000000  0.4830230000000  0.5708040000000 1.0
C      1  0.4836660000000  0.4349510000000  0.5168650000000 1.0
C      1  0.4748330000000  0.4355400000000  0.4439350000000 1.0
C      1  0.4865560000000  0.4873500000000  0.4388910000000 1.0
C      1  0.4955020000000  0.4867640000000  0.4146530000000 1.0
C      1  0.4757460000000  0.5360290000000  0.4392220000000 1.0
C      1  0.4743250000000  0.5696960000000  0.5019540000000 1.0
C      1  0.4654640000000  0.5479130000000  0.5526140000000 1.0
C      1  0.4831720000000  0.5050070000000  0.5919620000000 1.0
C      1  0.4757070000000  0.4511210000000  0.5384050000000 1.0
C      1  0.4669880000000  0.4309670000000  0.4719070000000 1.0
C      1  0.5549090000000  0.5461600000000  0.5443770000000 1.0
C      1  0.5532880000000  0.4967250000000  0.5475240000000 1.0
C      1  0.5414940000000  0.4536630000000  0.5135060000000 1.0
C      1  0.5550580000000  0.4499960000000  0.4644670000000 1.0
C      1  0.5428160000000  0.4945110000000  0.4503830000000 1.0
C      1  0.5470930000000  0.5436480000000  0.4593040000000 1.0
C      1  0.5516810000000  0.5418960000000  0.4914040000000 1.0
C      1  0.4824350000000  0.4652380000000  0.4587610000000 1.0
C      1  0.4806160000000  0.5107480000000  0.4571620000000 1.0
C      1  0.4883160000000  0.5471170000000  0.4832270000000 1.0
C      1  0.4818260000000  0.5378540000000  0.5248610000000 1.0
C      1  0.4846370000000  0.5094850000000  0.5526590000000 1.0
C      1  0.4963030000000  0.4612630000000  0.5540350000000 1.0
C      1  0.4872130000000  0.4393640000000  0.4894890000000 1.0
C      1  0.4308310000000  0.5050120000000  0.5000800000000 1.0
C      1  0.5698340000000  0.5014240000000  0.4971710000000 1.0
C      1  0.4998700000000  0.4927590000000  0.5057960000000 1.0
C      1  0.5453000000000  0.4921730000000  0.4991850000000 1.0
END
