TITL C-1154821-8623-577 -0.000376185068306142 125000 -353.845903114363 0 0 60 (C1) n - 1
REM
REM in /home/nfs/bkarasulu/CARBON/AIRSS/Generating-Clusters/AIREBO/Higher-Symm/Only-C60
REM
REM
REM
REM
REM
REM ./C.cell (28575a23ae977d3b5fae324c64b13b57)
REM
REM compiler GCC version 9.2.1 20190827 (Red Hat 9.2.1-1)
REM options -cpp -mtune=generic -march=x86-64 -g -O0 -fpre-include=/usr/include/finclude/math-vector-fortran.h
REM seed -816908792 -1359893427 -395541033 568419543 1519665887 -1530632759 2023218781 -1916385305 1085532151 -1828766571 1499568557 -23921009 693561016 412728370 868088631 81708675 -1721994279 -1988014757 1993851581 -1915271012 -1892089417 -1967104152 557741441 164999912 69091694 -528432715 -12329454 -432808844 525179184 -1021026084 1319965058 130032723 674428756
REM
CELL 1.54180   50.00000   50.00000   50.00000   90.00000   90.00000   90.00000
LATT -1
SFAC C  
C      1  0.4891650000000  0.5438700000000  0.5625480000000 1.0
C      1  0.5598710000000  0.4897640000000  0.5418220000000 1.0
C      1  0.5437230000000  0.5585970000000  0.4895570000000 1.0
C      1  0.4998870000000  0.4566830000000  0.5583360000000 1.0
C      1  0.5118460000000  0.5466610000000  0.4319930000000 1.0
C      1  0.5073210000000  0.4764660000000  0.4422330000000 1.0
C      1  0.4306790000000  0.5060600000000  0.5470780000000 1.0
C      1  0.4402650000000  0.5078700000000  0.4752830000000 1.0
C      1  0.5607950000000  0.4996000000000  0.4544790000000 1.0
C      1  0.4747510000000  0.4419100000000  0.5077570000000 1.0
C      1  0.4550870000000  0.5567740000000  0.4989780000000 1.0
C      1  0.5466650000000  0.4325070000000  0.5097960000000 1.0
C      1  0.5409130000000  0.4899030000000  0.5624440000000 1.0
C      1  0.4903460000000  0.5603130000000  0.5399980000000 1.0
C      1  0.5645450000000  0.5398700000000  0.4889630000000 1.0
C      1  0.4501030000000  0.5090040000000  0.5670270000000 1.0
C      1  0.5334820000000  0.4973700000000  0.4398720000000 1.0
C      1  0.4634140000000  0.5060250000000  0.4535570000000 1.0
C      1  0.4977910000000  0.4406700000000  0.5319250000000 1.0
C      1  0.5035810000000  0.4508920000000  0.4618500000000 1.0
C      1  0.5065000000000  0.5697450000000  0.4509430000000 1.0
C      1  0.4479460000000  0.4603780000000  0.5053280000000 1.0
C      1  0.5703260000000  0.4508910000000  0.5047920000000 1.0
C      1  0.4370730000000  0.5332220000000  0.4979130000000 1.0
C      1  0.5761650000000  0.4780900000000  0.4620550000000 1.0
C      1  0.4620240000000  0.5714350000000  0.4765210000000 1.0
C      1  0.4780400000000  0.4654840000000  0.5724520000000 1.0
C      1  0.4092820000000  0.5124150000000  0.4620330000000 1.0
C      1  0.4202900000000  0.4802490000000  0.5426100000000 1.0
C      1  0.5741120000000  0.5112460000000  0.5315690000000 1.0
C      1  0.5339370000000  0.4204420000000  0.4882860000000 1.0
C      1  0.5329250000000  0.5713770000000  0.5116420000000 1.0
C      1  0.4689000000000  0.4083720000000  0.5077360000000 1.0
C      1  0.5128470000000  0.5330600000000  0.5726910000000 1.0
C      1  0.5060160000000  0.4698610000000  0.4088980000000 1.0
C      1  0.4896850000000  0.5343960000000  0.4205510000000 1.0
C      1  0.4827980000000  0.5793650000000  0.4611320000000 1.0
C      1  0.5823830000000  0.4614820000000  0.4824560000000 1.0
C      1  0.4609450000000  0.4855920000000  0.5779100000000 1.0
C      1  0.5189550000000  0.4301350000000  0.4678330000000 1.0
C      1  0.4875180000000  0.4101910000000  0.5282410000000 1.0
C      1  0.5146820000000  0.5710830000000  0.5314890000000 1.0
C      1  0.4113460000000  0.5351490000000  0.4777600000000 1.0
C      1  0.5764990000000  0.5293180000000  0.5116650000000 1.0
C      1  0.4281810000000  0.4633160000000  0.5228150000000 1.0
C      1  0.5299830000000  0.5123470000000  0.5744960000000 1.0
C      1  0.4691120000000  0.5212530000000  0.4324550000000 1.0
C      1  0.5281160000000  0.4866410000000  0.4097860000000 1.0
C      1  0.5274690000000  0.4654250000000  0.5626740000000 1.0
C      1  0.4648730000000  0.5324790000000  0.5704730000000 1.0
C      1  0.5350190000000  0.5291680000000  0.4470650000000 1.0
C      1  0.5646190000000  0.5270280000000  0.4641610000000 1.0
C      1  0.4687940000000  0.5621370000000  0.5224600000000 1.0
C      1  0.4831070000000  0.4847450000000  0.4611300000000 1.0
C      1  0.4515690000000  0.4779250000000  0.4789470000000 1.0
C      1  0.4281930000000  0.5237710000000  0.5257940000000 1.0
C      1  0.5575690000000  0.4664530000000  0.5272200000000 1.0
C      1  0.5294200000000  0.4479760000000  0.5328980000000 1.0
C      1  0.5290980000000  0.5569550000000  0.4662210000000 1.0
C      1  0.4794530000000  0.4585960000000  0.4814040000000 1.0
END
