TITL C-1154816-9297-656 0.00456360062109951 125000 -325.625363710419 0 0 60 (C1) n - 1
REM
REM in /home/nfs/bkarasulu/CARBON/AIRSS/Generating-Clusters/AIREBO/Higher-Symm/Only-C60
REM
REM
REM
REM
REM
REM ./C.cell (28575a23ae977d3b5fae324c64b13b57)
REM
REM compiler GCC version 9.2.1 20190827 (Red Hat 9.2.1-1)
REM options -cpp -mtune=generic -march=x86-64 -g -O0 -fpre-include=/usr/include/finclude/math-vector-fortran.h
REM seed -1464290048 -1946271990 1246410810 -239640878 -898304568 659329087 133469103 -2031897248 -887703403 727297814 -894148502 1699502015 1072844657 171350100 868038156 1411238383 1879642210 823889507 -799474381 -1141773447 -925809509 244471125 -1117949343 -212305521 502261077 -1496942574 617005861 -770440043 -1392429536 -512099257 1481520108 -1073283267 -1670836053
REM
CELL 1.54180   50.00000   50.00000   50.00000   90.00000   90.00000   90.00000
LATT -1
SFAC C  
C      1  0.4314900000000  0.5163710000000  0.5097380000000 1.0
C      1  0.5450530000000  0.5512580000000  0.5126850000000 1.0
C      1  0.5223460000000  0.4275530000000  0.5169440000000 1.0
C      1  0.4358260000000  0.4547700000000  0.4922710000000 1.0
C      1  0.4876730000000  0.5780070000000  0.4948990000000 1.0
C      1  0.5654870000000  0.4664780000000  0.4916090000000 1.0
C      1  0.5435910000000  0.5014340000000  0.4853750000000 1.0
C      1  0.4876000000000  0.4631510000000  0.4997790000000 1.0
C      1  0.4741740000000  0.5392210000000  0.4908360000000 1.0
C      1  0.4409480000000  0.5363680000000  0.4571370000000 1.0
C      1  0.5637670000000  0.5278580000000  0.4523390000000 1.0
C      1  0.4985910000000  0.4352520000000  0.4571890000000 1.0
C      1  0.5119390000000  0.5325690000000  0.5012940000000 1.0
C      1  0.5256600000000  0.4662550000000  0.4891940000000 1.0
C      1  0.4649330000000  0.5005140000000  0.4936330000000 1.0
C      1  0.5144480000000  0.5644920000000  0.5127370000000 1.0
C      1  0.5428580000000  0.4486220000000  0.5112470000000 1.0
C      1  0.4364930000000  0.4865260000000  0.5059860000000 1.0
C      1  0.5132970000000  0.5299780000000  0.5324230000000 1.0
C      1  0.5137710000000  0.4744590000000  0.5200000000000 1.0
C      1  0.4679140000000  0.5017170000000  0.5251950000000 1.0
C      1  0.4656810000000  0.4749040000000  0.5415160000000 1.0
C      1  0.4905210000000  0.5466650000000  0.5456670000000 1.0
C      1  0.5367670000000  0.4844510000000  0.5387920000000 1.0
C      1  0.4567720000000  0.5697750000000  0.5079060000000 1.0
C      1  0.5778930000000  0.4959400000000  0.5039780000000 1.0
C      1  0.4606920000000  0.4347930000000  0.5058350000000 1.0
C      1  0.5367570000000  0.5226270000000  0.4413900000000 1.0
C      1  0.5082380000000  0.4565050000000  0.4394480000000 1.0
C      1  0.4600880000000  0.5168720000000  0.4450770000000 1.0
C      1  0.4651750000000  0.5274960000000  0.5419270000000 1.0
C      1  0.5401450000000  0.5160360000000  0.5368230000000 1.0
C      1  0.4928490000000  0.4584090000000  0.5391210000000 1.0
C      1  0.5047370000000  0.5286730000000  0.5715280000000 1.0
C      1  0.5224570000000  0.4826080000000  0.5690110000000 1.0
C      1  0.4731270000000  0.4900690000000  0.5718030000000 1.0
C      1  0.5263400000000  0.5120610000000  0.5656960000000 1.0
C      1  0.4964530000000  0.4722930000000  0.5667920000000 1.0
C      1  0.4765270000000  0.5180320000000  0.5696070000000 1.0
C      1  0.5557530000000  0.5209380000000  0.5104740000000 1.0
C      1  0.4926440000000  0.4346580000000  0.5176500000000 1.0
C      1  0.4513700000000  0.5371610000000  0.5159700000000 1.0
C      1  0.4454060000000  0.4591230000000  0.5240430000000 1.0
C      1  0.4845740000000  0.5714540000000  0.5274390000000 1.0
C      1  0.5623900000000  0.4733200000000  0.5241070000000 1.0
C      1  0.5465520000000  0.4735680000000  0.4660990000000 1.0
C      1  0.4611330000000  0.4701930000000  0.4796100000000 1.0
C      1  0.5015270000000  0.5538300000000  0.4768900000000 1.0
C      1  0.4992280000000  0.4793690000000  0.4722500000000 1.0
C      1  0.4873610000000  0.5169020000000  0.4740170000000 1.0
C      1  0.5153120000000  0.5063620000000  0.4852450000000 1.0
C      1  0.4477360000000  0.5517140000000  0.4794300000000 1.0
C      1  0.5706080000000  0.5138160000000  0.4750090000000 1.0
C      1  0.4826980000000  0.4364430000000  0.4792910000000 1.0
C      1  0.5347260000000  0.4977330000000  0.4268930000000 1.0
C      1  0.4855510000000  0.4710080000000  0.4297680000000 1.0
C      1  0.4829340000000  0.5294730000000  0.4344160000000 1.0
C      1  0.4717890000000  0.4868500000000  0.4533380000000 1.0
C      1  0.5096140000000  0.5322850000000  0.4532680000000 1.0
C      1  0.5320150000000  0.4727370000000  0.4403640000000 1.0
END
