TITL C-1154816-9297-40 -734.22272282485 125000 -314.427692031479 0 0 60 (C1) n - 1
REM
REM in /home/nfs/bkarasulu/CARBON/AIRSS/Generating-Clusters/AIREBO/Higher-Symm/Only-C60
REM
REM
REM
REM
REM
REM ./C.cell (28575a23ae977d3b5fae324c64b13b57)
REM
REM compiler GCC version 9.2.1 20190827 (Red Hat 9.2.1-1)
REM options -cpp -mtune=generic -march=x86-64 -g -O0 -fpre-include=/usr/include/finclude/math-vector-fortran.h
REM seed -1961107570 1142449032 1732989140 -409065687 -329137363 915986611 1385605202 -639133122 -70592032 -749347511 1162400729 -241139157 -69072545 1557402932 1729875311 -575128374 -295293357 163279411 -1119185699 -664174026 360053266 1853055273 1769439273 1741376075 -1718877009 -1775605409 184046710 386160898 979619841 -755314726 98376893 446121029 1605715216
REM
CELL 1.54180   50.00000   50.00000   50.00000   90.00000   90.00000   90.00000
LATT -1
SFAC C  
C      1  0.5267790000000  0.4890590000000  0.5650170000000 1.0
C      1  0.5226420000000  0.5180770000000  0.5576210000000 1.0
C      1  0.4951140000000  0.5281710000000  0.5653980000000 1.0
C      1  0.4725740000000  0.5098650000000  0.5565950000000 1.0
C      1  0.4768160000000  0.4812010000000  0.5643920000000 1.0
C      1  0.5040990000000  0.4711240000000  0.5567830000000 1.0
C      1  0.5288630000000  0.4888300000000  0.5310800000000 1.0
C      1  0.5247040000000  0.5199010000000  0.5234420000000 1.0
C      1  0.4952890000000  0.5309980000000  0.5315150000000 1.0
C      1  0.4708440000000  0.5116220000000  0.5223790000000 1.0
C      1  0.4754190000000  0.4798900000000  0.5304430000000 1.0
C      1  0.5048120000000  0.4676390000000  0.5226960000000 1.0
C      1  0.5436090000000  0.4580870000000  0.4936710000000 1.0
C      1  0.5635870000000  0.5193550000000  0.4878370000000 1.0
C      1  0.5128040000000  0.5587350000000  0.4877790000000 1.0
C      1  0.4549340000000  0.5443030000000  0.4885710000000 1.0
C      1  0.4445520000000  0.4806730000000  0.4856460000000 1.0
C      1  0.4841450000000  0.4362090000000  0.4903960000000 1.0
C      1  0.4547130000000  0.5158120000000  0.4580850000000 1.0
C      1  0.4629290000000  0.4620560000000  0.4554990000000 1.0
C      1  0.5202250000000  0.4490930000000  0.4625310000000 1.0
C      1  0.5463580000000  0.4896510000000  0.4530150000000 1.0
C      1  0.5319000000000  0.5366870000000  0.4604960000000 1.0
C      1  0.4902190000000  0.5509180000000  0.4558120000000 1.0
C      1  0.5618820000000  0.5105380000000  0.5351820000000 1.0
C      1  0.5222070000000  0.5594980000000  0.5380840000000 1.0
C      1  0.4596600000000  0.5479530000000  0.5362960000000 1.0
C      1  0.4374250000000  0.4890930000000  0.5379590000000 1.0
C      1  0.4775210000000  0.4409410000000  0.5381840000000 1.0
C      1  0.5406100000000  0.4512430000000  0.5360920000000 1.0
C      1  0.4756470000000  0.5290320000000  0.4349310000000 1.0
C      1  0.4601070000000  0.5004410000000  0.4295370000000 1.0
C      1  0.4603760000000  0.4737930000000  0.4305740000000 1.0
C      1  0.5340750000000  0.4622700000000  0.4438740000000 1.0
C      1  0.5382340000000  0.5140680000000  0.4375340000000 1.0
C      1  0.5088410000000  0.5296610000000  0.4368330000000 1.0
C      1  0.4895440000000  0.5622090000000  0.5283860000000 1.0
C      1  0.4393920000000  0.5216830000000  0.5284260000000 1.0
C      1  0.4509620000000  0.4594880000000  0.5277180000000 1.0
C      1  0.5106190000000  0.4357280000000  0.5318740000000 1.0
C      1  0.5581390000000  0.4783100000000  0.5248860000000 1.0
C      1  0.5496110000000  0.5416730000000  0.5286760000000 1.0
C      1  0.4775570000000  0.4820630000000  0.4788090000000 1.0
C      1  0.5042900000000  0.4635910000000  0.4888580000000 1.0
C      1  0.5286750000000  0.4862680000000  0.4818780000000 1.0
C      1  0.5296310000000  0.5195150000000  0.4897800000000 1.0
C      1  0.4983310000000  0.5293320000000  0.4808030000000 1.0
C      1  0.4702540000000  0.5139130000000  0.4882880000000 1.0
C      1  0.4409510000000  0.4550900000000  0.4997250000000 1.0
C      1  0.5086640000000  0.4263250000000  0.5027050000000 1.0
C      1  0.5691870000000  0.4739010000000  0.4953240000000 1.0
C      1  0.5587860000000  0.5460440000000  0.4995630000000 1.0
C      1  0.4909990000000  0.5738920000000  0.5006630000000 1.0
C      1  0.4334930000000  0.5259210000000  0.4982880000000 1.0
C      1  0.4324930000000  0.5050590000000  0.4788400000000 1.0
C      1  0.4599710000000  0.4443380000000  0.4795400000000 1.0
C      1  0.5302790000000  0.4332190000000  0.4869300000000 1.0
C      1  0.5685410000000  0.4944860000000  0.4764420000000 1.0
C      1  0.5413210000000  0.5592120000000  0.4818750000000 1.0
C      1  0.4737940000000  0.5622520000000  0.4799360000000 1.0
END
