TITL C-1154821-8623-215 6.32447732813415e-06 125000 -329.843299433289 0 0 60 (C2) n - 1
REM
REM in /home/nfs/bkarasulu/CARBON/AIRSS/Generating-Clusters/AIREBO/Higher-Symm/Only-C60
REM
REM
REM
REM
REM
REM ./C.cell (28575a23ae977d3b5fae324c64b13b57)
REM
REM compiler GCC version 9.2.1 20190827 (Red Hat 9.2.1-1)
REM options -cpp -mtune=generic -march=x86-64 -g -O0 -fpre-include=/usr/include/finclude/math-vector-fortran.h
REM seed 1144425578 372376441 475972279 -2127543907 -1050952990 638511454 -1799217434 -1573468335 2032389471 2097700176 600512450 -129207547 -1523004888 264413676 1454028763 1088423224 2040249202 -875701005 1689823991 -1136529152 1533862652 1658480592 -2137237966 724992475 1484379167 -91629962 -56612810 679544522 -1194479337 -1215649208 516028049 -1443909727 180972692
REM
CELL 1.54180   50.00000   50.00000   50.00000   90.00000   90.00000   90.00000
LATT -1
SFAC C  
C      1  0.5040110000000  0.5127120000000  0.5772530000000 1.0
C      1  0.5061660000000  0.4881930000000  0.4189370000000 1.0
C      1  0.4939310000000  0.5118650000000  0.4189380000000 1.0
C      1  0.4958970000000  0.4872330000000  0.5772390000000 1.0
C      1  0.5074970000000  0.5798160000000  0.5096890000000 1.0
C      1  0.5025660000000  0.4212440000000  0.4848440000000 1.0
C      1  0.4924910000000  0.4201770000000  0.5096240000000 1.0
C      1  0.4974520000000  0.5787660000000  0.4848970000000 1.0
C      1  0.4315290000000  0.4700010000000  0.5126080000000 1.0
C      1  0.4323150000000  0.5295640000000  0.4883970000000 1.0
C      1  0.5676990000000  0.4704440000000  0.4884570000000 1.0
C      1  0.5684560000000  0.5299900000000  0.5127120000000 1.0
C      1  0.4320880000000  0.5115190000000  0.4707360000000 1.0
C      1  0.4317710000000  0.4874250000000  0.5309060000000 1.0
C      1  0.5679470000000  0.4885020000000  0.4708090000000 1.0
C      1  0.5681920000000  0.5125530000000  0.5309970000000 1.0
C      1  0.4414750000000  0.5239710000000  0.5430540000000 1.0
C      1  0.4408870000000  0.4747930000000  0.4581780000000 1.0
C      1  0.5591630000000  0.5252370000000  0.4582670000000 1.0
C      1  0.5584730000000  0.4759990000000  0.5431070000000 1.0
C      1  0.4414250000000  0.5416620000000  0.5249610000000 1.0
C      1  0.4410370000000  0.4569650000000  0.4760970000000 1.0
C      1  0.5585450000000  0.4583200000000  0.5250020000000 1.0
C      1  0.5589920000000  0.5430520000000  0.4761980000000 1.0
C      1  0.4987160000000  0.4660570000000  0.4419640000000 1.0
C      1  0.4992120000000  0.5345710000000  0.5519580000000 1.0
C      1  0.5007260000000  0.4653920000000  0.5519340000000 1.0
C      1  0.5013540000000  0.5339840000000  0.4419900000000 1.0
C      1  0.4986590000000  0.4492570000000  0.4672530000000 1.0
C      1  0.4980660000000  0.5598470000000  0.5345260000000 1.0
C      1  0.5013800000000  0.5507660000000  0.4672910000000 1.0
C      1  0.5018920000000  0.4401280000000  0.5344860000000 1.0
C      1  0.5293670000000  0.5306860000000  0.5671830000000 1.0
C      1  0.5307320000000  0.4717420000000  0.4333590000000 1.0
C      1  0.4693480000000  0.5283060000000  0.4333420000000 1.0
C      1  0.4705530000000  0.4692660000000  0.5671250000000 1.0
C      1  0.5307430000000  0.5677670000000  0.5294480000000 1.0
C      1  0.5289300000000  0.4340970000000  0.4707800000000 1.0
C      1  0.4692220000000  0.4322120000000  0.5293630000000 1.0
C      1  0.4711050000000  0.5659230000000  0.4707920000000 1.0
C      1  0.5112430000000  0.5329630000000  0.4915530000000 1.0
C      1  0.5104070000000  0.4649610000000  0.5132020000000 1.0
C      1  0.4895770000000  0.5350300000000  0.5132140000000 1.0
C      1  0.4887670000000  0.4670430000000  0.4915160000000 1.0
C      1  0.5110550000000  0.4898930000000  0.5340870000000 1.0
C      1  0.5105740000000  0.5119140000000  0.4656600000000 1.0
C      1  0.4889040000000  0.5100830000000  0.5340800000000 1.0
C      1  0.4894670000000  0.4881110000000  0.4656380000000 1.0
C      1  0.4607870000000  0.4591930000000  0.5013110000000 1.0
C      1  0.4622400000000  0.5400350000000  0.4999030000000 1.0
C      1  0.5377600000000  0.4599650000000  0.4999200000000 1.0
C      1  0.5392120000000  0.5408060000000  0.5013870000000 1.0
C      1  0.4613680000000  0.4996610000000  0.4598790000000 1.0
C      1  0.4616300000000  0.4986490000000  0.5412940000000 1.0
C      1  0.5386800000000  0.5003680000000  0.4599250000000 1.0
C      1  0.5383200000000  0.5013210000000  0.5413410000000 1.0
C      1  0.4651650000000  0.4657030000000  0.5337430000000 1.0
C      1  0.4658290000000  0.5325560000000  0.4669090000000 1.0
C      1  0.5342110000000  0.4674680000000  0.4669270000000 1.0
C      1  0.5347950000000  0.5342730000000  0.5338090000000 1.0
END
