TITL C-1154821-8623-143 0.000473493811899996 125000 -327.179738806954 0 0 60 (C1) n - 1
REM
REM in /home/nfs/bkarasulu/CARBON/AIRSS/Generating-Clusters/AIREBO/Higher-Symm/Only-C60
REM
REM
REM
REM
REM
REM ./C.cell (28575a23ae977d3b5fae324c64b13b57)
REM
REM compiler GCC version 9.2.1 20190827 (Red Hat 9.2.1-1)
REM options -cpp -mtune=generic -march=x86-64 -g -O0 -fpre-include=/usr/include/finclude/math-vector-fortran.h
REM seed -668320392 -661323960 2060006173 644445080 1791204666 1585196509 1639223029 -1563933755 -1461284235 -1110333061 -566277970 -1451858555 -643348127 421678105 -1720927641 -129069872 1759904919 1728140630 1797317815 -1756936556 -307498331 -545589410 -1358285048 296298536 -1104569167 1912553242 1071457916 -15064763 1408869048 -1720931319 -1204134687 -707517353 -938936602
REM
CELL 1.54180   50.00000   50.00000   50.00000   90.00000   90.00000   90.00000
LATT -1
SFAC C  
C      1  0.5502120000000  0.4711820000000  0.4956190000000 1.0
C      1  0.5573030000000  0.4979440000000  0.4758670000000 1.0
C      1  0.5440020000000  0.5245700000000  0.4770940000000 1.0
C      1  0.5419390000000  0.5171520000000  0.5300900000000 1.0
C      1  0.5576620000000  0.4876250000000  0.5244480000000 1.0
C      1  0.5477070000000  0.4414230000000  0.5118790000000 1.0
C      1  0.5493520000000  0.4787680000000  0.4541700000000 1.0
C      1  0.5448940000000  0.5462130000000  0.4543730000000 1.0
C      1  0.5424910000000  0.5469400000000  0.5218340000000 1.0
C      1  0.5495580000000  0.4865370000000  0.5542500000000 1.0
C      1  0.4490950000000  0.5636090000000  0.5200170000000 1.0
C      1  0.4621030000000  0.5043300000000  0.5479970000000 1.0
C      1  0.4366310000000  0.4494480000000  0.5075360000000 1.0
C      1  0.4591230000000  0.4680120000000  0.4712300000000 1.0
C      1  0.4500250000000  0.5223000000000  0.4619950000000 1.0
C      1  0.5227380000000  0.4796870000000  0.5656480000000 1.0
C      1  0.5192000000000  0.4331890000000  0.4993830000000 1.0
C      1  0.5268980000000  0.4827090000000  0.4366740000000 1.0
C      1  0.5170140000000  0.5594490000000  0.4574440000000 1.0
C      1  0.5202370000000  0.5566260000000  0.5366470000000 1.0
C      1  0.4827920000000  0.5046330000000  0.4330780000000 1.0
C      1  0.4802550000000  0.5668270000000  0.4710630000000 1.0
C      1  0.4803070000000  0.5398120000000  0.5493220000000 1.0
C      1  0.4791190000000  0.4622480000000  0.5641060000000 1.0
C      1  0.4859400000000  0.4283770000000  0.4700020000000 1.0
C      1  0.5044820000000  0.5013500000000  0.5697460000000 1.0
C      1  0.4977250000000  0.4349040000000  0.5258710000000 1.0
C      1  0.5066310000000  0.4632150000000  0.4446610000000 1.0
C      1  0.4990240000000  0.5405180000000  0.4354930000000 1.0
C      1  0.5009540000000  0.5689120000000  0.5201240000000 1.0
C      1  0.4655230000000  0.5250870000000  0.5224340000000 1.0
C      1  0.4756860000000  0.4703570000000  0.5318830000000 1.0
C      1  0.4676840000000  0.4439640000000  0.4833040000000 1.0
C      1  0.4768740000000  0.5036460000000  0.4675290000000 1.0
C      1  0.4818060000000  0.5188670000000  0.4979240000000 1.0
C      1  0.5468520000000  0.4517350000000  0.4676220000000 1.0
C      1  0.5320670000000  0.5371120000000  0.4282310000000 1.0
C      1  0.5388030000000  0.5521090000000  0.4940410000000 1.0
C      1  0.5410650000000  0.5160640000000  0.5641650000000 1.0
C      1  0.5308260000000  0.4342540000000  0.5367100000000 1.0
C      1  0.5087810000000  0.4532710000000  0.5522710000000 1.0
C      1  0.5156540000000  0.4408590000000  0.4675520000000 1.0
C      1  0.5137500000000  0.5100650000000  0.4289280000000 1.0
C      1  0.5087220000000  0.5672570000000  0.4892580000000 1.0
C      1  0.5118470000000  0.5314990000000  0.5560720000000 1.0
C      1  0.4782860000000  0.4920620000000  0.5661800000000 1.0
C      1  0.4686630000000  0.4427610000000  0.5151710000000 1.0
C      1  0.4786870000000  0.4754960000000  0.4485200000000 1.0
C      1  0.4743380000000  0.5441380000000  0.4551780000000 1.0
C      1  0.4755060000000  0.5629970000000  0.5302260000000 1.0
C      1  0.4481190000000  0.4892240000000  0.5255100000000 1.0
C      1  0.4346690000000  0.4769320000000  0.5048530000000 1.0
C      1  0.4394270000000  0.4931160000000  0.4778730000000 1.0
C      1  0.4301550000000  0.5243080000000  0.4877390000000 1.0
C      1  0.4390580000000  0.5375050000000  0.5104820000000 1.0
C      1  0.5180280000000  0.4731090000000  0.4974590000000 1.0
C      1  0.5044170000000  0.4917080000000  0.4811050000000 1.0
C      1  0.5141340000000  0.5214980000000  0.4877090000000 1.0
C      1  0.5152850000000  0.5080040000000  0.5166930000000 1.0
C      1  0.4998740000000  0.4824860000000  0.5197150000000 1.0
END
