TITL C-1154808-8168-403 -0.000453571838930416 125000 -318.060503857319 0 0 60 (C1) n - 1
REM
REM in /home/nfs/bkarasulu/CARBON/AIRSS/Generating-Clusters/AIREBO/Higher-Symm/Only-C60
REM
REM
REM
REM
REM
REM ./C.cell (28575a23ae977d3b5fae324c64b13b57)
REM
REM compiler GCC version 9.2.1 20190827 (Red Hat 9.2.1-1)
REM options -cpp -mtune=generic -march=x86-64 -g -O0 -fpre-include=/usr/include/finclude/math-vector-fortran.h
REM seed 189902094 -1655884498 -290858856 1177099309 -805449441 -805955593 -650822627 51679823 -247470928 -1844178059 -80332409 2109381520 -2142827102 -1426531693 767342138 -638589699 625882317 1140759956 -1977478792 600574345 -1920436229 1209607042 -597431667 1764434437 -277391359 1186847947 2092256759 -1936215062 -580247801 -400274171 -674900693 61374491 -2145864937
REM
CELL 1.54180   50.00000   50.00000   50.00000   90.00000   90.00000   90.00000
LATT -1
SFAC C  
C      1  0.4862850000000  0.4693520000000  0.5678840000000 1.0
C      1  0.5376800000000  0.4860460000000  0.4529160000000 1.0
C      1  0.5360370000000  0.5451730000000  0.4786490000000 1.0
C      1  0.5299080000000  0.5097330000000  0.5248910000000 1.0
C      1  0.5113980000000  0.4692100000000  0.4981260000000 1.0
C      1  0.5613220000000  0.4684420000000  0.5363120000000 1.0
C      1  0.5380240000000  0.4433000000000  0.4834210000000 1.0
C      1  0.4781540000000  0.5253480000000  0.5575020000000 1.0
C      1  0.4954430000000  0.4987920000000  0.5639890000000 1.0
C      1  0.5438260000000  0.4821850000000  0.5621530000000 1.0
C      1  0.5577320000000  0.5050770000000  0.4680160000000 1.0
C      1  0.4840690000000  0.5636890000000  0.4773290000000 1.0
C      1  0.4540310000000  0.5264940000000  0.5417540000000 1.0
C      1  0.4448420000000  0.5385350000000  0.4831670000000 1.0
C      1  0.5189350000000  0.5013030000000  0.4768350000000 1.0
C      1  0.4938480000000  0.5427090000000  0.5409370000000 1.0
C      1  0.5576490000000  0.4541430000000  0.5668760000000 1.0
C      1  0.4650410000000  0.4366890000000  0.5213870000000 1.0
C      1  0.4149610000000  0.4938050000000  0.5157830000000 1.0
C      1  0.5275200000000  0.5037470000000  0.5643300000000 1.0
C      1  0.5559330000000  0.5285420000000  0.5165600000000 1.0
C      1  0.5015580000000  0.5043630000000  0.5328850000000 1.0
C      1  0.5546770000000  0.5315760000000  0.4625880000000 1.0
C      1  0.4336980000000  0.4702570000000  0.5219300000000 1.0
C      1  0.4858770000000  0.4494410000000  0.4898290000000 1.0
C      1  0.4989400000000  0.5303340000000  0.4249200000000 1.0
C      1  0.5109260000000  0.4280280000000  0.4842150000000 1.0
C      1  0.4707240000000  0.5129060000000  0.4469010000000 1.0
C      1  0.5447030000000  0.4949280000000  0.4980960000000 1.0
C      1  0.5200010000000  0.5530030000000  0.5440410000000 1.0
C      1  0.4574200000000  0.5099400000000  0.4843410000000 1.0
C      1  0.4423750000000  0.5088890000000  0.4473770000000 1.0
C      1  0.4832790000000  0.4715370000000  0.5148980000000 1.0
C      1  0.4569880000000  0.5458210000000  0.5205590000000 1.0
C      1  0.5751080000000  0.5055910000000  0.5107780000000 1.0
C      1  0.4455540000000  0.5001730000000  0.5295100000000 1.0
C      1  0.4341600000000  0.4902400000000  0.4723070000000 1.0
C      1  0.4504810000000  0.4634130000000  0.4768260000000 1.0
C      1  0.5460750000000  0.5519920000000  0.5040630000000 1.0
C      1  0.5257540000000  0.5662920000000  0.5183920000000 1.0
C      1  0.4488460000000  0.4538770000000  0.5048620000000 1.0
C      1  0.5081160000000  0.4462830000000  0.4570390000000 1.0
C      1  0.5358540000000  0.5297710000000  0.5509850000000 1.0
C      1  0.4869510000000  0.4977050000000  0.4726270000000 1.0
C      1  0.4867950000000  0.4524480000000  0.5419140000000 1.0
C      1  0.5425090000000  0.4633380000000  0.5105330000000 1.0
C      1  0.5012740000000  0.5659560000000  0.5020210000000 1.0
C      1  0.4745580000000  0.5042940000000  0.5122220000000 1.0
C      1  0.4839300000000  0.4821970000000  0.4309720000000 1.0
C      1  0.4870780000000  0.5357070000000  0.5083500000000 1.0
C      1  0.4804140000000  0.4666020000000  0.4609880000000 1.0
C      1  0.5153980000000  0.4510170000000  0.5269970000000 1.0
C      1  0.5069290000000  0.5312340000000  0.4810530000000 1.0
C      1  0.4899700000000  0.5397780000000  0.4549340000000 1.0
C      1  0.5848500000000  0.4861120000000  0.5271760000000 1.0
C      1  0.5365470000000  0.4572030000000  0.4568950000000 1.0
C      1  0.4090570000000  0.4955260000000  0.4893470000000 1.0
C      1  0.4560950000000  0.5633470000000  0.4818070000000 1.0
C      1  0.5035480000000  0.5023250000000  0.4215030000000 1.0
C      1  0.5303440000000  0.4942400000000  0.4245030000000 1.0
END
