TITL C-1154823-9327-369 -0.00213249139553859 125000 -357.580655723014 0 0 60 (C1) n - 1
REM
REM in /home/nfs/bkarasulu/CARBON/AIRSS/Generating-Clusters/AIREBO/Higher-Symm/Only-C60
REM
REM
REM
REM
REM
REM ./C.cell (28575a23ae977d3b5fae324c64b13b57)
REM
REM compiler GCC version 9.2.1 20190827 (Red Hat 9.2.1-1)
REM options -cpp -mtune=generic -march=x86-64 -g -O0 -fpre-include=/usr/include/finclude/math-vector-fortran.h
REM seed 1910550432 131602277 821531144 -1856986253 1112196759 2123751040 -1117442238 486530671 -1340901089 -698781952 752610317 1914267166 1302824804 908586342 2009018566 -1607985271 -2099309839 987238801 1316521207 -1414368511 1846624473 1141189233 -1361473009 -284785057 -1479837904 853573168 1267041964 -386939158 1820436059 -144001541 -453776583 431957989 678042645
REM
CELL 1.54180   50.00000   50.00000   50.00000   90.00000   90.00000   90.00000
LATT -1
SFAC C  
C      1  0.5475000000000  0.4422020000000  0.4954660000000 1.0
C      1  0.4533160000000  0.4405250000000  0.5067190000000 1.0
C      1  0.4542550000000  0.5601110000000  0.4918750000000 1.0
C      1  0.5445390000000  0.5612540000000  0.5057720000000 1.0
C      1  0.4917150000000  0.4415820000000  0.5469060000000 1.0
C      1  0.5089760000000  0.4402880000000  0.4543920000000 1.0
C      1  0.4929790000000  0.5588980000000  0.4507100000000 1.0
C      1  0.5085330000000  0.5603780000000  0.5500480000000 1.0
C      1  0.4999080000000  0.4876310000000  0.5370400000000 1.0
C      1  0.4991330000000  0.4862280000000  0.4632340000000 1.0
C      1  0.4894920000000  0.5147810000000  0.5323700000000 1.0
C      1  0.5090790000000  0.5137820000000  0.4664170000000 1.0
C      1  0.5358820000000  0.4878670000000  0.5025220000000 1.0
C      1  0.4632100000000  0.4862890000000  0.4973350000000 1.0
C      1  0.5321970000000  0.5148290000000  0.4911610000000 1.0
C      1  0.4666170000000  0.5137470000000  0.5070690000000 1.0
C      1  0.5504500000000  0.3928660000000  0.5717050000000 1.0
C      1  0.4486100000000  0.3941850000000  0.4273720000000 1.0
C      1  0.4455400000000  0.6020910000000  0.5772000000000 1.0
C      1  0.5579220000000  0.5972130000000  0.4224330000000 1.0
C      1  0.5660840000000  0.3876130000000  0.5500050000000 1.0
C      1  0.4307250000000  0.3897860000000  0.4474960000000 1.0
C      1  0.5747410000000  0.6029560000000  0.4431330000000 1.0
C      1  0.4267440000000  0.5975070000000  0.5579810000000 1.0
C      1  0.5312150000000  0.5922500000000  0.4191260000000 1.0
C      1  0.4707530000000  0.5932700000000  0.5835600000000 1.0
C      1  0.4750940000000  0.4007060000000  0.4252850000000 1.0
C      1  0.5246580000000  0.4011020000000  0.5759380000000 1.0
C      1  0.4245640000000  0.5939320000000  0.5309450000000 1.0
C      1  0.5773280000000  0.5953580000000  0.4692890000000 1.0
C      1  0.4258240000000  0.4002830000000  0.4722700000000 1.0
C      1  0.5728710000000  0.3986520000000  0.5259790000000 1.0
C      1  0.4396950000000  0.4182010000000  0.4876910000000 1.0
C      1  0.5596790000000  0.4151680000000  0.5083400000000 1.0
C      1  0.5611100000000  0.5804070000000  0.4855790000000 1.0
C      1  0.4393340000000  0.5788770000000  0.5135870000000 1.0
C      1  0.4902270000000  0.4183260000000  0.4398570000000 1.0
C      1  0.5100040000000  0.4192320000000  0.5614450000000 1.0
C      1  0.4880010000000  0.5793370000000  0.5672940000000 1.0
C      1  0.5139550000000  0.5777420000000  0.4347520000000 1.0
C      1  0.5107470000000  0.5807300000000  0.4664090000000 1.0
C      1  0.4911800000000  0.5841150000000  0.5361950000000 1.0
C      1  0.4912640000000  0.4199180000000  0.4718080000000 1.0
C      1  0.5094120000000  0.4211290000000  0.5295910000000 1.0
C      1  0.4707880000000  0.5723550000000  0.5188880000000 1.0
C      1  0.5290910000000  0.5817350000000  0.4863740000000 1.0
C      1  0.4716280000000  0.4198680000000  0.4904080000000 1.0
C      1  0.5283970000000  0.4213190000000  0.5105250000000 1.0
C      1  0.5370560000000  0.4657250000000  0.4850330000000 1.0
C      1  0.4627650000000  0.4650370000000  0.5158410000000 1.0
C      1  0.4647930000000  0.5361130000000  0.4825220000000 1.0
C      1  0.5326830000000  0.5378100000000  0.5141950000000 1.0
C      1  0.4822370000000  0.4656470000000  0.5367020000000 1.0
C      1  0.5175200000000  0.4648330000000  0.4642890000000 1.0
C      1  0.4851800000000  0.5358200000000  0.4637540000000 1.0
C      1  0.5139100000000  0.5375760000000  0.5344910000000 1.0
C      1  0.5262760000000  0.4841330000000  0.5284770000000 1.0
C      1  0.5222300000000  0.5436830000000  0.4761800000000 1.0
C      1  0.4728370000000  0.4819390000000  0.4715150000000 1.0
C      1  0.4775510000000  0.5430690000000  0.5195020000000 1.0
END
