TITL C-1154827-9204-283 0.00149869159619266 125000 -334.165026825825 0 0 60 (C1) n - 1
REM
REM in /home/nfs/bkarasulu/CARBON/AIRSS/Generating-Clusters/AIREBO/Higher-Symm/Only-C60
REM
REM
REM
REM
REM
REM ./C.cell (28575a23ae977d3b5fae324c64b13b57)
REM
REM compiler GCC version 9.2.1 20190827 (Red Hat 9.2.1-1)
REM options -cpp -mtune=generic -march=x86-64 -g -O0 -fpre-include=/usr/include/finclude/math-vector-fortran.h
REM seed -1354534748 -1411507324 -1403740165 153533438 1495084376 1385530179 1122154313 -1076273459 -628720376 1361459399 659918594 302549103 -814187837 380606362 -1250553998 2140609816 19482766 -1430589519 785115687 -1740823921 1445376904 143421599 1568108453 -84875613 1521031866 241572970 1175788769 443568655 -766260878 -100151651 564730 990140019 63482349
REM
CELL 1.54180   50.00000   50.00000   50.00000   90.00000   90.00000   90.00000
LATT -1
SFAC C  
C      1  0.4538820000000  0.4754980000000  0.4306090000000 1.0
C      1  0.5538360000000  0.4653940000000  0.5651530000000 1.0
C      1  0.4582340000000  0.5286450000000  0.5608200000000 1.0
C      1  0.5440340000000  0.5296440000000  0.4401660000000 1.0
C      1  0.4325860000000  0.4764670000000  0.4482760000000 1.0
C      1  0.5653560000000  0.4640110000000  0.5377600000000 1.0
C      1  0.5670230000000  0.5282580000000  0.4548430000000 1.0
C      1  0.4351990000000  0.5359290000000  0.5448910000000 1.0
C      1  0.4855030000000  0.4350650000000  0.4657590000000 1.0
C      1  0.5187580000000  0.4378690000000  0.5338020000000 1.0
C      1  0.4863290000000  0.5633380000000  0.5217330000000 1.0
C      1  0.5104110000000  0.5673620000000  0.4704700000000 1.0
C      1  0.4664740000000  0.4338480000000  0.4819300000000 1.0
C      1  0.5341910000000  0.4353340000000  0.5143160000000 1.0
C      1  0.5268190000000  0.5650300000000  0.4893240000000 1.0
C      1  0.4665180000000  0.5612400000000  0.5067930000000 1.0
C      1  0.5287400000000  0.4828950000000  0.4503730000000 1.0
C      1  0.4764970000000  0.4734120000000  0.5579550000000 1.0
C      1  0.5267550000000  0.5332410000000  0.5500670000000 1.0
C      1  0.4664920000000  0.5268550000000  0.4425580000000 1.0
C      1  0.4437010000000  0.4678490000000  0.5256640000000 1.0
C      1  0.5555290000000  0.4775930000000  0.4694280000000 1.0
C      1  0.5655070000000  0.5171380000000  0.5351650000000 1.0
C      1  0.4419840000000  0.5262810000000  0.4661200000000 1.0
C      1  0.4769660000000  0.4656420000000  0.5037220000000 1.0
C      1  0.5235150000000  0.4893930000000  0.5121520000000 1.0
C      1  0.4791920000000  0.5242040000000  0.4988740000000 1.0
C      1  0.5175070000000  0.5187750000000  0.5048510000000 1.0
C      1  0.5041400000000  0.4738240000000  0.4885530000000 1.0
C      1  0.4992120000000  0.4715550000000  0.5253640000000 1.0
C      1  0.5016780000000  0.5195820000000  0.4761560000000 1.0
C      1  0.4929740000000  0.5218640000000  0.5283570000000 1.0
C      1  0.4502140000000  0.5350210000000  0.4964000000000 1.0
C      1  0.5405680000000  0.5402130000000  0.5026490000000 1.0
C      1  0.4467080000000  0.4547920000000  0.4971120000000 1.0
C      1  0.5524240000000  0.4501760000000  0.4897210000000 1.0
C      1  0.4936590000000  0.5434680000000  0.4545110000000 1.0
C      1  0.4997750000000  0.5485210000000  0.5470420000000 1.0
C      1  0.5050100000000  0.4604300000000  0.4597680000000 1.0
C      1  0.5061480000000  0.4617290000000  0.5545070000000 1.0
C      1  0.4849400000000  0.4742050000000  0.4383140000000 1.0
C      1  0.5284120000000  0.4779990000000  0.5665980000000 1.0
C      1  0.4777900000000  0.5461040000000  0.5691580000000 1.0
C      1  0.5153950000000  0.5383220000000  0.4296840000000 1.0
C      1  0.4275430000000  0.4678990000000  0.4783670000000 1.0
C      1  0.5713280000000  0.4499840000000  0.5158350000000 1.0
C      1  0.5634910000000  0.5296630000000  0.4862280000000 1.0
C      1  0.4353230000000  0.5215070000000  0.5197370000000 1.0
C      1  0.4461410000000  0.4957870000000  0.5267470000000 1.0
C      1  0.5723810000000  0.5013750000000  0.4728010000000 1.0
C      1  0.4345120000000  0.4980990000000  0.4717830000000 1.0
C      1  0.5478810000000  0.4897880000000  0.5337500000000 1.0
C      1  0.5196020000000  0.5107690000000  0.4507250000000 1.0
C      1  0.4717490000000  0.5028870000000  0.5464210000000 1.0
C      1  0.4717170000000  0.5018450000000  0.4286810000000 1.0
C      1  0.5290840000000  0.5063190000000  0.5567810000000 1.0
C      1  0.5373910000000  0.4500500000000  0.4601040000000 1.0
C      1  0.4556980000000  0.4570580000000  0.5491410000000 1.0
C      1  0.5481150000000  0.5389680000000  0.5323080000000 1.0
C      1  0.4614650000000  0.5539880000000  0.4631200000000 1.0
END
