TITL C-1154801-8518-219 0.000131174835977636 125000 -321.066357819295 0 0 60 (C1) n - 1
REM
REM in /home/nfs/bkarasulu/CARBON/AIRSS/Generating-Clusters/AIREBO/Higher-Symm/Only-C60
REM
REM
REM
REM
REM
REM ./C.cell (28575a23ae977d3b5fae324c64b13b57)
REM
REM compiler GCC version 9.2.1 20190827 (Red Hat 9.2.1-1)
REM options -cpp -mtune=generic -march=x86-64 -g -O0 -fpre-include=/usr/include/finclude/math-vector-fortran.h
REM seed -486214484 -1669741585 590633247 618341842 459409046 -1405210830 2052299945 -436131670 942385216 1991272418 1654684295 383005350 -222190114 1555121843 -991923088 -144854381 1937939324 -855457374 2248951 -1455675617 350826705 -183180735 -1377219753 142918357 -158594052 1861022746 -1178970003 2057013025 1117882737 -217295196 1992000525 -1414464885 328400247
REM
CELL 1.54180   50.00000   50.00000   50.00000   90.00000   90.00000   90.00000
LATT -1
SFAC C  
C      1  0.5584120000000  0.4749540000000  0.5381150000000 1.0
C      1  0.5032180000000  0.4748250000000  0.4309160000000 1.0
C      1  0.4381690000000  0.4747770000000  0.5326410000000 1.0
C      1  0.4929370000000  0.5036700000000  0.4156370000000 1.0
C      1  0.4313230000000  0.5036180000000  0.5496490000000 1.0
C      1  0.5754160000000  0.5045960000000  0.5349570000000 1.0
C      1  0.5017240000000  0.5669540000000  0.4684970000000 1.0
C      1  0.4728630000000  0.5699900000000  0.5148120000000 1.0
C      1  0.5283010000000  0.5703250000000  0.5205740000000 1.0
C      1  0.5503300000000  0.5230050000000  0.5485060000000 1.0
C      1  0.5169740000000  0.5216510000000  0.4316020000000 1.0
C      1  0.4321870000000  0.5203860000000  0.5203490000000 1.0
C      1  0.5704650000000  0.4917960000000  0.5043940000000 1.0
C      1  0.4679210000000  0.4924210000000  0.4354160000000 1.0
C      1  0.4613110000000  0.4916170000000  0.5602740000000 1.0
C      1  0.5559610000000  0.5126370000000  0.4597950000000 1.0
C      1  0.4345030000000  0.5123440000000  0.4714850000000 1.0
C      1  0.5077920000000  0.5137430000000  0.5712680000000 1.0
C      1  0.4554030000000  0.5276260000000  0.5458160000000 1.0
C      1  0.5581650000000  0.5276920000000  0.5155970000000 1.0
C      1  0.4836980000000  0.5286820000000  0.4372790000000 1.0
C      1  0.5363480000000  0.4546300000000  0.4615730000000 1.0
C      1  0.4500070000000  0.4553550000000  0.4899070000000 1.0
C      1  0.5141030000000  0.4565710000000  0.5488600000000 1.0
C      1  0.5386200000000  0.5033160000000  0.4413780000000 1.0
C      1  0.4296930000000  0.5024830000000  0.4963100000000 1.0
C      1  0.5316160000000  0.5042290000000  0.5629390000000 1.0
C      1  0.4361270000000  0.4759680000000  0.5041210000000 1.0
C      1  0.5344100000000  0.4771510000000  0.5536370000000 1.0
C      1  0.5292710000000  0.4762330000000  0.4429810000000 1.0
C      1  0.4560850000000  0.4318990000000  0.5042320000000 1.0
C      1  0.5226800000000  0.4320980000000  0.5380530000000 1.0
C      1  0.5204940000000  0.4312130000000  0.4600270000000 1.0
C      1  0.4881770000000  0.4649320000000  0.5284870000000 1.0
C      1  0.5329070000000  0.4609720000000  0.4948160000000 1.0
C      1  0.4797930000000  0.4625420000000  0.4751510000000 1.0
C      1  0.5486710000000  0.5105080000000  0.4897560000000 1.0
C      1  0.4629100000000  0.5141610000000  0.4585520000000 1.0
C      1  0.4848510000000  0.5125690000000  0.5510610000000 1.0
C      1  0.5272220000000  0.5691180000000  0.4909090000000 1.0
C      1  0.4755140000000  0.5789910000000  0.4848530000000 1.0
C      1  0.5023900000000  0.5690340000000  0.5312150000000 1.0
C      1  0.5067960000000  0.5522060000000  0.4425260000000 1.0
C      1  0.4540000000000  0.5445530000000  0.5179960000000 1.0
C      1  0.5466390000000  0.5531510000000  0.5332000000000 1.0
C      1  0.4635970000000  0.4656310000000  0.5463620000000 1.0
C      1  0.5602860000000  0.4641110000000  0.5088140000000 1.0
C      1  0.4772840000000  0.4656380000000  0.4447080000000 1.0
C      1  0.5094850000000  0.4788790000000  0.4779910000000 1.0
C      1  0.4785230000000  0.4836600000000  0.5017740000000 1.0
C      1  0.5162490000000  0.4804370000000  0.5171900000000 1.0
C      1  0.4965400000000  0.4335020000000  0.4808590000000 1.0
C      1  0.4862490000000  0.4349290000000  0.5133010000000 1.0
C      1  0.5193510000000  0.4323630000000  0.5060480000000 1.0
C      1  0.4799600000000  0.5455270000000  0.4839730000000 1.0
C      1  0.4878950000000  0.5404680000000  0.5227280000000 1.0
C      1  0.5218900000000  0.5406330000000  0.4901860000000 1.0
C      1  0.5003270000000  0.5105690000000  0.5208260000000 1.0
C      1  0.5146850000000  0.5092000000000  0.4900160000000 1.0
C      1  0.4812800000000  0.5132560000000  0.4851070000000 1.0
END
