TITL C-1154830-9999-313 0.0010327581136902 125000 -301.700320389861 0 0 60 (C1) n - 1
REM
REM in /home/nfs/bkarasulu/CARBON/AIRSS/Generating-Clusters/AIREBO/Higher-Symm/Only-C60
REM
REM
REM
REM
REM
REM ./C.cell (28575a23ae977d3b5fae324c64b13b57)
REM
REM compiler GCC version 9.2.1 20190827 (Red Hat 9.2.1-1)
REM options -cpp -mtune=generic -march=x86-64 -g -O0 -fpre-include=/usr/include/finclude/math-vector-fortran.h
REM seed 1110922457 -2016939128 531862203 644880228 -114706704 -1785061488 920894786 446409577 171963098 -736699343 2047548847 -1158015491 -1965761328 -442343848 1885301043 1433341414 -321372500 -26206168 556731746 246539700 -2055132535 -450531137 853290796 -1070265022 -1336379131 -963637970 160373652 1168161190 875932151 -499623958 547726083 193160417 1026456135
REM
CELL 1.54180   50.00000   50.00000   50.00000   90.00000   90.00000   90.00000
LATT -1
SFAC C  
C      1  0.4415200000000  0.5047740000000  0.4310950000000 1.0
C      1  0.4382620000000  0.5157560000000  0.5515300000000 1.0
C      1  0.5236350000000  0.5116900000000  0.5732770000000 1.0
C      1  0.5717560000000  0.5112000000000  0.4947130000000 1.0
C      1  0.5271560000000  0.5062630000000  0.4225630000000 1.0
C      1  0.4385940000000  0.4818450000000  0.4458320000000 1.0
C      1  0.4349210000000  0.4910390000000  0.5403610000000 1.0
C      1  0.5200090000000  0.4867640000000  0.5744380000000 1.0
C      1  0.5749900000000  0.4873510000000  0.5023190000000 1.0
C      1  0.5279410000000  0.4810700000000  0.4242940000000 1.0
C      1  0.5409710000000  0.5136590000000  0.4693290000000 1.0
C      1  0.4891740000000  0.5143220000000  0.4501730000000 1.0
C      1  0.4669050000000  0.5089300000000  0.4906850000000 1.0
C      1  0.4866580000000  0.5188780000000  0.5435480000000 1.0
C      1  0.5367880000000  0.5145720000000  0.5267490000000 1.0
C      1  0.5414230000000  0.4794910000000  0.4714270000000 1.0
C      1  0.4886330000000  0.4800090000000  0.4509020000000 1.0
C      1  0.4526780000000  0.4802480000000  0.4925260000000 1.0
C      1  0.4820610000000  0.4849590000000  0.5430550000000 1.0
C      1  0.5378100000000  0.4807530000000  0.5301860000000 1.0
C      1  0.5165060000000  0.5268440000000  0.5465920000000 1.0
C      1  0.5435550000000  0.5268540000000  0.4988400000000 1.0
C      1  0.5198730000000  0.5224000000000  0.4483130000000 1.0
C      1  0.4765870000000  0.5291210000000  0.4728050000000 1.0
C      1  0.4589300000000  0.5357530000000  0.5333850000000 1.0
C      1  0.5111830000000  0.4682600000000  0.5473140000000 1.0
C      1  0.5487370000000  0.4660420000000  0.5015540000000 1.0
C      1  0.5186680000000  0.4641180000000  0.4522720000000 1.0
C      1  0.4613150000000  0.4649560000000  0.4646640000000 1.0
C      1  0.4573270000000  0.4704290000000  0.5247500000000 1.0
C      1  0.5678040000000  0.4417410000000  0.5029690000000 1.0
C      1  0.5280500000000  0.4378500000000  0.4379150000000 1.0
C      1  0.4520360000000  0.4383620000000  0.4509220000000 1.0
C      1  0.4400260000000  0.4460030000000  0.5344090000000 1.0
C      1  0.5101680000000  0.4431740000000  0.5661630000000 1.0
C      1  0.5395160000000  0.5572670000000  0.4987070000000 1.0
C      1  0.5053790000000  0.5504770000000  0.4550990000000 1.0
C      1  0.4557160000000  0.5559630000000  0.4731190000000 1.0
C      1  0.4588600000000  0.5640340000000  0.5522690000000 1.0
C      1  0.5187720000000  0.5576180000000  0.5488120000000 1.0
C      1  0.4260630000000  0.4910010000000  0.5107510000000 1.0
C      1  0.4686850000000  0.4961480000000  0.5709310000000 1.0
C      1  0.5654680000000  0.4812570000000  0.5507730000000 1.0
C      1  0.5694620000000  0.4886370000000  0.4569940000000 1.0
C      1  0.4862290000000  0.4898500000000  0.4189200000000 1.0
C      1  0.4461880000000  0.5151520000000  0.5105180000000 1.0
C      1  0.4707830000000  0.5236380000000  0.5732440000000 1.0
C      1  0.5651270000000  0.5073720000000  0.5417230000000 1.0
C      1  0.5710580000000  0.5160490000000  0.4536640000000 1.0
C      1  0.4676950000000  0.5125970000000  0.4245850000000 1.0
C      1  0.5227930000000  0.4469680000000  0.5009980000000 1.0
C      1  0.5081470000000  0.4458620000000  0.4772610000000 1.0
C      1  0.4809580000000  0.4466360000000  0.4839150000000 1.0
C      1  0.4788740000000  0.4484670000000  0.5120410000000 1.0
C      1  0.5048630000000  0.4484770000000  0.5223060000000 1.0
C      1  0.5051450000000  0.5720470000000  0.5287730000000 1.0
C      1  0.5147420000000  0.5673530000000  0.5027020000000 1.0
C      1  0.4933610000000  0.5562400000000  0.4846190000000 1.0
C      1  0.4663790000000  0.5542560000000  0.5053610000000 1.0
C      1  0.4770900000000  0.5711520000000  0.5300430000000 1.0
END
