TITL C-1154827-9204-71 -0.000472419346187948 125000 -361.099125819219 0 0 60 (C1) n - 1
REM
REM in /home/nfs/bkarasulu/CARBON/AIRSS/Generating-Clusters/AIREBO/Higher-Symm/Only-C60
REM
REM
REM
REM
REM
REM ./C.cell (28575a23ae977d3b5fae324c64b13b57)
REM
REM compiler GCC version 9.2.1 20190827 (Red Hat 9.2.1-1)
REM options -cpp -mtune=generic -march=x86-64 -g -O0 -fpre-include=/usr/include/finclude/math-vector-fortran.h
REM seed 680020877 -1507983297 1691777464 893780483 -2041960488 1467282651 -2042711893 243778826 -532931952 310733900 855539805 -2014638045 988088368 733485377 981933685 -2016087310 800322105 -620474973 -635305345 -318867766 -1930462914 624551957 297961929 -294180459 871090532 -579321074 839078291 -1160184217 -799710393 -2106299742 -1904545028 1556936175 832231525
REM
CELL 1.54180   50.00000   50.00000   50.00000   90.00000   90.00000   90.00000
LATT -1
SFAC C  
C      1  0.5254550000000  0.5138150000000  0.5577780000000 1.0
C      1  0.5283820000000  0.4479330000000  0.5356540000000 1.0
C      1  0.5258240000000  0.4545190000000  0.4613940000000 1.0
C      1  0.5278780000000  0.5215410000000  0.4440390000000 1.0
C      1  0.5297600000000  0.5626960000000  0.4998770000000 1.0
C      1  0.4698720000000  0.4810340000000  0.5667050000000 1.0
C      1  0.4742220000000  0.5506440000000  0.5280420000000 1.0
C      1  0.4711840000000  0.5475930000000  0.4588350000000 1.0
C      1  0.4701550000000  0.4774260000000  0.4366870000000 1.0
C      1  0.4735360000000  0.4420170000000  0.5071210000000 1.0
C      1  0.5036620000000  0.4478850000000  0.5487160000000 1.0
C      1  0.5000990000000  0.4431420000000  0.4673190000000 1.0
C      1  0.5030000000000  0.5135610000000  0.4349290000000 1.0
C      1  0.5042190000000  0.5671920000000  0.4899410000000 1.0
C      1  0.5001920000000  0.5265210000000  0.5585220000000 1.0
C      1  0.4991010000000  0.5493190000000  0.5419450000000 1.0
C      1  0.4959600000000  0.5613190000000  0.4612420000000 1.0
C      1  0.4962570000000  0.4849860000000  0.4283160000000 1.0
C      1  0.4983140000000  0.4344890000000  0.4947740000000 1.0
C      1  0.4960640000000  0.4695920000000  0.5686350000000 1.0
C      1  0.5253090000000  0.5457840000000  0.4636270000000 1.0
C      1  0.5293440000000  0.5537310000000  0.5301010000000 1.0
C      1  0.5216990000000  0.4834790000000  0.5526890000000 1.0
C      1  0.5253580000000  0.4456500000000  0.5062070000000 1.0
C      1  0.5240130000000  0.4818750000000  0.4470940000000 1.0
C      1  0.4724120000000  0.4576630000000  0.4614370000000 1.0
C      1  0.4765030000000  0.4564560000000  0.5336160000000 1.0
C      1  0.4738590000000  0.5105430000000  0.5538960000000 1.0
C      1  0.4776620000000  0.5513150000000  0.4981760000000 1.0
C      1  0.4766050000000  0.5150600000000  0.4531850000000 1.0
C      1  0.5490600000000  0.4693240000000  0.5413630000000 1.0
C      1  0.5469390000000  0.4540410000000  0.4832040000000 1.0
C      1  0.5512140000000  0.5020730000000  0.4501480000000 1.0
C      1  0.5516050000000  0.5477560000000  0.4850910000000 1.0
C      1  0.5461100000000  0.5268150000000  0.5412850000000 1.0
C      1  0.4558160000000  0.5295990000000  0.5363880000000 1.0
C      1  0.4487680000000  0.5471520000000  0.4810830000000 1.0
C      1  0.4476130000000  0.4979760000000  0.4482930000000 1.0
C      1  0.4560700000000  0.4553770000000  0.4888100000000 1.0
C      1  0.4472410000000  0.4693520000000  0.5452770000000 1.0
C      1  0.5157850000000  0.4956470000000  0.5235520000000 1.0
C      1  0.5172900000000  0.4754540000000  0.4989000000000 1.0
C      1  0.5217930000000  0.4957310000000  0.4762510000000 1.0
C      1  0.5220770000000  0.5209040000000  0.4835750000000 1.0
C      1  0.5176660000000  0.5272790000000  0.5135420000000 1.0
C      1  0.4769690000000  0.4890180000000  0.5285780000000 1.0
C      1  0.4889180000000  0.5158260000000  0.5151580000000 1.0
C      1  0.4768830000000  0.5197020000000  0.4868770000000 1.0
C      1  0.4761360000000  0.4880500000000  0.4744810000000 1.0
C      1  0.4877030000000  0.4787690000000  0.5007200000000 1.0
C      1  0.4359670000000  0.4750330000000  0.4942160000000 1.0
C      1  0.4343230000000  0.4981020000000  0.4749260000000 1.0
C      1  0.4346100000000  0.5234160000000  0.4908640000000 1.0
C      1  0.4358340000000  0.5160610000000  0.5204560000000 1.0
C      1  0.4350460000000  0.4857920000000  0.5228270000000 1.0
C      1  0.5660460000000  0.5239870000000  0.4933280000000 1.0
C      1  0.5669730000000  0.4999310000000  0.4748310000000 1.0
C      1  0.5653000000000  0.4750060000000  0.4920970000000 1.0
C      1  0.5642110000000  0.4839470000000  0.5213150000000 1.0
C      1  0.5641340000000  0.5140990000000  0.5220620000000 1.0
END
