TITL C-1154803-8277-441 0.000282756321439246 125000 -320.530293088854 0 0 60 (C1) n - 1
REM
REM in /home/nfs/bkarasulu/CARBON/AIRSS/Generating-Clusters/AIREBO/Higher-Symm/Only-C60
REM
REM
REM
REM
REM
REM ./C.cell (28575a23ae977d3b5fae324c64b13b57)
REM
REM compiler GCC version 9.2.1 20190827 (Red Hat 9.2.1-1)
REM options -cpp -mtune=generic -march=x86-64 -g -O0 -fpre-include=/usr/include/finclude/math-vector-fortran.h
REM seed 707460299 652124077 -96100709 1274401115 1216898369 1090309288 2066266272 1675777110 -2052744530 -859745075 1710586285 1846840105 474520865 108488770 1857632049 2103099898 968577164 749541187 -1729065295 155533378 859167737 -1985330276 1407959367 256297811 -1363976805 -156421191 -2013084243 -1213600175 1497680650 539595923 2069601423 -147107772 615870285
REM
CELL 1.54180   50.00000   50.00000   50.00000   90.00000   90.00000   90.00000
LATT -1
SFAC C  
C      1  0.5004360000000  0.5388130000000  0.4776760000000 1.0
C      1  0.4835180000000  0.5348990000000  0.5069120000000 1.0
C      1  0.5129700000000  0.5470330000000  0.5188190000000 1.0
C      1  0.4784160000000  0.4520490000000  0.4929270000000 1.0
C      1  0.5094250000000  0.4594220000000  0.5233510000000 1.0
C      1  0.5122170000000  0.4541050000000  0.4898760000000 1.0
C      1  0.4678090000000  0.5591050000000  0.4889040000000 1.0
C      1  0.5017540000000  0.5643130000000  0.5422290000000 1.0
C      1  0.5244450000000  0.5594150000000  0.4770140000000 1.0
C      1  0.5445050000000  0.5410140000000  0.5232830000000 1.0
C      1  0.4975640000000  0.5368420000000  0.4459120000000 1.0
C      1  0.4571050000000  0.5419100000000  0.5271540000000 1.0
C      1  0.5279420000000  0.4797050000000  0.5642280000000 1.0
C      1  0.5719850000000  0.4725650000000  0.4584050000000 1.0
C      1  0.4367140000000  0.4800500000000  0.4892060000000 1.0
C      1  0.4973850000000  0.4791220000000  0.4418230000000 1.0
C      1  0.4549300000000  0.4829000000000  0.5401890000000 1.0
C      1  0.5580350000000  0.4839170000000  0.5157010000000 1.0
C      1  0.5084110000000  0.4823860000000  0.4712420000000 1.0
C      1  0.4711610000000  0.4775550000000  0.5108720000000 1.0
C      1  0.5268150000000  0.4863120000000  0.5158100000000 1.0
C      1  0.5439240000000  0.5227080000000  0.4524550000000 1.0
C      1  0.4363700000000  0.5271360000000  0.4753100000000 1.0
C      1  0.5094940000000  0.5252160000000  0.5675450000000 1.0
C      1  0.5521170000000  0.4940030000000  0.5463250000000 1.0
C      1  0.5110890000000  0.4967980000000  0.4243550000000 1.0
C      1  0.4350470000000  0.4930420000000  0.5183410000000 1.0
C      1  0.5606090000000  0.4516790000000  0.4734690000000 1.0
C      1  0.4445500000000  0.4722570000000  0.4569780000000 1.0
C      1  0.4962550000000  0.4688620000000  0.5599210000000 1.0
C      1  0.4838880000000  0.5057920000000  0.5249600000000 1.0
C      1  0.5188540000000  0.5163390000000  0.5054130000000 1.0
C      1  0.4864840000000  0.5083810000000  0.4717200000000 1.0
C      1  0.4380580000000  0.5033520000000  0.4567820000000 1.0
C      1  0.4939540000000  0.4975330000000  0.5765720000000 1.0
C      1  0.5613330000000  0.4992490000000  0.4669870000000 1.0
C      1  0.4646530000000  0.5147190000000  0.4500160000000 1.0
C      1  0.4700470000000  0.5062960000000  0.5560120000000 1.0
C      1  0.5668540000000  0.5070310000000  0.4968830000000 1.0
C      1  0.4629490000000  0.5018030000000  0.4911750000000 1.0
C      1  0.5130240000000  0.5005110000000  0.5416710000000 1.0
C      1  0.5295400000000  0.5045700000000  0.4778120000000 1.0
C      1  0.5372320000000  0.5235640000000  0.5479170000000 1.0
C      1  0.5182690000000  0.5222510000000  0.4348830000000 1.0
C      1  0.4414800000000  0.5228240000000  0.5066870000000 1.0
C      1  0.5581750000000  0.5339310000000  0.5000230000000 1.0
C      1  0.4684510000000  0.5440790000000  0.4403880000000 1.0
C      1  0.4652990000000  0.5366200000000  0.5540190000000 1.0
C      1  0.5387350000000  0.4396710000000  0.5055700000000 1.0
C      1  0.4707520000000  0.4425680000000  0.4612280000000 1.0
C      1  0.4825980000000  0.4426540000000  0.5332770000000 1.0
C      1  0.4736180000000  0.4650390000000  0.4412590000000 1.0
C      1  0.4671190000000  0.4580840000000  0.5543460000000 1.0
C      1  0.5628810000000  0.4558350000000  0.5034550000000 1.0
C      1  0.5216990000000  0.4481330000000  0.5529830000000 1.0
C      1  0.5338040000000  0.4426880000000  0.4662000000000 1.0
C      1  0.4458440000000  0.4493310000000  0.4820660000000 1.0
C      1  0.4527090000000  0.5490260000000  0.4666930000000 1.0
C      1  0.4905340000000  0.5477770000000  0.5612800000000 1.0
C      1  0.5481670000000  0.5452190000000  0.4754920000000 1.0
END
