TITL C-1154826-9507-634 -0.000395690845088234 125000 -343.324527786834 0 0 60 (C1) n - 1
REM
REM in /home/nfs/bkarasulu/CARBON/AIRSS/Generating-Clusters/AIREBO/Higher-Symm/Only-C60
REM
REM
REM
REM
REM
REM ./C.cell (28575a23ae977d3b5fae324c64b13b57)
REM
REM compiler GCC version 9.2.1 20190827 (Red Hat 9.2.1-1)
REM options -cpp -mtune=generic -march=x86-64 -g -O0 -fpre-include=/usr/include/finclude/math-vector-fortran.h
REM seed -2145051145 428025437 -1406968737 -1243267449 852693187 -225865744 1547124936 -97746582 -67956482 2131396035 713122081 -216872227 1722982722 689846930 -189905831 -473611411 1726267425 327326229 -1265109118 -188804823 1719036186 -286448684 -326194 -1045977296 1048558375 805484048 509955841 647491603 -1407675704 -417767272 -1776072116 587331087 6878735
REM
CELL 1.54180   50.00000   50.00000   50.00000   90.00000   90.00000   90.00000
LATT -1
SFAC C  
C      1  0.5437270000000  0.5285080000000  0.5155370000000 1.0
C      1  0.5224860000000  0.4475850000000  0.5111940000000 1.0
C      1  0.4498990000000  0.4869260000000  0.5106190000000 1.0
C      1  0.4835010000000  0.5429170000000  0.5151370000000 1.0
C      1  0.4583230000000  0.5200030000000  0.5101500000000 1.0
C      1  0.4887010000000  0.4433510000000  0.5130120000000 1.0
C      1  0.5453370000000  0.4695910000000  0.5165920000000 1.0
C      1  0.5169350000000  0.5485480000000  0.5123780000000 1.0
C      1  0.5434790000000  0.5124590000000  0.4904170000000 1.0
C      1  0.5111170000000  0.4529240000000  0.4818540000000 1.0
C      1  0.4447950000000  0.4817280000000  0.4783370000000 1.0
C      1  0.4762000000000  0.5586340000000  0.4855560000000 1.0
C      1  0.4555110000000  0.5119500000000  0.4802950000000 1.0
C      1  0.4791500000000  0.4465320000000  0.4821900000000 1.0
C      1  0.5519770000000  0.4837450000000  0.4912290000000 1.0
C      1  0.5057470000000  0.5477950000000  0.4823080000000 1.0
C      1  0.4461710000000  0.4641600000000  0.5356300000000 1.0
C      1  0.4687700000000  0.5631130000000  0.5381940000000 1.0
C      1  0.5622540000000  0.5452760000000  0.5393280000000 1.0
C      1  0.5353310000000  0.4391950000000  0.5403380000000 1.0
C      1  0.5622910000000  0.4563330000000  0.5429400000000 1.0
C      1  0.5347630000000  0.5607940000000  0.5368680000000 1.0
C      1  0.4502480000000  0.5377920000000  0.5366790000000 1.0
C      1  0.4667590000000  0.4449510000000  0.5382620000000 1.0
C      1  0.4312290000000  0.4851530000000  0.5520080000000 1.0
C      1  0.4881790000000  0.5764910000000  0.5547030000000 1.0
C      1  0.5661530000000  0.5132560000000  0.5456850000000 1.0
C      1  0.5119020000000  0.4429210000000  0.5607790000000 1.0
C      1  0.5718270000000  0.4848360000000  0.5528000000000 1.0
C      1  0.5146030000000  0.5646880000000  0.5591030000000 1.0
C      1  0.4437710000000  0.5111670000000  0.5544220000000 1.0
C      1  0.4841480000000  0.4336550000000  0.5598260000000 1.0
C      1  0.4572130000000  0.5563190000000  0.4662660000000 1.0
C      1  0.5497950000000  0.5288140000000  0.4644130000000 1.0
C      1  0.5277860000000  0.4500350000000  0.4545110000000 1.0
C      1  0.4488330000000  0.4690690000000  0.4503240000000 1.0
C      1  0.5263850000000  0.5479350000000  0.4584950000000 1.0
C      1  0.4501180000000  0.5302990000000  0.4558510000000 1.0
C      1  0.4683260000000  0.4464930000000  0.4528270000000 1.0
C      1  0.5495960000000  0.4705150000000  0.4662160000000 1.0
C      1  0.4728150000000  0.5072400000000  0.5489440000000 1.0
C      1  0.5123760000000  0.5349310000000  0.5574480000000 1.0
C      1  0.5367240000000  0.4866590000000  0.5447240000000 1.0
C      1  0.4950750000000  0.4712160000000  0.5281780000000 1.0
C      1  0.5333520000000  0.5186350000000  0.5456260000000 1.0
C      1  0.4884040000000  0.5291830000000  0.5458550000000 1.0
C      1  0.4761700000000  0.4893450000000  0.5283360000000 1.0
C      1  0.5124800000000  0.4705190000000  0.5494500000000 1.0
C      1  0.4836950000000  0.4644320000000  0.4318050000000 1.0
C      1  0.4611590000000  0.5163910000000  0.4323630000000 1.0
C      1  0.5153530000000  0.5351590000000  0.4322890000000 1.0
C      1  0.5316390000000  0.4877500000000  0.4428160000000 1.0
C      1  0.5115940000000  0.4629990000000  0.4315600000000 1.0
C      1  0.5390400000000  0.5159810000000  0.4385520000000 1.0
C      1  0.4899610000000  0.5248320000000  0.4348440000000 1.0
C      1  0.4592230000000  0.4878830000000  0.4283840000000 1.0
C      1  0.5119870000000  0.4836890000000  0.4689520000000 1.0
C      1  0.4845960000000  0.5119450000000  0.4643370000000 1.0
C      1  0.5124010000000  0.5148990000000  0.4818020000000 1.0
C      1  0.4786270000000  0.4798560000000  0.4754490000000 1.0
END
