TITL C-1154821-8623-103 -0.623439211151267 125000 -319.921395198662 0 0 60 (S4) n - 1
REM
REM in /home/nfs/bkarasulu/CARBON/AIRSS/Generating-Clusters/AIREBO/Higher-Symm/Only-C60
REM
REM
REM
REM
REM
REM ./C.cell (28575a23ae977d3b5fae324c64b13b57)
REM
REM compiler GCC version 9.2.1 20190827 (Red Hat 9.2.1-1)
REM options -cpp -mtune=generic -march=x86-64 -g -O0 -fpre-include=/usr/include/finclude/math-vector-fortran.h
REM seed 615392552 -799889406 -2101422763 -1023692379 1064281428 -601165387 735398353 -1839525732 597565282 748927837 817621427 827574965 -1773316228 -599975575 677453162 1131665243 -1821708882 -1135217613 2142817596 217582952 -420083807 -627365988 627919139 -1097511701 429497332 -1666399177 437790315 544774099 -1193648316 -1992826048 -956658188 -790321123 -1249719635
REM
CELL 1.54180   50.00000   50.00000   50.00000   90.00000   90.00000   90.00000
LATT -1
SFAC C  
C      1  0.4438880000000  0.4642250000000  0.5263770000000 1.0
C      1  0.4673650000000  0.5423440000000  0.5398730000000 1.0
C      1  0.4909180000000  0.4618590000000  0.5585060000000 1.0
C      1  0.5263660000000  0.5357630000000  0.5561260000000 1.0
C      1  0.5398870000000  0.4576570000000  0.5326190000000 1.0
C      1  0.5584930000000  0.5381560000000  0.5090960000000 1.0
C      1  0.5561370000000  0.4642650000000  0.4736210000000 1.0
C      1  0.5326050000000  0.5423690000000  0.4601290000000 1.0
C      1  0.5091090000000  0.4618690000000  0.4414920000000 1.0
C      1  0.4736090000000  0.5357470000000  0.4438760000000 1.0
C      1  0.4601430000000  0.4576310000000  0.4673790000000 1.0
C      1  0.4414800000000  0.5381160000000  0.4909060000000 1.0
C      1  0.4545240000000  0.5462880000000  0.4607240000000 1.0
C      1  0.4434480000000  0.4720290000000  0.4932820000000 1.0
C      1  0.4478380000000  0.5289010000000  0.5230220000000 1.0
C      1  0.4607380000000  0.4536820000000  0.5454580000000 1.0
C      1  0.4932730000000  0.5279470000000  0.5565620000000 1.0
C      1  0.5230320000000  0.4710860000000  0.5521510000000 1.0
C      1  0.5454430000000  0.5463180000000  0.5392790000000 1.0
C      1  0.5565710000000  0.4720680000000  0.5067170000000 1.0
C      1  0.5521420000000  0.5289390000000  0.4769790000000 1.0
C      1  0.5392940000000  0.4537120000000  0.4545390000000 1.0
C      1  0.5067080000000  0.5279550000000  0.4434390000000 1.0
C      1  0.4769880000000  0.4710730000000  0.4478470000000 1.0
C      1  0.5261180000000  0.4344570000000  0.4912270000000 1.0
C      1  0.5214140000000  0.5639100000000  0.4759430000000 1.0
C      1  0.5037510000000  0.4463190000000  0.4711920000000 1.0
C      1  0.4912060000000  0.5655500000000  0.4739060000000 1.0
C      1  0.4759640000000  0.4360910000000  0.4785620000000 1.0
C      1  0.4711750000000  0.5536730000000  0.4962700000000 1.0
C      1  0.4739270000000  0.4344390000000  0.5087690000000 1.0
C      1  0.4785410000000  0.5638930000000  0.5240600000000 1.0
C      1  0.4962870000000  0.4463150000000  0.5288050000000 1.0
C      1  0.5087480000000  0.5655540000000  0.5260970000000 1.0
C      1  0.5240810000000  0.4361060000000  0.5214350000000 1.0
C      1  0.5287880000000  0.5536930000000  0.5037330000000 1.0
C      1  0.4614270000000  0.5046100000000  0.5515810000000 1.0
C      1  0.4923980000000  0.4946230000000  0.5616150000000 1.0
C      1  0.5252090000000  0.5038220000000  0.5576270000000 1.0
C      1  0.5515830000000  0.4953920000000  0.5385710000000 1.0
C      1  0.5616130000000  0.5053940000000  0.5076040000000 1.0
C      1  0.5576280000000  0.4962060000000  0.4747900000000 1.0
C      1  0.5385700000000  0.5046390000000  0.4484190000000 1.0
C      1  0.5076050000000  0.4946320000000  0.4383850000000 1.0
C      1  0.4747880000000  0.5038080000000  0.4423730000000 1.0
C      1  0.4484210000000  0.4953590000000  0.4614280000000 1.0
C      1  0.4383830000000  0.5053510000000  0.4923970000000 1.0
C      1  0.4423740000000  0.4961640000000  0.5252100000000 1.0
C      1  0.4809330000000  0.5066840000000  0.5252660000000 1.0
C      1  0.4966090000000  0.4798980000000  0.5234750000000 1.0
C      1  0.5026000000000  0.5320680000000  0.5243400000000 1.0
C      1  0.5252680000000  0.4933170000000  0.5190650000000 1.0
C      1  0.5234680000000  0.5201080000000  0.5033990000000 1.0
C      1  0.5243510000000  0.4679410000000  0.4973880000000 1.0
C      1  0.5190630000000  0.5066990000000  0.4747340000000 1.0
C      1  0.5034050000000  0.4799020000000  0.4765240000000 1.0
C      1  0.4973780000000  0.5320670000000  0.4756610000000 1.0
C      1  0.4747370000000  0.4933000000000  0.4809350000000 1.0
C      1  0.4765180000000  0.5200920000000  0.4966020000000 1.0
C      1  0.4756720000000  0.4679240000000  0.5026100000000 1.0
END
