TITL C-1154803-8277-228 -0.000909323044996282 125000 -328.738749385881 0 0 60 (C1) n - 1
REM
REM in /home/nfs/bkarasulu/CARBON/AIRSS/Generating-Clusters/AIREBO/Higher-Symm/Only-C60
REM
REM
REM
REM
REM
REM ./C.cell (28575a23ae977d3b5fae324c64b13b57)
REM
REM compiler GCC version 9.2.1 20190827 (Red Hat 9.2.1-1)
REM options -cpp -mtune=generic -march=x86-64 -g -O0 -fpre-include=/usr/include/finclude/math-vector-fortran.h
REM seed -1431659898 -1126512693 1902741153 254336802 424866293 -17392492 1645352465 915235993 1169150812 1253557137 -1792379698 424266476 514330782 1591787418 -628597001 -1564731178 -1824662000 607592752 1493263562 -459795503 1602031761 -933147877 -1835348238 2009767665 906097749 -312729177 -1134868757 -549998097 -511874204 685335821 462315903 679828663 700581128
REM
CELL 1.54180   50.00000   50.00000   50.00000   90.00000   90.00000   90.00000
LATT -1
SFAC C  
C      1  0.4958440000000  0.5715420000000  0.5242150000000 1.0
C      1  0.5027490000000  0.5719870000000  0.4733650000000 1.0
C      1  0.4935960000000  0.4192240000000  0.5286450000000 1.0
C      1  0.5053210000000  0.4189140000000  0.4740670000000 1.0
C      1  0.5452080000000  0.5561120000000  0.4701300000000 1.0
C      1  0.4525050000000  0.5570290000000  0.5275200000000 1.0
C      1  0.5493800000000  0.4456680000000  0.4745400000000 1.0
C      1  0.4484950000000  0.4481650000000  0.5227760000000 1.0
C      1  0.5260190000000  0.4361120000000  0.4923220000000 1.0
C      1  0.4754790000000  0.4388360000000  0.5095930000000 1.0
C      1  0.5280610000000  0.5707340000000  0.4850320000000 1.0
C      1  0.4703560000000  0.5709910000000  0.5125670000000 1.0
C      1  0.5432210000000  0.4411280000000  0.5436290000000 1.0
C      1  0.4588980000000  0.4459200000000  0.4574710000000 1.0
C      1  0.5453600000000  0.5527380000000  0.5369690000000 1.0
C      1  0.4523880000000  0.5559860000000  0.4605200000000 1.0
C      1  0.4559450000000  0.5239420000000  0.5054670000000 1.0
C      1  0.5370550000000  0.5130080000000  0.4924440000000 1.0
C      1  0.4590780000000  0.4749730000000  0.5051170000000 1.0
C      1  0.5446700000000  0.4801060000000  0.4941700000000 1.0
C      1  0.4537500000000  0.5290060000000  0.4569290000000 1.0
C      1  0.5431190000000  0.5259360000000  0.5408030000000 1.0
C      1  0.4582910000000  0.4730850000000  0.4555940000000 1.0
C      1  0.5457030000000  0.4680510000000  0.5467020000000 1.0
C      1  0.5406070000000  0.4739260000000  0.4625690000000 1.0
C      1  0.4642740000000  0.4737300000000  0.5386140000000 1.0
C      1  0.5380280000000  0.5263050000000  0.4648610000000 1.0
C      1  0.4603920000000  0.5268110000000  0.5365440000000 1.0
C      1  0.5587380000000  0.5139580000000  0.4454280000000 1.0
C      1  0.4409820000000  0.5123680000000  0.5551320000000 1.0
C      1  0.5594160000000  0.4887910000000  0.4439150000000 1.0
C      1  0.4442470000000  0.4874570000000  0.5576170000000 1.0
C      1  0.5028990000000  0.4582070000000  0.4807700000000 1.0
C      1  0.4994500000000  0.4581630000000  0.5224980000000 1.0
C      1  0.4891790000000  0.5415460000000  0.4705150000000 1.0
C      1  0.5083810000000  0.5407690000000  0.5276960000000 1.0
C      1  0.5224460000000  0.4330840000000  0.5229670000000 1.0
C      1  0.4779940000000  0.4351110000000  0.4786680000000 1.0
C      1  0.5268770000000  0.5665010000000  0.5147200000000 1.0
C      1  0.4716850000000  0.5684850000000  0.4826260000000 1.0
C      1  0.5088940000000  0.4826260000000  0.4578740000000 1.0
C      1  0.4955310000000  0.4848160000000  0.5433210000000 1.0
C      1  0.5071470000000  0.5166910000000  0.4558320000000 1.0
C      1  0.4897070000000  0.5184060000000  0.5434910000000 1.0
C      1  0.4780010000000  0.5298970000000  0.4118480000000 1.0
C      1  0.5202550000000  0.5275230000000  0.5860160000000 1.0
C      1  0.4846390000000  0.4758580000000  0.4123300000000 1.0
C      1  0.5189320000000  0.4730940000000  0.5900840000000 1.0
C      1  0.5202330000000  0.5146910000000  0.5579970000000 1.0
C      1  0.4770410000000  0.5186670000000  0.4401260000000 1.0
C      1  0.5229340000000  0.4821130000000  0.5612970000000 1.0
C      1  0.4816650000000  0.4867410000000  0.4409080000000 1.0
C      1  0.4841060000000  0.5184770000000  0.4904910000000 1.0
C      1  0.5087980000000  0.5162100000000  0.5084930000000 1.0
C      1  0.4864620000000  0.4857710000000  0.4920140000000 1.0
C      1  0.5158750000000  0.4834490000000  0.5089100000000 1.0
C      1  0.4489970000000  0.4861380000000  0.4780310000000 1.0
C      1  0.5569900000000  0.4814420000000  0.5256590000000 1.0
C      1  0.4461510000000  0.5135870000000  0.4791230000000 1.0
C      1  0.5515550000000  0.5094010000000  0.5204270000000 1.0
END
