TITL C-1154803-8277-77 -0.000141010704497365 125000 -337.19201789143 0 0 60 (C1) n - 1
REM
REM in /home/nfs/bkarasulu/CARBON/AIRSS/Generating-Clusters/AIREBO/Higher-Symm/Only-C60
REM
REM
REM
REM
REM
REM ./C.cell (28575a23ae977d3b5fae324c64b13b57)
REM
REM compiler GCC version 9.2.1 20190827 (Red Hat 9.2.1-1)
REM options -cpp -mtune=generic -march=x86-64 -g -O0 -fpre-include=/usr/include/finclude/math-vector-fortran.h
REM seed -1636597067 -1442590440 980332316 -786158827 974512236 961102894 -364085046 1355510093 923300793 -1475441268 1615070013 -1126663894 -913773277 -374876027 1288796808 892272686 1574861505 -924672465 -2045064632 -852699677 -1725888517 1434754823 -15078870 1069146081 -1284947954 1412418403 915377620 -97337668 -1785744065 657609650 18122081 -1764739745 1517368002
REM
CELL 1.54180   50.00000   50.00000   50.00000   90.00000   90.00000   90.00000
LATT -1
SFAC C  
C      1  0.5000490000000  0.5628040000000  0.4688720000000 1.0
C      1  0.5621680000000  0.4704480000000  0.4712850000000 1.0
C      1  0.4439320000000  0.4622060000000  0.4783740000000 1.0
C      1  0.4614290000000  0.4234000000000  0.4959640000000 1.0
C      1  0.4558010000000  0.5711610000000  0.4822080000000 1.0
C      1  0.5875750000000  0.5066630000000  0.4869920000000 1.0
C      1  0.4781510000000  0.5219260000000  0.5050320000000 1.0
C      1  0.5350030000000  0.5009830000000  0.5105130000000 1.0
C      1  0.4879210000000  0.4893470000000  0.5086840000000 1.0
C      1  0.5595790000000  0.4812790000000  0.5164360000000 1.0
C      1  0.4400220000000  0.4567100000000  0.5269780000000 1.0
C      1  0.4870060000000  0.5511610000000  0.5124160000000 1.0
C      1  0.5712820000000  0.5747230000000  0.5174820000000 1.0
C      1  0.5361440000000  0.4168750000000  0.4725490000000 1.0
C      1  0.4031640000000  0.5022520000000  0.5107050000000 1.0
C      1  0.5400640000000  0.5197170000000  0.4299380000000 1.0
C      1  0.4944170000000  0.4536140000000  0.4269560000000 1.0
C      1  0.4633880000000  0.5223610000000  0.4258900000000 1.0
C      1  0.4545300000000  0.5337560000000  0.5813250000000 1.0
C      1  0.5257690000000  0.5123600000000  0.5870510000000 1.0
C      1  0.5066350000000  0.4629750000000  0.5798320000000 1.0
C      1  0.4833600000000  0.4446660000000  0.4509710000000 1.0
C      1  0.4644900000000  0.5355870000000  0.4508780000000 1.0
C      1  0.5507760000000  0.5148890000000  0.4559940000000 1.0
C      1  0.4833460000000  0.5700040000000  0.4911430000000 1.0
C      1  0.5770300000000  0.4805620000000  0.4939310000000 1.0
C      1  0.4432820000000  0.4450420000000  0.5013280000000 1.0
C      1  0.4279580000000  0.5109130000000  0.5180270000000 1.0
C      1  0.5491070000000  0.5587870000000  0.5192780000000 1.0
C      1  0.5198500000000  0.4327200000000  0.4926110000000 1.0
C      1  0.4808180000000  0.4790470000000  0.5370940000000 1.0
C      1  0.4953350000000  0.5305500000000  0.5527650000000 1.0
C      1  0.5292260000000  0.4878880000000  0.5415060000000 1.0
C      1  0.4519160000000  0.5407720000000  0.5284740000000 1.0
C      1  0.5453980000000  0.5250440000000  0.5403060000000 1.0
C      1  0.5004660000000  0.4451510000000  0.5311110000000 1.0
C      1  0.4964560000000  0.5155970000000  0.4798310000000 1.0
C      1  0.5200850000000  0.4931510000000  0.4854390000000 1.0
C      1  0.4886970000000  0.4843820000000  0.4753920000000 1.0
C      1  0.4429080000000  0.5038890000000  0.5408200000000 1.0
C      1  0.5263290000000  0.5642520000000  0.5343510000000 1.0
C      1  0.5377580000000  0.4383070000000  0.5188850000000 1.0
C      1  0.5498160000000  0.5299280000000  0.5069300000000 1.0
C      1  0.4982300000000  0.4573600000000  0.5031240000000 1.0
C      1  0.4468070000000  0.5265920000000  0.4979850000000 1.0
C      1  0.5061400000000  0.4684380000000  0.5526980000000 1.0
C      1  0.4637820000000  0.5261510000000  0.5558800000000 1.0
C      1  0.5207420000000  0.5146420000000  0.5595770000000 1.0
C      1  0.4691260000000  0.4656450000000  0.4660500000000 1.0
C      1  0.4920810000000  0.5369500000000  0.4599150000000 1.0
C      1  0.5412950000000  0.4887380000000  0.4645680000000 1.0
C      1  0.5463620000000  0.4601450000000  0.5317640000000 1.0
C      1  0.4532580000000  0.4779180000000  0.5404590000000 1.0
C      1  0.5012560000000  0.5520820000000  0.5357430000000 1.0
C      1  0.5008630000000  0.4791290000000  0.4180280000000 1.0
C      1  0.4842810000000  0.5069380000000  0.4155730000000 1.0
C      1  0.5164500000000  0.5078090000000  0.4210630000000 1.0
C      1  0.4875840000000  0.4339730000000  0.4819660000000 1.0
C      1  0.4475190000000  0.5448670000000  0.4730570000000 1.0
C      1  0.5657890000000  0.5247750000000  0.4800060000000 1.0
END
