TITL C-1154821-8623-592 -0.000445897052414868 125000 -326.931804381693 0 0 60 (C1) n - 1
REM
REM in /home/nfs/bkarasulu/CARBON/AIRSS/Generating-Clusters/AIREBO/Higher-Symm/Only-C60
REM
REM
REM
REM
REM
REM ./C.cell (28575a23ae977d3b5fae324c64b13b57)
REM
REM compiler GCC version 9.2.1 20190827 (Red Hat 9.2.1-1)
REM options -cpp -mtune=generic -march=x86-64 -g -O0 -fpre-include=/usr/include/finclude/math-vector-fortran.h
REM seed 1758146302 962956830 -1909596417 2091261379 -1739741327 295147306 283925843 -717855266 1005224976 -1570171675 1946081773 -1710748923 716724238 1351348551 -748915966 324583003 -167985483 -1243241709 516139531 -52002500 779568457 -802341172 -950072308 -16784522 1993494362 -690755547 -335732790 1346827516 -750148080 -7782651 -1698155687 849179827 666926573
REM
CELL 1.54180   50.00000   50.00000   50.00000   90.00000   90.00000   90.00000
LATT -1
SFAC C  
C      1  0.4574170000000  0.5217280000000  0.4523370000000 1.0
C      1  0.5371990000000  0.5316410000000  0.5488150000000 1.0
C      1  0.4544540000000  0.5321860000000  0.5485610000000 1.0
C      1  0.5495650000000  0.5200410000000  0.4544450000000 1.0
C      1  0.5248690000000  0.5510780000000  0.5646290000000 1.0
C      1  0.4635720000000  0.5530930000000  0.4487790000000 1.0
C      1  0.5766700000000  0.5174460000000  0.4548750000000 1.0
C      1  0.4658790000000  0.5507750000000  0.5655050000000 1.0
C      1  0.5141830000000  0.4466450000000  0.4459170000000 1.0
C      1  0.4858300000000  0.4437090000000  0.5513870000000 1.0
C      1  0.5174460000000  0.4491740000000  0.5494490000000 1.0
C      1  0.4828710000000  0.4501890000000  0.4469230000000 1.0
C      1  0.5333770000000  0.4498050000000  0.4698020000000 1.0
C      1  0.4695760000000  0.4554620000000  0.5284950000000 1.0
C      1  0.5321050000000  0.4549980000000  0.5225480000000 1.0
C      1  0.4696010000000  0.4582620000000  0.4739210000000 1.0
C      1  0.5337260000000  0.5408030000000  0.4663790000000 1.0
C      1  0.4437740000000  0.5419090000000  0.5245350000000 1.0
C      1  0.5343020000000  0.5376460000000  0.5226820000000 1.0
C      1  0.4493200000000  0.5428500000000  0.4756020000000 1.0
C      1  0.5290000000000  0.4759490000000  0.5767230000000 1.0
C      1  0.4749980000000  0.4830570000000  0.4198300000000 1.0
C      1  0.5276950000000  0.4780790000000  0.4186040000000 1.0
C      1  0.4768550000000  0.4883420000000  0.5738160000000 1.0
C      1  0.4840430000000  0.4845290000000  0.5281390000000 1.0
C      1  0.5196550000000  0.4803600000000  0.4667090000000 1.0
C      1  0.4888980000000  0.4846360000000  0.4662490000000 1.0
C      1  0.5160270000000  0.4840410000000  0.5299040000000 1.0
C      1  0.5299510000000  0.4981460000000  0.4431330000000 1.0
C      1  0.4727570000000  0.5061050000000  0.5470050000000 1.0
C      1  0.5296730000000  0.4990330000000  0.5547200000000 1.0
C      1  0.4791620000000  0.5033340000000  0.4436470000000 1.0
C      1  0.5644140000000  0.4507550000000  0.4688460000000 1.0
C      1  0.4389210000000  0.4575980000000  0.5329850000000 1.0
C      1  0.5893610000000  0.4770340000000  0.5140920000000 1.0
C      1  0.4249930000000  0.4823080000000  0.4938060000000 1.0
C      1  0.4899300000000  0.5626220000000  0.4542660000000 1.0
C      1  0.4944570000000  0.5636330000000  0.5560490000000 1.0
C      1  0.5250950000000  0.4372750000000  0.4976900000000 1.0
C      1  0.4757110000000  0.4420900000000  0.5000770000000 1.0
C      1  0.5053560000000  0.5187720000000  0.4386850000000 1.0
C      1  0.5054050000000  0.5163420000000  0.5672010000000 1.0
C      1  0.4939700000000  0.5325080000000  0.5436920000000 1.0
C      1  0.5102790000000  0.5437190000000  0.4504770000000 1.0
C      1  0.4492220000000  0.4822980000000  0.4828560000000 1.0
C      1  0.5553840000000  0.4754570000000  0.5118400000000 1.0
C      1  0.4782160000000  0.4894170000000  0.4973820000000 1.0
C      1  0.5275520000000  0.4860200000000  0.4978930000000 1.0
C      1  0.4895560000000  0.5825150000000  0.5316310000000 1.0
C      1  0.4908560000000  0.5794380000000  0.4771690000000 1.0
C      1  0.4983100000000  0.4649260000000  0.5736570000000 1.0
C      1  0.4993970000000  0.4617850000000  0.4193060000000 1.0
C      1  0.5758610000000  0.4640270000000  0.4889030000000 1.0
C      1  0.4199080000000  0.4702130000000  0.5180210000000 1.0
C      1  0.4548210000000  0.5523110000000  0.5010020000000 1.0
C      1  0.5301320000000  0.5440870000000  0.4929210000000 1.0
C      1  0.4990610000000  0.4233250000000  0.4988510000000 1.0
C      1  0.5012760000000  0.4644390000000  0.4983400000000 1.0
C      1  0.4818940000000  0.5667010000000  0.5042320000000 1.0
C      1  0.5036400000000  0.5468430000000  0.5143880000000 1.0
END
