TITL C-1154804-8633-2 -0.000726034651346824 125000 -331.243156920662 0 0 60 (Ci) n - 1
REM
REM in /home/nfs/bkarasulu/CARBON/AIRSS/Generating-Clusters/AIREBO/Higher-Symm/Only-C60
REM
REM
REM
REM
REM
REM ./C.cell (28575a23ae977d3b5fae324c64b13b57)
REM
REM compiler GCC version 9.2.1 20190827 (Red Hat 9.2.1-1)
REM options -cpp -mtune=generic -march=x86-64 -g -O0 -fpre-include=/usr/include/finclude/math-vector-fortran.h
REM seed 2146713283 871729394 635028622 -432512207 -406698296 225828087 -250454452 1582730777 1542516805 2014624204 -827849208 687683411 -684264659 364482805 1051138419 762959189 223015773 -2134834870 -495086243 370177716 -1983945650 -763254477 1178115851 1363722203 -180839277 -509713983 -1635221953 -854829784 1573915326 1232935268 2146929393 -576250816 -1819276841
REM
CELL 1.54180   50.00000   50.00000   50.00000   90.00000   90.00000   90.00000
LATT -1
SFAC C  
C      1  0.4694460000000  0.5398140000000  0.5054960000000 1.0
C      1  0.5306390000000  0.4600850000000  0.4945150000000 1.0
C      1  0.5707200000000  0.4533160000000  0.5260620000000 1.0
C      1  0.4294250000000  0.5470550000000  0.4739000000000 1.0
C      1  0.5482320000000  0.4938900000000  0.4825660000000 1.0
C      1  0.4517000000000  0.5060780000000  0.5174160000000 1.0
C      1  0.5063660000000  0.6026600000000  0.5034610000000 1.0
C      1  0.4936180000000  0.3973140000000  0.4965320000000 1.0
C      1  0.5086360000000  0.4667130000000  0.5676460000000 1.0
C      1  0.4913370000000  0.5333400000000  0.4324160000000 1.0
C      1  0.5118390000000  0.5000160000000  0.5296680000000 1.0
C      1  0.4881630000000  0.4998000000000  0.4704310000000 1.0
C      1  0.5006890000000  0.5763820000000  0.5039630000000 1.0
C      1  0.4993280000000  0.4235860000000  0.4960440000000 1.0
C      1  0.4191320000000  0.5431360000000  0.5003340000000 1.0
C      1  0.5809830000000  0.4571390000000  0.4996050000000 1.0
C      1  0.4815230000000  0.4770890000000  0.5588200000000 1.0
C      1  0.5184750000000  0.5229320000000  0.4411920000000 1.0
C      1  0.4504760000000  0.4861650000000  0.4331380000000 1.0
C      1  0.5493750000000  0.5135770000000  0.5669370000000 1.0
C      1  0.4805790000000  0.5640070000000  0.5198330000000 1.0
C      1  0.5194540000000  0.4359420000000  0.4801680000000 1.0
C      1  0.5415820000000  0.4500900000000  0.5219820000000 1.0
C      1  0.4585890000000  0.5498340000000  0.4780110000000 1.0
C      1  0.4830560000000  0.4438900000000  0.5125970000000 1.0
C      1  0.5169630000000  0.5560920000000  0.4874240000000 1.0
C      1  0.5424280000000  0.4684970000000  0.5722220000000 1.0
C      1  0.4575400000000  0.5319100000000  0.4277480000000 1.0
C      1  0.5190150000000  0.4887140000000  0.4376090000000 1.0
C      1  0.4809740000000  0.5113070000000  0.5623850000000 1.0
C      1  0.4910520000000  0.4622310000000  0.4903360000000 1.0
C      1  0.5090270000000  0.5377530000000  0.5097050000000 1.0
C      1  0.5070490000000  0.5329950000000  0.5660030000000 1.0
C      1  0.4929380000000  0.4670360000000  0.4339960000000 1.0
C      1  0.5281260000000  0.4658540000000  0.5423090000000 1.0
C      1  0.4717980000000  0.5338860000000  0.4577130000000 1.0
C      1  0.5517540000000  0.5263490000000  0.4814320000000 1.0
C      1  0.4482260000000  0.4736000000000  0.5186320000000 1.0
C      1  0.4911290000000  0.5144230000000  0.4987530000000 1.0
C      1  0.5090030000000  0.4855050000000  0.5012940000000 1.0
C      1  0.4387980000000  0.5336360000000  0.5169190000000 1.0
C      1  0.5612220000000  0.4663710000000  0.4829700000000 1.0
C      1  0.4329510000000  0.5282930000000  0.4509620000000 1.0
C      1  0.5669160000000  0.4723200000000  0.5487390000000 1.0
C      1  0.4449480000000  0.4902160000000  0.4890600000000 1.0
C      1  0.5549500000000  0.5096640000000  0.5109780000000 1.0
C      1  0.5228820000000  0.4551060000000  0.4341680000000 1.0
C      1  0.4771000000000  0.5449150000000  0.5658190000000 1.0
C      1  0.5439630000000  0.4958740000000  0.5400500000000 1.0
C      1  0.4560350000000  0.5038380000000  0.4600260000000 1.0
C      1  0.4730220000000  0.5643290000000  0.5472680000000 1.0
C      1  0.5269550000000  0.4356760000000  0.4527110000000 1.0
C      1  0.5219300000000  0.5013350000000  0.4672240000000 1.0
C      1  0.4780080000000  0.4986620000000  0.5327750000000 1.0
C      1  0.4671220000000  0.4730040000000  0.4196070000000 1.0
C      1  0.5328450000000  0.5269510000000  0.5803900000000 1.0
C      1  0.4826510000000  0.4691300000000  0.4633300000000 1.0
C      1  0.5172980000000  0.5307020000000  0.5366810000000 1.0
C      1  0.4689270000000  0.4597800000000  0.5320530000000 1.0
C      1  0.5310910000000  0.5401980000000  0.4679780000000 1.0
END
