TITL C-1154823-9327-420 -371.073238313669 125000 -342.075426446076 0 0 60 (C2v) n - 1
REM
REM in /home/nfs/bkarasulu/CARBON/AIRSS/Generating-Clusters/AIREBO/Higher-Symm/Only-C60
REM
REM
REM
REM
REM
REM ./C.cell (28575a23ae977d3b5fae324c64b13b57)
REM
REM compiler GCC version 9.2.1 20190827 (Red Hat 9.2.1-1)
REM options -cpp -mtune=generic -march=x86-64 -g -O0 -fpre-include=/usr/include/finclude/math-vector-fortran.h
REM seed 2019843986 196281713 -928401122 412456570 -1873243465 2097382435 1122567245 117081034 -1117811072 1598394030 -290961565 -1309847120 1616608864 -1515866235 744475883 647194731 1295595834 -1343968924 725440508 -1404486448 -2015342547 83175718 1706778873 -976559883 -645609486 1291808664 1354832924 649377751 -831557371 -1720845663 1453654151 -316944051 -2130361052
REM
CELL 1.54180   50.00000   50.00000   50.00000   90.00000   90.00000   90.00000
LATT -1
SFAC C  
C      1  0.4658040000000  0.4974560000000  0.5423140000000 1.0
C      1  0.4492300000000  0.4974680000000  0.4804460000000 1.0
C      1  0.4817390000000  0.5057780000000  0.4318320000000 1.0
C      1  0.5341960000000  0.4974650000000  0.4576850000000 1.0
C      1  0.5507690000000  0.4974530000000  0.5195530000000 1.0
C      1  0.5182620000000  0.5057530000000  0.5681700000000 1.0
C      1  0.4576630000000  0.4934010000000  0.4506830000000 1.0
C      1  0.4470340000000  0.5018060000000  0.5141890000000 1.0
C      1  0.4879850000000  0.4933810000000  0.5638740000000 1.0
C      1  0.5423360000000  0.4933790000000  0.5493140000000 1.0
C      1  0.5529660000000  0.5018030000000  0.4858120000000 1.0
C      1  0.5120140000000  0.4934000000000  0.4361230000000 1.0
C      1  0.4918600000000  0.4622840000000  0.5709290000000 1.0
C      1  0.4276030000000  0.4743920000000  0.5193890000000 1.0
C      1  0.4574890000000  0.4623080000000  0.4426260000000 1.0
C      1  0.5081340000000  0.4623060000000  0.4290590000000 1.0
C      1  0.5723930000000  0.4743870000000  0.4806020000000 1.0
C      1  0.5425050000000  0.4622820000000  0.5573620000000 1.0
C      1  0.4799080000000  0.4727480000000  0.4250000000000 1.0
C      1  0.4373690000000  0.4703560000000  0.4915660000000 1.0
C      1  0.4499700000000  0.4703470000000  0.5386030000000 1.0
C      1  0.5200880000000  0.4727200000000  0.5749910000000 1.0
C      1  0.5626260000000  0.4703430000000  0.5084240000000 1.0
C      1  0.5500260000000  0.4703520000000  0.4613870000000 1.0
C      1  0.5439730000000  0.5266410000000  0.5458770000000 1.0
C      1  0.4848510000000  0.5266430000000  0.5617150000000 1.0
C      1  0.4334030000000  0.5308750000000  0.5178460000000 1.0
C      1  0.4560310000000  0.5266630000000  0.4541310000000 1.0
C      1  0.5151530000000  0.5266610000000  0.4382930000000 1.0
C      1  0.5666020000000  0.5308700000000  0.4821640000000 1.0
C      1  0.5425160000000  0.5302870000000  0.4581720000000 1.0
C      1  0.4826510000000  0.5371790000000  0.4352330000000 1.0
C      1  0.4422700000000  0.5302910000000  0.4850270000000 1.0
C      1  0.4574890000000  0.5302800000000  0.5418380000000 1.0
C      1  0.5173550000000  0.5371550000000  0.5647800000000 1.0
C      1  0.5577350000000  0.5302770000000  0.5149830000000 1.0
C      1  0.5375150000000  0.5577650000000  0.5372370000000 1.0
C      1  0.4861270000000  0.5577670000000  0.5510030000000 1.0
C      1  0.4474850000000  0.5588240000000  0.5140790000000 1.0
C      1  0.4624940000000  0.5577830000000  0.4627820000000 1.0
C      1  0.5138820000000  0.5577810000000  0.4490160000000 1.0
C      1  0.5525250000000  0.5588210000000  0.4859400000000 1.0
C      1  0.5377520000000  0.5658880000000  0.4625430000000 1.0
C      1  0.4860110000000  0.5679630000000  0.4477710000000 1.0
C      1  0.4485830000000  0.5658910000000  0.4864300000000 1.0
C      1  0.4622580000000  0.5658820000000  0.5374780000000 1.0
C      1  0.5140000000000  0.5679440000000  0.5522510000000 1.0
C      1  0.5514270000000  0.5658790000000  0.5135920000000 1.0
C      1  0.4585640000000  0.4326950000000  0.5110880000000 1.0
C      1  0.4641320000000  0.4432980000000  0.4622570000000 1.0
C      1  0.5121930000000  0.4432960000000  0.4493820000000 1.0
C      1  0.5414250000000  0.4326920000000  0.4888900000000 1.0
C      1  0.5358590000000  0.4432800000000  0.5377250000000 1.0
C      1  0.4877980000000  0.4432810000000  0.5506000000000 1.0
C      1  0.4520660000000  0.4466200000000  0.4872490000000 1.0
C      1  0.4648540000000  0.4466110000000  0.5349870000000 1.0
C      1  0.5113360000000  0.4298060000000  0.5423240000000 1.0
C      1  0.5479260000000  0.4466080000000  0.5127340000000 1.0
C      1  0.5351370000000  0.4466170000000  0.4649950000000 1.0
C      1  0.4886530000000  0.4298220000000  0.4576530000000 1.0
END
