TITL C-1154804-8633-632 -0.000230593021647721 125000 -348.077340302572 0 0 60 (C1) n - 1
REM
REM in /home/nfs/bkarasulu/CARBON/AIRSS/Generating-Clusters/AIREBO/Higher-Symm/Only-C60
REM
REM
REM
REM
REM
REM ./C.cell (28575a23ae977d3b5fae324c64b13b57)
REM
REM compiler GCC version 9.2.1 20190827 (Red Hat 9.2.1-1)
REM options -cpp -mtune=generic -march=x86-64 -g -O0 -fpre-include=/usr/include/finclude/math-vector-fortran.h
REM seed 196855853 -242503348 -201829813 1585108541 309594285 1672932251 -257705124 1350174693 -53994416 1539658490 1952215902 825655895 371857851 568099526 -310454612 -1062175679 -451183733 230833548 180452385 747203487 -1442368688 -2017670848 -1873291124 1624626396 -1689052312 1318160405 1620100426 1151904318 1988420258 -76054888 431570133 589109224 -1859665198
REM
CELL 1.54180   50.00000   50.00000   50.00000   90.00000   90.00000   90.00000
LATT -1
SFAC C  
C      1  0.4625440000000  0.5722290000000  0.5092000000000 1.0
C      1  0.4121800000000  0.4852860000000  0.4974670000000 1.0
C      1  0.4888930000000  0.4164440000000  0.5124960000000 1.0
C      1  0.5753330000000  0.4637200000000  0.5128330000000 1.0
C      1  0.5638750000000  0.5620470000000  0.5005420000000 1.0
C      1  0.5400370000000  0.5782740000000  0.4969300000000 1.0
C      1  0.5854450000000  0.4864030000000  0.4975430000000 1.0
C      1  0.5119230000000  0.4138320000000  0.4945210000000 1.0
C      1  0.4179610000000  0.4590110000000  0.4873610000000 1.0
C      1  0.4385680000000  0.5581430000000  0.5008760000000 1.0
C      1  0.5117910000000  0.4510070000000  0.5087210000000 1.0
C      1  0.5467160000000  0.4907080000000  0.5065100000000 1.0
C      1  0.5329620000000  0.5407300000000  0.5139600000000 1.0
C      1  0.4697760000000  0.5331970000000  0.5132890000000 1.0
C      1  0.4467020000000  0.4742310000000  0.5143480000000 1.0
C      1  0.4877450000000  0.4453470000000  0.4850920000000 1.0
C      1  0.4498990000000  0.4825250000000  0.4844610000000 1.0
C      1  0.4702900000000  0.5387540000000  0.4864990000000 1.0
C      1  0.5309230000000  0.5409320000000  0.4863230000000 1.0
C      1  0.5515850000000  0.4700300000000  0.4813690000000 1.0
C      1  0.5160910000000  0.4380900000000  0.4711860000000 1.0
C      1  0.5677060000000  0.4970870000000  0.4729130000000 1.0
C      1  0.5222180000000  0.5681650000000  0.4723300000000 1.0
C      1  0.4425660000000  0.5422660000000  0.4725990000000 1.0
C      1  0.4431380000000  0.4579210000000  0.4658160000000 1.0
C      1  0.4853060000000  0.4454880000000  0.5276370000000 1.0
C      1  0.4234180000000  0.4941830000000  0.5261890000000 1.0
C      1  0.4812510000000  0.5550390000000  0.5293050000000 1.0
C      1  0.5612670000000  0.5437960000000  0.5267100000000 1.0
C      1  0.5538130000000  0.4715830000000  0.5337160000000 1.0
C      1  0.4524050000000  0.5120450000000  0.5281660000000 1.0
C      1  0.4689410000000  0.4663200000000  0.5355720000000 1.0
C      1  0.5206360000000  0.4714120000000  0.5293700000000 1.0
C      1  0.5565260000000  0.5112580000000  0.5317760000000 1.0
C      1  0.5115070000000  0.5499220000000  0.5343530000000 1.0
C      1  0.5468640000000  0.5208370000000  0.4677420000000 1.0
C      1  0.5295270000000  0.4611110000000  0.4632550000000 1.0
C      1  0.4730470000000  0.4591550000000  0.4619890000000 1.0
C      1  0.4505370000000  0.5095090000000  0.4680450000000 1.0
C      1  0.4948970000000  0.5490770000000  0.4707210000000 1.0
C      1  0.4303060000000  0.5294340000000  0.5090010000000 1.0
C      1  0.4407470000000  0.4436190000000  0.5030860000000 1.0
C      1  0.5374980000000  0.4302480000000  0.5039320000000 1.0
C      1  0.5789540000000  0.5139540000000  0.5073430000000 1.0
C      1  0.5124830000000  0.5748630000000  0.5113660000000 1.0
C      1  0.5700710000000  0.5336260000000  0.4890520000000 1.0
C      1  0.5608010000000  0.4429590000000  0.4958920000000 1.0
C      1  0.4632230000000  0.4290940000000  0.4986530000000 1.0
C      1  0.4228400000000  0.5114020000000  0.4877540000000 1.0
C      1  0.4895740000000  0.5727730000000  0.4945540000000 1.0
C      1  0.5224920000000  0.5091220000000  0.4534140000000 1.0
C      1  0.4988330000000  0.5243630000000  0.4539690000000 1.0
C      1  0.4762660000000  0.5071370000000  0.4517580000000 1.0
C      1  0.4863660000000  0.4801980000000  0.4495180000000 1.0
C      1  0.5153780000000  0.4816100000000  0.4509040000000 1.0
C      1  0.4872380000000  0.5184520000000  0.5660050000000 1.0
C      1  0.5108660000000  0.5265730000000  0.5536330000000 1.0
C      1  0.5278610000000  0.5024950000000  0.5411050000000 1.0
C      1  0.5009400000000  0.4840580000000  0.5516390000000 1.0
C      1  0.4704570000000  0.4969040000000  0.5476920000000 1.0
END
