TITL C-1154816-9297-414 -0.000781956280532257 125000 -353.501686505106 0 0 60 (C1) n - 1
REM
REM in /home/nfs/bkarasulu/CARBON/AIRSS/Generating-Clusters/AIREBO/Higher-Symm/Only-C60
REM
REM
REM
REM
REM
REM ./C.cell (28575a23ae977d3b5fae324c64b13b57)
REM
REM compiler GCC version 9.2.1 20190827 (Red Hat 9.2.1-1)
REM options -cpp -mtune=generic -march=x86-64 -g -O0 -fpre-include=/usr/include/finclude/math-vector-fortran.h
REM seed -1389745696 -924539308 168859740 -406001646 34118391 -1887455172 702708947 818560840 651363099 226350029 -186761340 -928478778 674228525 561426429 846203597 -1466517404 1128285721 -1485968508 2134672891 1940468117 -802632536 845134252 -294037811 -443682473 1538429802 654064386 -1560550269 247430487 -450656052 -1282786853 679470097 -139356188 771016135
REM
CELL 1.54180   50.00000   50.00000   50.00000   90.00000   90.00000   90.00000
LATT -1
SFAC C  
C      1  0.4988840000000  0.4878150000000  0.5261200000000 1.0
C      1  0.5245100000000  0.4894580000000  0.5088230000000 1.0
C      1  0.5158930000000  0.4889980000000  0.4782380000000 1.0
C      1  0.4852050000000  0.4881010000000  0.4764900000000 1.0
C      1  0.4750020000000  0.4886860000000  0.5063440000000 1.0
C      1  0.4354170000000  0.4616690000000  0.5022540000000 1.0
C      1  0.4820200000000  0.4583270000000  0.5609370000000 1.0
C      1  0.5536850000000  0.4608050000000  0.5354840000000 1.0
C      1  0.5511120000000  0.4606050000000  0.4610210000000 1.0
C      1  0.4780470000000  0.4558870000000  0.4408190000000 1.0
C      1  0.5443220000000  0.5100410000000  0.5242080000000 1.0
C      1  0.5323220000000  0.5105590000000  0.4586380000000 1.0
C      1  0.4758290000000  0.5063710000000  0.4504450000000 1.0
C      1  0.4543800000000  0.5130280000000  0.5080580000000 1.0
C      1  0.4927590000000  0.5074630000000  0.5529370000000 1.0
C      1  0.4594140000000  0.4634470000000  0.5179550000000 1.0
C      1  0.5050150000000  0.4618660000000  0.5437050000000 1.0
C      1  0.5436790000000  0.4641260000000  0.5088900000000 1.0
C      1  0.5222490000000  0.4620240000000  0.4618940000000 1.0
C      1  0.4701620000000  0.4613270000000  0.4678870000000 1.0
C      1  0.5374200000000  0.5615600000000  0.5438160000000 1.0
C      1  0.5326930000000  0.5571500000000  0.4726420000000 1.0
C      1  0.4790220000000  0.5638850000000  0.4754120000000 1.0
C      1  0.4724060000000  0.5626940000000  0.4993330000000 1.0
C      1  0.4923900000000  0.5659240000000  0.5545860000000 1.0
C      1  0.5539300000000  0.5172530000000  0.4802820000000 1.0
C      1  0.4947610000000  0.5072400000000  0.4246840000000 1.0
C      1  0.4429890000000  0.5155440000000  0.4790460000000 1.0
C      1  0.4633020000000  0.5129670000000  0.5590760000000 1.0
C      1  0.5404510000000  0.5128790000000  0.5552190000000 1.0
C      1  0.5049300000000  0.4945320000000  0.5783540000000 1.0
C      1  0.5738470000000  0.5004290000000  0.5201750000000 1.0
C      1  0.5395140000000  0.4951980000000  0.4325400000000 1.0
C      1  0.4499230000000  0.4935000000000  0.4372100000000 1.0
C      1  0.4320580000000  0.5009230000000  0.5272770000000 1.0
C      1  0.5616530000000  0.4688240000000  0.4862330000000 1.0
C      1  0.5061050000000  0.4617030000000  0.4374830000000 1.0
C      1  0.4421420000000  0.4659160000000  0.4750180000000 1.0
C      1  0.4579910000000  0.4659780000000  0.5469140000000 1.0
C      1  0.5323850000000  0.4648020000000  0.5543470000000 1.0
C      1  0.5297530000000  0.5391620000000  0.5194090000000 1.0
C      1  0.5175850000000  0.5397710000000  0.4515150000000 1.0
C      1  0.4860880000000  0.5381180000000  0.4570060000000 1.0
C      1  0.4715430000000  0.5401070000000  0.5193890000000 1.0
C      1  0.4997850000000  0.5374380000000  0.5384950000000 1.0
C      1  0.5701290000000  0.4968360000000  0.4911350000000 1.0
C      1  0.5134390000000  0.4859830000000  0.4230460000000 1.0
C      1  0.4363110000000  0.4922250000000  0.4636760000000 1.0
C      1  0.4458290000000  0.4924040000000  0.5513290000000 1.0
C      1  0.5319990000000  0.4899240000000  0.5693880000000 1.0
C      1  0.4582540000000  0.4690830000000  0.4241750000000 1.0
C      1  0.4169540000000  0.4803710000000  0.5140770000000 1.0
C      1  0.4886870000000  0.4719220000000  0.5855860000000 1.0
C      1  0.5776970000000  0.4770800000000  0.5367850000000 1.0
C      1  0.5591950000000  0.4750630000000  0.4375610000000 1.0
C      1  0.5055520000000  0.5325840000000  0.4225460000000 1.0
C      1  0.4528950000000  0.5360460000000  0.4641100000000 1.0
C      1  0.4577100000000  0.5378950000000  0.5487860000000 1.0
C      1  0.5268010000000  0.5372280000000  0.5591520000000 1.0
C      1  0.5439790000000  0.5412540000000  0.4920400000000 1.0
END
