TITL C-1154824-75-242 -0.000501419351381871 125000 -333.122669158817 0 0 60 (C1) n - 1
REM
REM in /home/nfs/bkarasulu/CARBON/AIRSS/Generating-Clusters/AIREBO/Higher-Symm/Only-C60
REM
REM
REM
REM
REM
REM ./C.cell (28575a23ae977d3b5fae324c64b13b57)
REM
REM compiler GCC version 9.2.1 20190827 (Red Hat 9.2.1-1)
REM options -cpp -mtune=generic -march=x86-64 -g -O0 -fpre-include=/usr/include/finclude/math-vector-fortran.h
REM seed -730020253 -1229054886 1296506581 -281280122 -747152007 1150695851 -1748854530 -71187222 -416820376 414515159 -1187888098 -1528700546 -58823940 1500134302 -1323218151 -871828699 -1300103028 -1311709183 51369137 -861689225 -1086251843 1705178250 -405794541 -283515529 -1406737670 1886678448 -676868858 -1167692724 -1124811055 1302553700 1361069743 -865523987 -838991981
REM
CELL 1.54180   50.00000   50.00000   50.00000   90.00000   90.00000   90.00000
LATT -1
SFAC C  
C      1  0.4802400000000  0.4882790000000  0.5219590000000 1.0
C      1  0.4677750000000  0.4711080000000  0.4955310000000 1.0
C      1  0.4839690000000  0.4986430000000  0.4838690000000 1.0
C      1  0.4696000000000  0.5170760000000  0.5086140000000 1.0
C      1  0.5286030000000  0.5176040000000  0.5186270000000 1.0
C      1  0.5322660000000  0.5286700000000  0.4895740000000 1.0
C      1  0.5180630000000  0.5000690000000  0.4843930000000 1.0
C      1  0.5118660000000  0.4901160000000  0.5161470000000 1.0
C      1  0.5097220000000  0.4690370000000  0.5498940000000 1.0
C      1  0.5057230000000  0.4468160000000  0.4627540000000 1.0
C      1  0.5106560000000  0.5300990000000  0.4559620000000 1.0
C      1  0.5012320000000  0.5449760000000  0.5284090000000 1.0
C      1  0.4866570000000  0.5267710000000  0.5438140000000 1.0
C      1  0.4921060000000  0.5449840000000  0.4726270000000 1.0
C      1  0.4900890000000  0.4680830000000  0.4520650000000 1.0
C      1  0.4912790000000  0.4491360000000  0.5526460000000 1.0
C      1  0.4676270000000  0.4506240000000  0.5373240000000 1.0
C      1  0.4654540000000  0.4694640000000  0.4638630000000 1.0
C      1  0.4605250000000  0.5411820000000  0.4661510000000 1.0
C      1  0.4578670000000  0.5267530000000  0.5390280000000 1.0
C      1  0.5298530000000  0.5465770000000  0.5366770000000 1.0
C      1  0.5396970000000  0.5371280000000  0.4574790000000 1.0
C      1  0.5307300000000  0.4551530000000  0.4719400000000 1.0
C      1  0.5295690000000  0.4662070000000  0.5256110000000 1.0
C      1  0.5227230000000  0.4181120000000  0.4945190000000 1.0
C      1  0.5333960000000  0.4917440000000  0.4332540000000 1.0
C      1  0.5233680000000  0.5765820000000  0.4963080000000 1.0
C      1  0.5288370000000  0.5093870000000  0.5701750000000 1.0
C      1  0.4694150000000  0.5781940000000  0.5042400000000 1.0
C      1  0.4733500000000  0.4970170000000  0.4301970000000 1.0
C      1  0.4743920000000  0.4233120000000  0.4934900000000 1.0
C      1  0.4695680000000  0.4966210000000  0.5636640000000 1.0
C      1  0.4370740000000  0.5372330000000  0.5194800000000 1.0
C      1  0.4250130000000  0.4806290000000  0.5343240000000 1.0
C      1  0.3815940000000  0.4696630000000  0.4747710000000 1.0
C      1  0.4360650000000  0.5182420000000  0.4664530000000 1.0
C      1  0.5610470000000  0.4655090000000  0.5147400000000 1.0
C      1  0.5765050000000  0.5196630000000  0.5428210000000 1.0
C      1  0.5669590000000  0.5429730000000  0.4761690000000 1.0
C      1  0.5671700000000  0.4878240000000  0.4611550000000 1.0
C      1  0.4674800000000  0.5091840000000  0.4596440000000 1.0
C      1  0.4588550000000  0.5476830000000  0.4980270000000 1.0
C      1  0.4545130000000  0.4785480000000  0.5420230000000 1.0
C      1  0.4671760000000  0.4445950000000  0.5100800000000 1.0
C      1  0.5359170000000  0.4833450000000  0.4659760000000 1.0
C      1  0.5391800000000  0.4449560000000  0.5009110000000 1.0
C      1  0.5464480000000  0.5209070000000  0.5473800000000 1.0
C      1  0.5434380000000  0.5599910000000  0.4894450000000 1.0
C      1  0.4141270000000  0.5130380000000  0.4812230000000 1.0
C      1  0.4148690000000  0.5236480000000  0.5107710000000 1.0
C      1  0.4090590000000  0.4934350000000  0.5154880000000 1.0
C      1  0.3976050000000  0.4866830000000  0.4868880000000 1.0
C      1  0.5844950000000  0.4958510000000  0.4814480000000 1.0
C      1  0.5821630000000  0.4812340000000  0.5088740000000 1.0
C      1  0.5862010000000  0.5112970000000  0.5180240000000 1.0
C      1  0.5848600000000  0.5259380000000  0.4893290000000 1.0
C      1  0.5014680000000  0.4996290000000  0.5580230000000 1.0
C      1  0.5033670000000  0.4987130000000  0.4454370000000 1.0
C      1  0.4966430000000  0.5601980000000  0.5011020000000 1.0
C      1  0.4987640000000  0.4238660000000  0.4791930000000 1.0
END
