TITL C-1154828-9214-526 70.2361541582954 125000 -283.251293629499 0 0 60 (C5) n - 1
REM
REM in /home/nfs/bkarasulu/CARBON/AIRSS/Generating-Clusters/AIREBO/Higher-Symm/Only-C60
REM
REM
REM
REM
REM
REM ./C.cell (28575a23ae977d3b5fae324c64b13b57)
REM
REM compiler GCC version 9.2.1 20190827 (Red Hat 9.2.1-1)
REM options -cpp -mtune=generic -march=x86-64 -g -O0 -fpre-include=/usr/include/finclude/math-vector-fortran.h
REM seed 316078573 2089820774 -872739523 -1159426676 404056270 -1324726139 -311316711 396160332 1231895771 1283749716 -1938880021 -1306621767 -1667820124 864798455 -1074756838 -1141401486 1523486586 -962735838 325119462 -158903266 714654 -2043824646 -1114684310 -1300787123 2081307963 -2126809905 1029978170 -726464503 1529542241 369924075 -138481914 -2018228112 -1010504477
REM
CELL 1.54180   50.00000   50.00000   50.00000   90.00000   90.00000   90.00000
LATT -1
SFAC C  
C      1  0.4884040000000  0.4742160000000  0.4318950000000 1.0
C      1  0.4745220000000  0.4878040000000  0.5681790000000 1.0
C      1  0.4718910000000  0.5030520000000  0.4318960000000 1.0
C      1  0.4805320000000  0.5204700000000  0.5681780000000 1.0
C      1  0.4942120000000  0.5276680000000  0.4318930000000 1.0
C      1  0.5134560000000  0.5248500000000  0.5681740000000 1.0
C      1  0.5245220000000  0.5140460000000  0.4318900000000 1.0
C      1  0.5277960000000  0.4948900000000  0.5681730000000 1.0
C      1  0.5209320000000  0.4810110000000  0.4318910000000 1.0
C      1  0.5037330000000  0.4719940000000  0.5681760000000 1.0
C      1  0.5255180000000  0.5383210000000  0.4540420000000 1.0
C      1  0.5441160000000  0.5127060000000  0.5458970000000 1.0
C      1  0.5443280000000  0.4875660000000  0.4540410000000 1.0
C      1  0.5257200000000  0.4619750000000  0.5459000000000 1.0
C      1  0.5018700000000  0.4539940000000  0.4540470000000 1.0
C      1  0.4717870000000  0.4637940000000  0.5459060000000 1.0
C      1  0.4568210000000  0.4839990000000  0.4540510000000 1.0
C      1  0.4568510000000  0.5156500000000  0.5459070000000 1.0
C      1  0.4714360000000  0.5361160000000  0.4540490000000 1.0
C      1  0.5015530000000  0.5458790000000  0.5459010000000 1.0
C      1  0.4483230000000  0.4769900000000  0.5166950000000 1.0
C      1  0.4441520000000  0.5079830000000  0.4831790000000 1.0
C      1  0.4621480000000  0.5420390000000  0.5166920000000 1.0
C      1  0.4903330000000  0.5555800000000  0.4831720000000 1.0
C      1  0.5282860000000  0.5489920000000  0.5166850000000 1.0
C      1  0.5498710000000  0.5263670000000  0.4831660000000 1.0
C      1  0.5553360000000  0.4882400000000  0.5166830000000 1.0
C      1  0.5404860000000  0.4607150000000  0.4831690000000 1.0
C      1  0.5059160000000  0.4437400000000  0.5166890000000 1.0
C      1  0.4751480000000  0.4493530000000  0.4831760000000 1.0
C      1  0.5101140000000  0.4161450000000  0.5272200000000 1.0
C      1  0.4650540000000  0.4231500000000  0.4730810000000 1.0
C      1  0.4233760000000  0.4644710000000  0.5272280000000 1.0
C      1  0.4161110000000  0.5094850000000  0.4730850000000 1.0
C      1  0.4425340000000  0.5618980000000  0.5272240000000 1.0
C      1  0.4830960000000  0.5827110000000  0.4730760000000 1.0
C      1  0.5411120000000  0.5737840000000  0.5272130000000 1.0
C      1  0.5734370000000  0.5416330000000  0.4730670000000 1.0
C      1  0.5828790000000  0.4837040000000  0.5272100000000 1.0
C      1  0.5622870000000  0.4430190000000  0.4730700000000 1.0
C      1  0.5166900000000  0.5528870000000  0.4275860000000 1.0
C      1  0.5469190000000  0.5296010000000  0.5723290000000 1.0
C      1  0.5554520000000  0.5004610000000  0.4275830000000 1.0
C      1  0.5426560000000  0.4645330000000  0.5723310000000 1.0
C      1  0.5175690000000  0.4473950000000  0.4275880000000 1.0
C      1  0.4794550000000  0.4484810000000  0.5723380000000 1.0
C      1  0.4553950000000  0.4670260000000  0.4275950000000 1.0
C      1  0.4446580000000  0.5036280000000  0.5723410000000 1.0
C      1  0.4548520000000  0.5322230000000  0.4275940000000 1.0
C      1  0.4863530000000  0.5537630000000  0.5723350000000 1.0
C      1  0.5087400000000  0.4545180000000  0.4846590000000 1.0
C      1  0.4774090000000  0.4593880000000  0.5152480000000 1.0
C      1  0.4594440000000  0.4776310000000  0.4846640000000 1.0
C      1  0.4543950000000  0.5089370000000  0.5152490000000 1.0
C      1  0.4661920000000  0.5316570000000  0.4846620000000 1.0
C      1  0.4944080000000  0.5461370000000  0.5152440000000 1.0
C      1  0.5196600000000  0.5419340000000  0.4846560000000 1.0
C      1  0.5421510000000  0.5195770000000  0.5152390000000 1.0
C      1  0.5459560000000  0.4942590000000  0.4846540000000 1.0
C      1  0.5316450000000  0.4659630000000  0.5152410000000 1.0
END
