TITL C-1154828-9214-327 0.00058339922349356 125000 -319.170334290021 0 0 60 (C1) n - 1
REM
REM in /home/nfs/bkarasulu/CARBON/AIRSS/Generating-Clusters/AIREBO/Higher-Symm/Only-C60
REM
REM
REM
REM
REM
REM ./C.cell (28575a23ae977d3b5fae324c64b13b57)
REM
REM compiler GCC version 9.2.1 20190827 (Red Hat 9.2.1-1)
REM options -cpp -mtune=generic -march=x86-64 -g -O0 -fpre-include=/usr/include/finclude/math-vector-fortran.h
REM seed 509208497 -1477672595 1363601350 41881789 -81892664 -1410892628 1877911596 1859177358 -1889451936 1502456535 -723229231 -1154475265 -797765380 2005784123 -926554151 709896582 -2140322758 -51788570 -1945016538 -1385956919 1776906290 -1272555825 -178066498 1621072972 -161622164 1104147945 -1912359781 513057517 380345938 1501770003 104837577 1110689837 -289027108
REM
CELL 1.54180   50.00000   50.00000   50.00000   90.00000   90.00000   90.00000
LATT -1
SFAC C  
C      1  0.5216830000000  0.5583540000000  0.4622270000000 1.0
C      1  0.5284060000000  0.4414610000000  0.4610410000000 1.0
C      1  0.5235610000000  0.4981610000000  0.5679790000000 1.0
C      1  0.4722290000000  0.5646540000000  0.5577930000000 1.0
C      1  0.4753970000000  0.4425560000000  0.5325460000000 1.0
C      1  0.4762390000000  0.4967480000000  0.4202550000000 1.0
C      1  0.5595370000000  0.4402690000000  0.4730820000000 1.0
C      1  0.5517120000000  0.5118710000000  0.5550600000000 1.0
C      1  0.5466680000000  0.5424670000000  0.4623760000000 1.0
C      1  0.4534120000000  0.4561610000000  0.5151100000000 1.0
C      1  0.4535280000000  0.5189990000000  0.4299390000000 1.0
C      1  0.4515900000000  0.5514120000000  0.5508640000000 1.0
C      1  0.5020080000000  0.4372540000000  0.5114720000000 1.0
C      1  0.4995590000000  0.5524360000000  0.5505390000000 1.0
C      1  0.5015630000000  0.5131260000000  0.4359590000000 1.0
C      1  0.5020100000000  0.4307680000000  0.4801800000000 1.0
C      1  0.4937870000000  0.5412940000000  0.4533490000000 1.0
C      1  0.4994140000000  0.5216930000000  0.5635920000000 1.0
C      1  0.4729970000000  0.5047360000000  0.5525760000000 1.0
C      1  0.4649470000000  0.5505100000000  0.4688570000000 1.0
C      1  0.4899460000000  0.4043000000000  0.4722480000000 1.0
C      1  0.5280200000000  0.4924240000000  0.4412800000000 1.0
C      1  0.5298680000000  0.5418260000000  0.5457210000000 1.0
C      1  0.5312060000000  0.4429740000000  0.5178370000000 1.0
C      1  0.4567350000000  0.5255530000000  0.5338180000000 1.0
C      1  0.4589350000000  0.5212720000000  0.4606560000000 1.0
C      1  0.4663220000000  0.4815220000000  0.5010140000000 1.0
C      1  0.5301190000000  0.5139620000000  0.4639010000000 1.0
C      1  0.5307960000000  0.5132400000000  0.5285640000000 1.0
C      1  0.5456610000000  0.4606020000000  0.4950130000000 1.0
C      1  0.4390940000000  0.4867850000000  0.4567880000000 1.0
C      1  0.4414880000000  0.4798960000000  0.5468340000000 1.0
C      1  0.4276580000000  0.5496520000000  0.4981680000000 1.0
C      1  0.5638980000000  0.4739750000000  0.5519460000000 1.0
C      1  0.5657570000000  0.4791180000000  0.4661040000000 1.0
C      1  0.5582380000000  0.5421410000000  0.5003910000000 1.0
C      1  0.5060100000000  0.5157650000000  0.4815150000000 1.0
C      1  0.5152980000000  0.4672170000000  0.4885890000000 1.0
C      1  0.5071610000000  0.5092310000000  0.5118070000000 1.0
C      1  0.4852840000000  0.5283950000000  0.5222360000000 1.0
C      1  0.4968000000000  0.4814340000000  0.5070820000000 1.0
C      1  0.4823020000000  0.5028230000000  0.4691730000000 1.0
C      1  0.4900500000000  0.4814990000000  0.4473260000000 1.0
C      1  0.5005550000000  0.4640960000000  0.5323000000000 1.0
C      1  0.5056440000000  0.5549230000000  0.5170680000000 1.0
C      1  0.4981310000000  0.4826730000000  0.5573170000000 1.0
C      1  0.5004160000000  0.4588510000000  0.4610600000000 1.0
C      1  0.5003600000000  0.5468130000000  0.4862560000000 1.0
C      1  0.5622140000000  0.4880630000000  0.4987260000000 1.0
C      1  0.5623930000000  0.4950460000000  0.5275130000000 1.0
C      1  0.5584750000000  0.5155410000000  0.4806430000000 1.0
C      1  0.4406210000000  0.4914430000000  0.5209410000000 1.0
C      1  0.4455470000000  0.5020550000000  0.4846350000000 1.0
C      1  0.4356180000000  0.5221300000000  0.5099170000000 1.0
C      1  0.5432610000000  0.4707880000000  0.4523530000000 1.0
C      1  0.5471820000000  0.4757370000000  0.5712310000000 1.0
C      1  0.5393610000000  0.5505430000000  0.5169610000000 1.0
C      1  0.4675410000000  0.4683070000000  0.5535810000000 1.0
C      1  0.4516960000000  0.4796910000000  0.4364680000000 1.0
C      1  0.4440920000000  0.5627640000000  0.4802230000000 1.0
END
