TITL C-1154824-75-378 -0.00456793904985669 125000 -347.488236128767 0 0 60 (C1) n - 1
REM
REM in /home/nfs/bkarasulu/CARBON/AIRSS/Generating-Clusters/AIREBO/Higher-Symm/Only-C60
REM
REM
REM
REM
REM
REM ./C.cell (28575a23ae977d3b5fae324c64b13b57)
REM
REM compiler GCC version 9.2.1 20190827 (Red Hat 9.2.1-1)
REM options -cpp -mtune=generic -march=x86-64 -g -O0 -fpre-include=/usr/include/finclude/math-vector-fortran.h
REM seed 1254247155 2101280547 662956713 1034883403 2875805 -2027236262 1543175579 -609802900 727736849 -1297728762 -990084007 836725561 -1059611407 2080852153 -1243178681 72025273 1621190899 740381941 1539147929 -1159839657 1377235010 -1685722409 -1161650642 1159510178 -300892057 1914116522 -128226989 -1142176492 493441192 -1475935535 1917651207 1592660378 1293408644
REM
CELL 1.54180   50.00000   50.00000   50.00000   90.00000   90.00000   90.00000
LATT -1
SFAC C  
C      1  0.5649360000000  0.4896400000000  0.5124630000000 1.0
C      1  0.4871390000000  0.4384910000000  0.5216890000000 1.0
C      1  0.4411870000000  0.5126350000000  0.5162590000000 1.0
C      1  0.5127170000000  0.5700750000000  0.5133750000000 1.0
C      1  0.5684720000000  0.4913400000000  0.4828290000000 1.0
C      1  0.4920560000000  0.4323010000000  0.4891150000000 1.0
C      1  0.4457250000000  0.5078940000000  0.4840110000000 1.0
C      1  0.5095840000000  0.5699010000000  0.4832510000000 1.0
C      1  0.4959990000000  0.5249950000000  0.5703990000000 1.0
C      1  0.5173490000000  0.5038100000000  0.5686970000000 1.0
C      1  0.5024150000000  0.4754810000000  0.5657660000000 1.0
C      1  0.4780130000000  0.4969980000000  0.5673750000000 1.0
C      1  0.4967570000000  0.5211620000000  0.4269760000000 1.0
C      1  0.5261580000000  0.5176630000000  0.4252540000000 1.0
C      1  0.4980850000000  0.4701230000000  0.4244780000000 1.0
C      1  0.4804490000000  0.4965130000000  0.4245150000000 1.0
C      1  0.5632060000000  0.5152470000000  0.4678790000000 1.0
C      1  0.5137400000000  0.4349170000000  0.4710570000000 1.0
C      1  0.4373660000000  0.4800090000000  0.4675550000000 1.0
C      1  0.4847270000000  0.5634580000000  0.4693720000000 1.0
C      1  0.5610530000000  0.5124340000000  0.5289950000000 1.0
C      1  0.5185290000000  0.4291260000000  0.5308030000000 1.0
C      1  0.4325850000000  0.4823010000000  0.5300050000000 1.0
C      1  0.4894320000000  0.5653110000000  0.5290290000000 1.0
C      1  0.5337560000000  0.5515890000000  0.5192840000000 1.0
C      1  0.5449300000000  0.4680720000000  0.5187960000000 1.0
C      1  0.4563000000000  0.4388900000000  0.5285100000000 1.0
C      1  0.4402640000000  0.5464890000000  0.5167050000000 1.0
C      1  0.5315250000000  0.5503470000000  0.4795230000000 1.0
C      1  0.5466030000000  0.4695880000000  0.4789050000000 1.0
C      1  0.4760760000000  0.4569610000000  0.4880190000000 1.0
C      1  0.4404420000000  0.5381220000000  0.4854890000000 1.0
C      1  0.5134570000000  0.4439840000000  0.5591370000000 1.0
C      1  0.4464320000000  0.4863720000000  0.5598100000000 1.0
C      1  0.4927900000000  0.5450840000000  0.5485510000000 1.0
C      1  0.5396260000000  0.5077730000000  0.5477820000000 1.0
C      1  0.5067050000000  0.4510030000000  0.4492380000000 1.0
C      1  0.4604000000000  0.4894190000000  0.4443620000000 1.0
C      1  0.4904860000000  0.5411220000000  0.4478280000000 1.0
C      1  0.5408420000000  0.5111570000000  0.4495800000000 1.0
C      1  0.4396100000000  0.4588010000000  0.5158540000000 1.0
C      1  0.4643380000000  0.5669010000000  0.5161770000000 1.0
C      1  0.5617010000000  0.5380410000000  0.5153030000000 1.0
C      1  0.5384580000000  0.4401660000000  0.5140340000000 1.0
C      1  0.4479170000000  0.4615950000000  0.4885510000000 1.0
C      1  0.4620060000000  0.5598070000000  0.4861110000000 1.0
C      1  0.5603180000000  0.5391920000000  0.4839970000000 1.0
C      1  0.5382870000000  0.4422160000000  0.4840230000000 1.0
C      1  0.4992070000000  0.4819760000000  0.4565520000000 1.0
C      1  0.4735350000000  0.4942820000000  0.4742600000000 1.0
C      1  0.5000430000000  0.5268570000000  0.4720210000000 1.0
C      1  0.5187210000000  0.5014930000000  0.4682880000000 1.0
C      1  0.5030180000000  0.4655010000000  0.5341980000000 1.0
C      1  0.4637400000000  0.5050640000000  0.5377950000000 1.0
C      1  0.4906240000000  0.5169810000000  0.5316930000000 1.0
C      1  0.5148710000000  0.4948280000000  0.5300130000000 1.0
C      1  0.4960850000000  0.5140100000000  0.5007320000000 1.0
C      1  0.5275030000000  0.5238960000000  0.5005660000000 1.0
C      1  0.5273310000000  0.4892900000000  0.4988480000000 1.0
C      1  0.4943760000000  0.4813090000000  0.4961800000000 1.0
END
