TITL C-1154821-8623-606 -0.00013486950152681 125000 -335.193031337076 0 0 60 (C1) n - 1
REM
REM in /home/nfs/bkarasulu/CARBON/AIRSS/Generating-Clusters/AIREBO/Higher-Symm/Only-C60
REM
REM
REM
REM
REM
REM ./C.cell (28575a23ae977d3b5fae324c64b13b57)
REM
REM compiler GCC version 9.2.1 20190827 (Red Hat 9.2.1-1)
REM options -cpp -mtune=generic -march=x86-64 -g -O0 -fpre-include=/usr/include/finclude/math-vector-fortran.h
REM seed -1428820637 2032261728 164732044 619073648 -926349726 1724055005 264568097 -1092360480 -208505614 455184488 670121735 262275751 -1325263979 385044540 -130589312 1650762945 832204870 -1387900725 -1549665704 -1880783947 -579128924 91584346 964049254 -1028591303 -272413371 1283908369 -1383331317 -1890834109 -2085800592 1513462038 -1113319301 -221290611 1241618027
REM
CELL 1.54180   50.00000   50.00000   50.00000   90.00000   90.00000   90.00000
LATT -1
SFAC C  
C      1  0.5046380000000  0.4903150000000  0.4201130000000 1.0
C      1  0.4989660000000  0.4179630000000  0.5142730000000 1.0
C      1  0.4250560000000  0.5101430000000  0.4925290000000 1.0
C      1  0.5156840000000  0.5079100000000  0.5726630000000 1.0
C      1  0.4903600000000  0.4913900000000  0.5751870000000 1.0
C      1  0.4832860000000  0.5115760000000  0.4227860000000 1.0
C      1  0.4970000000000  0.5843340000000  0.4824460000000 1.0
C      1  0.5136400000000  0.4219500000000  0.4881110000000 1.0
C      1  0.5132740000000  0.5862900000000  0.5078600000000 1.0
C      1  0.4274890000000  0.4793180000000  0.5067470000000 1.0
C      1  0.5735610000000  0.5004930000000  0.5186370000000 1.0
C      1  0.5747160000000  0.4786940000000  0.4973500000000 1.0
C      1  0.5523580000000  0.5185800000000  0.5217230000000 1.0
C      1  0.5182830000000  0.5411740000000  0.5506550000000 1.0
C      1  0.5319110000000  0.5604780000000  0.5166720000000 1.0
C      1  0.5551620000000  0.4849590000000  0.4722400000000 1.0
C      1  0.4463960000000  0.5225660000000  0.4697620000000 1.0
C      1  0.4447900000000  0.4769760000000  0.5347930000000 1.0
C      1  0.5192510000000  0.4806790000000  0.4425240000000 1.0
C      1  0.4863530000000  0.5339270000000  0.4460890000000 1.0
C      1  0.4885150000000  0.4622780000000  0.5587620000000 1.0
C      1  0.5236870000000  0.4464760000000  0.4794620000000 1.0
C      1  0.4601630000000  0.5511710000000  0.4791210000000 1.0
C      1  0.4701930000000  0.4347490000000  0.5162310000000 1.0
C      1  0.4525950000000  0.4566810000000  0.5093560000000 1.0
C      1  0.4640470000000  0.5086400000000  0.4502590000000 1.0
C      1  0.5087240000000  0.4611650000000  0.4605410000000 1.0
C      1  0.4484340000000  0.5312630000000  0.5026980000000 1.0
C      1  0.5453110000000  0.4618700000000  0.4926930000000 1.0
C      1  0.5447210000000  0.5397950000000  0.5049700000000 1.0
C      1  0.4667570000000  0.4863780000000  0.5510990000000 1.0
C      1  0.5320880000000  0.5136380000000  0.5439630000000 1.0
C      1  0.5417280000000  0.4952610000000  0.4515480000000 1.0
C      1  0.5039290000000  0.5672810000000  0.5338750000000 1.0
C      1  0.4959780000000  0.4426930000000  0.5360460000000 1.0
C      1  0.4887810000000  0.5581260000000  0.4705170000000 1.0
C      1  0.5239100000000  0.6116000000000  0.5130680000000 1.0
C      1  0.5940470000000  0.5008360000000  0.5371320000000 1.0
C      1  0.5254450000000  0.5192620000000  0.5943920000000 1.0
C      1  0.5135860000000  0.4007040000000  0.4705170000000 1.0
C      1  0.4872610000000  0.6064820000000  0.4720690000000 1.0
C      1  0.5023910000000  0.3926930000000  0.5256480000000 1.0
C      1  0.5989400000000  0.4655430000000  0.4943060000000 1.0
C      1  0.3919070000000  0.5075760000000  0.4869400000000 1.0
C      1  0.3969390000000  0.4822590000000  0.4970710000000 1.0
C      1  0.5098170000000  0.4802920000000  0.3950120000000 1.0
C      1  0.4697280000000  0.5197240000000  0.3970350000000 1.0
C      1  0.4793970000000  0.4926000000000  0.6010810000000 1.0
C      1  0.4593840000000  0.5334430000000  0.5282580000000 1.0
C      1  0.5406540000000  0.5229210000000  0.4508570000000 1.0
C      1  0.5240570000000  0.4521170000000  0.5440170000000 1.0
C      1  0.4556170000000  0.4674120000000  0.4810570000000 1.0
C      1  0.5398670000000  0.5366500000000  0.4788570000000 1.0
C      1  0.5411670000000  0.4661100000000  0.5218460000000 1.0
C      1  0.5284580000000  0.4832300000000  0.5444660000000 1.0
C      1  0.4685300000000  0.5167840000000  0.5533730000000 1.0
C      1  0.4586810000000  0.4794250000000  0.4521350000000 1.0
C      1  0.5145900000000  0.5414300000000  0.4587950000000 1.0
C      1  0.4815560000000  0.4613220000000  0.4639070000000 1.0
C      1  0.4862440000000  0.5424040000000  0.5438640000000 1.0
END
