TITL C-1154826-9507-277 -0.000444022403741937 125000 -285.97691773476 0 0 60 (C1) n - 1
REM
REM in /home/nfs/bkarasulu/CARBON/AIRSS/Generating-Clusters/AIREBO/Higher-Symm/Only-C60
REM
REM
REM
REM
REM
REM ./C.cell (28575a23ae977d3b5fae324c64b13b57)
REM
REM compiler GCC version 9.2.1 20190827 (Red Hat 9.2.1-1)
REM options -cpp -mtune=generic -march=x86-64 -g -O0 -fpre-include=/usr/include/finclude/math-vector-fortran.h
REM seed 1227827232 -1507039342 -1047330584 -2126529969 -1323685461 1106605707 -864629112 150800179 932625529 -1798467873 1367100167 -756638976 1746690628 1071729860 -889975731 1633945158 -956780771 1251147791 -1273033405 -131897431 1466286768 -1550328719 -795065153 -361320983 -392165392 1681736903 -1643225685 2053864623 -183283569 1783706943 1433380465 702406841 1412392254
REM
CELL 1.54180   50.00000   50.00000   50.00000   90.00000   90.00000   90.00000
LATT -1
SFAC C  
C      1  0.4853810000000  0.5302920000000  0.4532800000000 1.0
C      1  0.5298320000000  0.4527870000000  0.4862100000000 1.0
C      1  0.4531090000000  0.4861700000000  0.5299860000000 1.0
C      1  0.5133260000000  0.5299280000000  0.5469480000000 1.0
C      1  0.5142090000000  0.4701700000000  0.4528820000000 1.0
C      1  0.4857370000000  0.4700730000000  0.5471070000000 1.0
C      1  0.4701700000000  0.4530230000000  0.5136740000000 1.0
C      1  0.4700330000000  0.5476390000000  0.4858860000000 1.0
C      1  0.5301950000000  0.5469580000000  0.5143570000000 1.0
C      1  0.5469600000000  0.4857690000000  0.4700600000000 1.0
C      1  0.5476110000000  0.5129790000000  0.5293730000000 1.0
C      1  0.4526970000000  0.5131880000000  0.4704600000000 1.0
C      1  0.4371340000000  0.5014920000000  0.4428710000000 1.0
C      1  0.5030370000000  0.4431070000000  0.4370970000000 1.0
C      1  0.4429560000000  0.4371910000000  0.5037480000000 1.0
C      1  0.5630630000000  0.5014960000000  0.5572520000000 1.0
C      1  0.5627550000000  0.4971200000000  0.4434930000000 1.0
C      1  0.4372120000000  0.4967440000000  0.5570330000000 1.0
C      1  0.4968900000000  0.4430030000000  0.5628560000000 1.0
C      1  0.4968680000000  0.5567990000000  0.4371430000000 1.0
C      1  0.5017720000000  0.5576480000000  0.5628800000000 1.0
C      1  0.5569510000000  0.4368540000000  0.4965690000000 1.0
C      1  0.5570670000000  0.5629240000000  0.5033490000000 1.0
C      1  0.4428250000000  0.5632240000000  0.4970790000000 1.0
C      1  0.5430950000000  0.5240890000000  0.4499880000000 1.0
C      1  0.5238150000000  0.4493600000000  0.5430930000000 1.0
C      1  0.4493680000000  0.5434100000000  0.5239240000000 1.0
C      1  0.4566420000000  0.5236550000000  0.5497840000000 1.0
C      1  0.4577820000000  0.4760130000000  0.4510330000000 1.0
C      1  0.5423170000000  0.4760210000000  0.5491790000000 1.0
C      1  0.4762330000000  0.4494290000000  0.4570370000000 1.0
C      1  0.4762200000000  0.5495560000000  0.5423050000000 1.0
C      1  0.5238560000000  0.5505110000000  0.4568440000000 1.0
C      1  0.5503140000000  0.5435510000000  0.4762370000000 1.0
C      1  0.5497600000000  0.4563720000000  0.5234220000000 1.0
C      1  0.4503700000000  0.4564870000000  0.4768180000000 1.0
C      1  0.5162810000000  0.5002600000000  0.4676600000000 1.0
C      1  0.5001160000000  0.4675280000000  0.5163870000000 1.0
C      1  0.4676310000000  0.5169090000000  0.5002730000000 1.0
C      1  0.4839740000000  0.5002470000000  0.5324650000000 1.0
C      1  0.4841390000000  0.5004400000000  0.4680100000000 1.0
C      1  0.5161380000000  0.5003170000000  0.5319080000000 1.0
C      1  0.4999110000000  0.4675960000000  0.4836390000000 1.0
C      1  0.5003210000000  0.5327600000000  0.5156400000000 1.0
C      1  0.5001300000000  0.5331100000000  0.4838020000000 1.0
C      1  0.5327580000000  0.5164290000000  0.4995670000000 1.0
C      1  0.5324650000000  0.4837330000000  0.5000800000000 1.0
C      1  0.4676790000000  0.4840420000000  0.4999420000000 1.0
C      1  0.5639380000000  0.5291290000000  0.5038560000000 1.0
C      1  0.5290920000000  0.5040770000000  0.5631200000000 1.0
C      1  0.5040580000000  0.5638190000000  0.5289620000000 1.0
C      1  0.4363160000000  0.5293860000000  0.4958280000000 1.0
C      1  0.4364420000000  0.4712630000000  0.5040940000000 1.0
C      1  0.5636450000000  0.4708130000000  0.4959460000000 1.0
C      1  0.4711120000000  0.5038650000000  0.4367880000000 1.0
C      1  0.4711540000000  0.4962310000000  0.5637010000000 1.0
C      1  0.5290060000000  0.4962910000000  0.4363810000000 1.0
C      1  0.4960100000000  0.5641770000000  0.4707820000000 1.0
C      1  0.4957470000000  0.4362750000000  0.5290470000000 1.0
C      1  0.5043740000000  0.4362680000000  0.4708640000000 1.0
END
