TITL C-1154803-8277-209 910.465802355469 125000 -331.915198693981 0 0 60 (C3) n - 1
REM
REM in /home/nfs/bkarasulu/CARBON/AIRSS/Generating-Clusters/AIREBO/Higher-Symm/Only-C60
REM
REM
REM
REM
REM
REM ./C.cell (28575a23ae977d3b5fae324c64b13b57)
REM
REM compiler GCC version 9.2.1 20190827 (Red Hat 9.2.1-1)
REM options -cpp -mtune=generic -march=x86-64 -g -O0 -fpre-include=/usr/include/finclude/math-vector-fortran.h
REM seed 161375016 -58255286 -1599959145 -1530110223 1900441466 -487998844 -2064558033 695288223 -849454481 1651389039 964186879 -708197181 665975424 -1316458282 198001761 -1301686139 748605643 923014076 526734934 -1127570302 1389431938 -832987711 -1760320305 48233983 -1018802079 -182210168 -1628751552 -929240258 1859380498 -886795543 -454592281 1409719526 2129381830
REM
CELL 1.54180   50.00000   50.00000   50.00000   90.00000   90.00000   90.00000
LATT -1
SFAC C  
C      1  0.5479570000000  0.4781850000000  0.5230950000000 1.0
C      1  0.4571260000000  0.4693840000000  0.5231000000000 1.0
C      1  0.4949200000000  0.5524460000000  0.5230810000000 1.0
C      1  0.5444380000000  0.4781040000000  0.4786940000000 1.0
C      1  0.4588210000000  0.4724550000000  0.4786990000000 1.0
C      1  0.4967370000000  0.5494260000000  0.4786800000000 1.0
C      1  0.5107530000000  0.5227100000000  0.4896530000000 1.0
C      1  0.5142920000000  0.4793280000000  0.4896620000000 1.0
C      1  0.4749530000000  0.4979540000000  0.4896600000000 1.0
C      1  0.5129070000000  0.5236910000000  0.5206780000000 1.0
C      1  0.5140610000000  0.4769840000000  0.5206880000000 1.0
C      1  0.4730350000000  0.4993380000000  0.5206850000000 1.0
C      1  0.5054500000000  0.4386090000000  0.5103620000000 1.0
C      1  0.4441080000000  0.5259790000000  0.5103460000000 1.0
C      1  0.5504430000000  0.5354180000000  0.5103390000000 1.0
C      1  0.5062190000000  0.4410210000000  0.4825540000000 1.0
C      1  0.4458150000000  0.5240980000000  0.4825380000000 1.0
C      1  0.5479640000000  0.5348700000000  0.4825320000000 1.0
C      1  0.5444970000000  0.5569700000000  0.5276590000000 1.0
C      1  0.5270860000000  0.4329890000000  0.5276870000000 1.0
C      1  0.4284210000000  0.5100590000000  0.5276740000000 1.0
C      1  0.5352690000000  0.5561440000000  0.4689260000000 1.0
C      1  0.5309920000000  0.4413730000000  0.4689520000000 1.0
C      1  0.4337350000000  0.5024630000000  0.4689430000000 1.0
C      1  0.4757360000000  0.5258130000000  0.4715310000000 1.0
C      1  0.5344910000000  0.5080970000000  0.4715320000000 1.0
C      1  0.4897700000000  0.4660720000000  0.4715430000000 1.0
C      1  0.4703670000000  0.5320270000000  0.5266400000000 1.0
C      1  0.5425500000000  0.5096590000000  0.5266420000000 1.0
C      1  0.4870870000000  0.4583310000000  0.5266560000000 1.0
C      1  0.4768830000000  0.4801080000000  0.4438110000000 1.0
C      1  0.4943390000000  0.5299450000000  0.4437990000000 1.0
C      1  0.5287710000000  0.4899100000000  0.4438060000000 1.0
C      1  0.4837640000000  0.4836130000000  0.5491460000000 1.0
C      1  0.4939200000000  0.5222720000000  0.5491370000000 1.0
C      1  0.5223220000000  0.4941470000000  0.5491420000000 1.0
C      1  0.5245210000000  0.5190930000000  0.4344490000000 1.0
C      1  0.5042820000000  0.4691940000000  0.4344610000000 1.0
C      1  0.4711880000000  0.5116710000000  0.4344530000000 1.0
C      1  0.5250390000000  0.5260490000000  0.5586200000000 1.0
C      1  0.5100330000000  0.4653130000000  0.5586340000000 1.0
C      1  0.4649360000000  0.5086760000000  0.5586270000000 1.0
C      1  0.4318190000000  0.4547820000000  0.5375960000000 1.0
C      1  0.4949260000000  0.5816690000000  0.5375650000000 1.0
C      1  0.5732600000000  0.4635740000000  0.5375880000000 1.0
C      1  0.4348510000000  0.4490680000000  0.4722060000000 1.0
C      1  0.4884690000000  0.5818770000000  0.4721750000000 1.0
C      1  0.5766760000000  0.4690370000000  0.4721960000000 1.0
C      1  0.4384940000000  0.5119420000000  0.5545660000000 1.0
C      1  0.5410880000000  0.5473150000000  0.5545530000000 1.0
C      1  0.5204250000000  0.4407790000000  0.5545780000000 1.0
C      1  0.4462150000000  0.4948390000000  0.4451090000000 1.0
C      1  0.5224300000000  0.5491390000000  0.4450930000000 1.0
C      1  0.5313480000000  0.4559860000000  0.4451130000000 1.0
C      1  0.5527560000000  0.4452590000000  0.5175700000000 1.0
C      1  0.4262130000000  0.4816890000000  0.5175670000000 1.0
C      1  0.5210330000000  0.5730630000000  0.5175430000000 1.0
C      1  0.5555810000000  0.4471170000000  0.4871640000000 1.0
C      1  0.4264130000000  0.4783020000000  0.4871630000000 1.0
C      1  0.5180040000000  0.5745730000000  0.4871380000000 1.0
END
