TITL C-1154821-8623-413 -0.000367647673675752 125000 -301.553150952748 0 0 60 (C1) n - 1
REM
REM in /home/nfs/bkarasulu/CARBON/AIRSS/Generating-Clusters/AIREBO/Higher-Symm/Only-C60
REM
REM
REM
REM
REM
REM ./C.cell (28575a23ae977d3b5fae324c64b13b57)
REM
REM compiler GCC version 9.2.1 20190827 (Red Hat 9.2.1-1)
REM options -cpp -mtune=generic -march=x86-64 -g -O0 -fpre-include=/usr/include/finclude/math-vector-fortran.h
REM seed -489314454 575523567 -239105471 -662955643 -1710583350 720639010 -192477498 447162241 2003042676 1959960750 -54138013 -654651980 1244551837 404938065 1528235506 -663837464 833937454 -888547758 426581772 26603578 -333296536 -1026766781 1480498164 -1069728234 619848371 -433984972 1821231665 248809810 -597326878 1271403501 1653368876 1157405016 1604675639
REM
CELL 1.54180   50.00000   50.00000   50.00000   90.00000   90.00000   90.00000
LATT -1
SFAC C  
C      1  0.4447950000000  0.5160670000000  0.4757980000000 1.0
C      1  0.5412380000000  0.5244490000000  0.4532770000000 1.0
C      1  0.5116470000000  0.5233910000000  0.5573880000000 1.0
C      1  0.4883000000000  0.4521370000000  0.5595220000000 1.0
C      1  0.4541650000000  0.4487390000000  0.4618910000000 1.0
C      1  0.5577410000000  0.4539370000000  0.4783140000000 1.0
C      1  0.4958860000000  0.5635440000000  0.5310520000000 1.0
C      1  0.4959650000000  0.5647100000000  0.4979000000000 1.0
C      1  0.5249450000000  0.5681960000000  0.4876610000000 1.0
C      1  0.5430790000000  0.5798690000000  0.5354880000000 1.0
C      1  0.4548270000000  0.5859760000000  0.5200360000000 1.0
C      1  0.5057860000000  0.5709260000000  0.4417210000000 1.0
C      1  0.5010130000000  0.4243130000000  0.5201980000000 1.0
C      1  0.4841280000000  0.4231080000000  0.4900980000000 1.0
C      1  0.5187740000000  0.4239280000000  0.4901970000000 1.0
C      1  0.4737440000000  0.4865960000000  0.5516940000000 1.0
C      1  0.4689820000000  0.4852800000000  0.4677670000000 1.0
C      1  0.5511200000000  0.4905900000000  0.4926740000000 1.0
C      1  0.5509700000000  0.5021190000000  0.5339830000000 1.0
C      1  0.4409550000000  0.4987920000000  0.5257280000000 1.0
C      1  0.5011720000000  0.5011090000000  0.4340110000000 1.0
C      1  0.4361450000000  0.4720730000000  0.5305070000000 1.0
C      1  0.4984000000000  0.4741430000000  0.4293250000000 1.0
C      1  0.5582820000000  0.4757340000000  0.5367030000000 1.0
C      1  0.4272980000000  0.4250760000000  0.4983630000000 1.0
C      1  0.5363130000000  0.4306230000000  0.4367840000000 1.0
C      1  0.5378370000000  0.4393700000000  0.5636660000000 1.0
C      1  0.5143760000000  0.5068090000000  0.4643850000000 1.0
C      1  0.5183590000000  0.5068590000000  0.5284420000000 1.0
C      1  0.4636430000000  0.5052240000000  0.5019480000000 1.0
C      1  0.4829780000000  0.5156470000000  0.5660660000000 1.0
C      1  0.4562950000000  0.5093150000000  0.4491950000000 1.0
C      1  0.5605780000000  0.5188250000000  0.4761600000000 1.0
C      1  0.4729790000000  0.4423140000000  0.5158430000000 1.0
C      1  0.5003030000000  0.4446110000000  0.4705220000000 1.0
C      1  0.5272790000000  0.4451250000000  0.5145960000000 1.0
C      1  0.5669530000000  0.5137360000000  0.5119340000000 1.0
C      1  0.4502130000000  0.5111280000000  0.5507520000000 1.0
C      1  0.4765930000000  0.5158810000000  0.4300650000000 1.0
C      1  0.4624980000000  0.4567270000000  0.5398590000000 1.0
C      1  0.4829970000000  0.4604280000000  0.4520390000000 1.0
C      1  0.5520750000000  0.4610600000000  0.5096960000000 1.0
C      1  0.4571340000000  0.4728920000000  0.4936340000000 1.0
C      1  0.5324570000000  0.4781450000000  0.4671200000000 1.0
C      1  0.5050000000000  0.4794190000000  0.5414240000000 1.0
C      1  0.4737380000000  0.5894350000000  0.4997800000000 1.0
C      1  0.5253220000000  0.5795480000000  0.4591470000000 1.0
C      1  0.5175290000000  0.5798410000000  0.5454120000000 1.0
C      1  0.4838340000000  0.5574020000000  0.4518180000000 1.0
C      1  0.5471530000000  0.5690460000000  0.5116880000000 1.0
C      1  0.4643240000000  0.5688990000000  0.5389690000000 1.0
C      1  0.4776870000000  0.5389100000000  0.5430680000000 1.0
C      1  0.4840760000000  0.5452670000000  0.4765910000000 1.0
C      1  0.5440110000000  0.5414170000000  0.4946110000000 1.0
C      1  0.5262860000000  0.5135710000000  0.4960600000000 1.0
C      1  0.4863940000000  0.5167090000000  0.5223220000000 1.0
C      1  0.4847140000000  0.5141800000000  0.4767940000000 1.0
C      1  0.4488080000000  0.4415500000000  0.4933100000000 1.0
C      1  0.5310590000000  0.4459760000000  0.4591850000000 1.0
C      1  0.5188500000000  0.4493100000000  0.5458220000000 1.0
END
