TITL C-1154816-9297-140 0.00492106084179927 125000 -332.002958863783 0 0 60 (C2) n - 1
REM
REM in /home/nfs/bkarasulu/CARBON/AIRSS/Generating-Clusters/AIREBO/Higher-Symm/Only-C60
REM
REM
REM
REM
REM
REM ./C.cell (28575a23ae977d3b5fae324c64b13b57)
REM
REM compiler GCC version 9.2.1 20190827 (Red Hat 9.2.1-1)
REM options -cpp -mtune=generic -march=x86-64 -g -O0 -fpre-include=/usr/include/finclude/math-vector-fortran.h
REM seed -1695485940 1768308970 182016955 -174107025 1520916156 2124930981 -1686363281 1173894292 1197428677 -54866759 1298339141 220087924 364873206 -1840534102 1633051631 -8539455 -95929580 -1386202532 1587577375 131255615 -2022610618 -67808878 -2009860187 1498908496 -1616648732 -908770686 -2003152237 1815603173 -483782916 -1252860615 1003713940 -757701495 -379710934
REM
CELL 1.54180   50.00000   50.00000   50.00000   90.00000   90.00000   90.00000
LATT -1
SFAC C  
C      1  0.4815590000000  0.5250540000000  0.5680800000000 1.0
C      1  0.5118730000000  0.4690080000000  0.5729200000000 1.0
C      1  0.4854430000000  0.5309850000000  0.4260220000000 1.0
C      1  0.5063540000000  0.4786220000000  0.4404550000000 1.0
C      1  0.4854420000000  0.4690150000000  0.5739780000000 1.0
C      1  0.5063530000000  0.5213780000000  0.5595450000000 1.0
C      1  0.4815600000000  0.4749460000000  0.4319200000000 1.0
C      1  0.5118750000000  0.5309920000000  0.4270800000000 1.0
C      1  0.5359490000000  0.5119940000000  0.5626670000000 1.0
C      1  0.4575390000000  0.4826870000000  0.5658540000000 1.0
C      1  0.5384400000000  0.5154550000000  0.4353640000000 1.0
C      1  0.4547920000000  0.4898700000000  0.4365880000000 1.0
C      1  0.5384390000000  0.4845440000000  0.5646370000000 1.0
C      1  0.4547910000000  0.5101310000000  0.5634110000000 1.0
C      1  0.5359490000000  0.4880050000000  0.4373340000000 1.0
C      1  0.4575400000000  0.5173140000000  0.4341450000000 1.0
C      1  0.4858380000000  0.4871200000000  0.4782030000000 1.0
C      1  0.5323930000000  0.5089760000000  0.4743420000000 1.0
C      1  0.4763800000000  0.4885970000000  0.5215610000000 1.0
C      1  0.5170660000000  0.5162790000000  0.5276790000000 1.0
C      1  0.4763810000000  0.5114040000000  0.4784390000000 1.0
C      1  0.5170660000000  0.4837210000000  0.4723210000000 1.0
C      1  0.4858380000000  0.5128800000000  0.5217970000000 1.0
C      1  0.5323930000000  0.4910230000000  0.5256590000000 1.0
C      1  0.5124190000000  0.4312560000000  0.5598210000000 1.0
C      1  0.4867160000000  0.5616590000000  0.5531370000000 1.0
C      1  0.5120820000000  0.4393120000000  0.4450220000000 1.0
C      1  0.4875020000000  0.5689810000000  0.4383250000000 1.0
C      1  0.5120820000000  0.5606880000000  0.5549780000000 1.0
C      1  0.4874990000000  0.4310190000000  0.5616750000000 1.0
C      1  0.5124210000000  0.5687430000000  0.4401800000000 1.0
C      1  0.4867150000000  0.4383410000000  0.4468630000000 1.0
C      1  0.4659150000000  0.5369920000000  0.5119690000000 1.0
C      1  0.5344010000000  0.4590460000000  0.5186870000000 1.0
C      1  0.4659150000000  0.5428880000000  0.4783710000000 1.0
C      1  0.5394310000000  0.4614000000000  0.4851450000000 1.0
C      1  0.4659130000000  0.4571130000000  0.5216280000000 1.0
C      1  0.5394320000000  0.5385990000000  0.5148550000000 1.0
C      1  0.4659140000000  0.4630090000000  0.4880300000000 1.0
C      1  0.5344020000000  0.5409540000000  0.4813130000000 1.0
C      1  0.4433490000000  0.5199550000000  0.4839530000000 1.0
C      1  0.5704710000000  0.4737880000000  0.4846810000000 1.0
C      1  0.4335140000000  0.5268860000000  0.5135430000000 1.0
C      1  0.5618160000000  0.4775410000000  0.5146170000000 1.0
C      1  0.4335140000000  0.4731150000000  0.4864560000000 1.0
C      1  0.5618170000000  0.5224580000000  0.4853840000000 1.0
C      1  0.4433480000000  0.4800470000000  0.5160460000000 1.0
C      1  0.5704720000000  0.5262110000000  0.5153200000000 1.0
C      1  0.4624310000000  0.5391160000000  0.5454810000000 1.0
C      1  0.5319080000000  0.4547790000000  0.5494400000000 1.0
C      1  0.4659230000000  0.5473790000000  0.4482080000000 1.0
C      1  0.5357220000000  0.4573860000000  0.4521290000000 1.0
C      1  0.4659210000000  0.4526220000000  0.5517910000000 1.0
C      1  0.5357220000000  0.5426130000000  0.5478720000000 1.0
C      1  0.4624310000000  0.4608840000000  0.4545180000000 1.0
C      1  0.5319100000000  0.5452200000000  0.4505610000000 1.0
C      1  0.5778280000000  0.5021400000000  0.5269590000000 1.0
C      1  0.4290310000000  0.5042680000000  0.5288600000000 1.0
C      1  0.5778280000000  0.4978580000000  0.4730420000000 1.0
C      1  0.4290310000000  0.4957330000000  0.4711390000000 1.0
END
