TITL C-1154829-9094-30 -0.00314550008888068 125000 -354.118500352332 0 0 60 (C2) n - 1
REM
REM in /home/nfs/bkarasulu/CARBON/AIRSS/Generating-Clusters/AIREBO/Higher-Symm/Only-C60
REM
REM
REM
REM
REM
REM ./C.cell (28575a23ae977d3b5fae324c64b13b57)
REM
REM compiler GCC version 9.2.1 20190827 (Red Hat 9.2.1-1)
REM options -cpp -mtune=generic -march=x86-64 -g -O0 -fpre-include=/usr/include/finclude/math-vector-fortran.h
REM seed 490603211 1816521274 1230676114 -1082629523 815002727 2120255190 1369767911 -1896021946 1243272354 1460710499 -680810102 1986899713 1312968948 631556884 435992214 -1022955890 323104973 -1122297144 2038574038 -2018038071 -1983610987 1929908648 1392964422 -1925840422 735539417 2100216407 1155700094 -2048244170 1055774 1122024764 1876453012 568968242 338956212
REM
CELL 1.54180   50.00000   50.00000   50.00000   90.00000   90.00000   90.00000
LATT -1
SFAC C  
C      1  0.5011580000000  0.5551020000000  0.5683430000000 1.0
C      1  0.5089030000000  0.5857690000000  0.5241370000000 1.0
C      1  0.4960470000000  0.5827240000000  0.4729560000000 1.0
C      1  0.4985470000000  0.5485560000000  0.4317550000000 1.0
C      1  0.4994380000000  0.4963230000000  0.4169660000000 1.0
C      1  0.5013840000000  0.4449020000000  0.4316580000000 1.0
C      1  0.5092070000000  0.4142610000000  0.4758680000000 1.0
C      1  0.4963120000000  0.4172630000000  0.5270410000000 1.0
C      1  0.4986720000000  0.4514400000000  0.5682440000000 1.0
C      1  0.4993770000000  0.5036750000000  0.5830330000000 1.0
C      1  0.5315350000000  0.5167060000000  0.5343380000000 1.0
C      1  0.5178850000000  0.5279150000000  0.5116520000000 1.0
C      1  0.5358460000000  0.5420660000000  0.4941960000000 1.0
C      1  0.5430590000000  0.5311630000000  0.4692710000000 1.0
C      1  0.5512810000000  0.5038700000000  0.4686960000000 1.0
C      1  0.5316110000000  0.4834010000000  0.4656800000000 1.0
C      1  0.5179860000000  0.4721450000000  0.4883580000000 1.0
C      1  0.5359850000000  0.4580560000000  0.5058250000000 1.0
C      1  0.5431460000000  0.4689830000000  0.5307540000000 1.0
C      1  0.5512760000000  0.4963030000000  0.5313340000000 1.0
C      1  0.4461650000000  0.4640560000000  0.5152310000000 1.0
C      1  0.4326280000000  0.4776590000000  0.5362630000000 1.0
C      1  0.4433510000000  0.5019490000000  0.5463330000000 1.0
C      1  0.4426500000000  0.5297990000000  0.5317370000000 1.0
C      1  0.4335650000000  0.5428990000000  0.5089700000000 1.0
C      1  0.4460520000000  0.5357620000000  0.4847380000000 1.0
C      1  0.4325740000000  0.5221120000000  0.4636980000000 1.0
C      1  0.4433850000000  0.4978600000000  0.4536350000000 1.0
C      1  0.4427690000000  0.4700070000000  0.4682300000000 1.0
C      1  0.4337150000000  0.4568770000000  0.4909920000000 1.0
C      1  0.4951780000000  0.4103210000000  0.5004580000000 1.0
C      1  0.4942360000000  0.4312050000000  0.5504080000000 1.0
C      1  0.4967660000000  0.4770770000000  0.5775510000000 1.0
C      1  0.4967090000000  0.5307530000000  0.5801250000000 1.0
C      1  0.5008260000000  0.5746570000000  0.5490920000000 1.0
C      1  0.4948750000000  0.5896620000000  0.4995390000000 1.0
C      1  0.4940320000000  0.5687750000000  0.4495890000000 1.0
C      1  0.4967340000000  0.5229120000000  0.4224470000000 1.0
C      1  0.4968590000000  0.4692360000000  0.4198730000000 1.0
C      1  0.5011070000000  0.4253470000000  0.4509090000000 1.0
C      1  0.5427550000000  0.5460490000000  0.4467630000000 1.0
C      1  0.5775370000000  0.4975830000000  0.4700740000000 1.0
C      1  0.5302350000000  0.4706840000000  0.4418010000000 1.0
C      1  0.5373720000000  0.4146460000000  0.4802630000000 1.0
C      1  0.5482170000000  0.4351170000000  0.4950360000000 1.0
C      1  0.5428800000000  0.4540960000000  0.5532620000000 1.0
C      1  0.5775120000000  0.5026800000000  0.5299710000000 1.0
C      1  0.5301020000000  0.5294190000000  0.5582160000000 1.0
C      1  0.5370720000000  0.5854800000000  0.5197590000000 1.0
C      1  0.5479940000000  0.5650460000000  0.5049910000000 1.0
C      1  0.4747730000000  0.5000610000000  0.4496210000000 1.0
C      1  0.4730870000000  0.4756000000000  0.4680320000000 1.0
C      1  0.4894480000000  0.4708680000000  0.4905330000000 1.0
C      1  0.4747440000000  0.4675870000000  0.5145680000000 1.0
C      1  0.4858900000000  0.4763710000000  0.5390890000000 1.0
C      1  0.4747450000000  0.4998540000000  0.5503640000000 1.0
C      1  0.4729860000000  0.5243090000000  0.5319530000000 1.0
C      1  0.4893440000000  0.5290960000000  0.5094610000000 1.0
C      1  0.4746420000000  0.5323280000000  0.4854170000000 1.0
C      1  0.4858320000000  0.5235810000000  0.4609030000000 1.0
END
