TITL C-1154825-9328-373 0.000655689390988803 125000 -322.886271139566 0 0 60 (C1) n - 1
REM
REM in /home/nfs/bkarasulu/CARBON/AIRSS/Generating-Clusters/AIREBO/Higher-Symm/Only-C60
REM
REM
REM
REM
REM
REM ./C.cell (28575a23ae977d3b5fae324c64b13b57)
REM
REM compiler GCC version 9.2.1 20190827 (Red Hat 9.2.1-1)
REM options -cpp -mtune=generic -march=x86-64 -g -O0 -fpre-include=/usr/include/finclude/math-vector-fortran.h
REM seed -622445810 -1640007961 303362301 873432621 1515680738 446748918 -228566203 -1219085734 80849277 13930103 -1867700473 41956660 15298858 1206490245 -393607380 1195806834 1399680891 1709124808 -1248338734 -508443614 1335667105 -828130653 1291551752 -1838443630 1868149207 -1132625212 601502744 -1532310388 1412518922 307909973 1162456741 -196294387 -1531899807
REM
CELL 1.54180   50.00000   50.00000   50.00000   90.00000   90.00000   90.00000
LATT -1
SFAC C  
C      1  0.4704920000000  0.4744070000000  0.4906330000000 1.0
C      1  0.4628130000000  0.5060580000000  0.4974370000000 1.0
C      1  0.4790610000000  0.5359370000000  0.4974850000000 1.0
C      1  0.5092450000000  0.5347900000000  0.4842110000000 1.0
C      1  0.5358450000000  0.5191510000000  0.4985040000000 1.0
C      1  0.5228170000000  0.4884400000000  0.4919900000000 1.0
C      1  0.5006110000000  0.4627870000000  0.4942790000000 1.0
C      1  0.5528550000000  0.4445580000000  0.5102160000000 1.0
C      1  0.4891420000000  0.4375370000000  0.5110710000000 1.0
C      1  0.4442350000000  0.4657920000000  0.5072170000000 1.0
C      1  0.4293100000000  0.5260020000000  0.5063760000000 1.0
C      1  0.4758470000000  0.5695330000000  0.4976480000000 1.0
C      1  0.5274990000000  0.5629240000000  0.5138870000000 1.0
C      1  0.5784030000000  0.5089410000000  0.5050870000000 1.0
C      1  0.4658370000000  0.4648360000000  0.5515040000000 1.0
C      1  0.4439390000000  0.4925860000000  0.5961710000000 1.0
C      1  0.4682360000000  0.5215760000000  0.5467810000000 1.0
C      1  0.5043230000000  0.5618050000000  0.5657690000000 1.0
C      1  0.5397150000000  0.5289790000000  0.5485140000000 1.0
C      1  0.5503130000000  0.4905910000000  0.5468410000000 1.0
C      1  0.5172690000000  0.4470010000000  0.5540860000000 1.0
C      1  0.4734490000000  0.4546900000000  0.4661410000000 1.0
C      1  0.4466610000000  0.4977390000000  0.4686390000000 1.0
C      1  0.4605750000000  0.5351900000000  0.4689560000000 1.0
C      1  0.5037580000000  0.5592750000000  0.4616980000000 1.0
C      1  0.5385010000000  0.5358270000000  0.4686860000000 1.0
C      1  0.5507300000000  0.4805760000000  0.4742240000000 1.0
C      1  0.5209650000000  0.4540490000000  0.4717080000000 1.0
C      1  0.5285540000000  0.4760090000000  0.5685910000000 1.0
C      1  0.4960080000000  0.4698770000000  0.5665920000000 1.0
C      1  0.4697370000000  0.4806790000000  0.5812430000000 1.0
C      1  0.4627220000000  0.5125030000000  0.5783630000000 1.0
C      1  0.4843120000000  0.5355890000000  0.5723060000000 1.0
C      1  0.5164050000000  0.5305180000000  0.5732180000000 1.0
C      1  0.5390910000000  0.5067910000000  0.5745520000000 1.0
C      1  0.5142960000000  0.5468040000000  0.5369550000000 1.0
C      1  0.5541410000000  0.5152000000000  0.5240690000000 1.0
C      1  0.5424990000000  0.4596340000000  0.5351000000000 1.0
C      1  0.4882630000000  0.4427840000000  0.5386030000000 1.0
C      1  0.4462690000000  0.4777550000000  0.5326180000000 1.0
C      1  0.4485390000000  0.5088430000000  0.5276920000000 1.0
C      1  0.4924160000000  0.5272370000000  0.5269240000000 1.0
C      1  0.5330800000000  0.5215120000000  0.4412020000000 1.0
C      1  0.5425960000000  0.4890170000000  0.4443650000000 1.0
C      1  0.5146250000000  0.4660490000000  0.4441780000000 1.0
C      1  0.4823210000000  0.4710700000000  0.4445880000000 1.0
C      1  0.4660580000000  0.4948410000000  0.4427970000000 1.0
C      1  0.4738790000000  0.5243760000000  0.4459290000000 1.0
C      1  0.5017310000000  0.5343380000000  0.4445880000000 1.0
C      1  0.5402090000000  0.5585110000000  0.4930150000000 1.0
C      1  0.5763730000000  0.4935780000000  0.4853750000000 1.0
C      1  0.5479300000000  0.4501650000000  0.4841420000000 1.0
C      1  0.4789130000000  0.4311830000000  0.4829740000000 1.0
C      1  0.4315460000000  0.4730310000000  0.4818860000000 1.0
C      1  0.4337130000000  0.5262810000000  0.4791160000000 1.0
C      1  0.4887710000000  0.5796080000000  0.4746740000000 1.0
C      1  0.5108040000000  0.4972980000000  0.4326310000000 1.0
C      1  0.5106420000000  0.4995720000000  0.4653710000000 1.0
C      1  0.5050700000000  0.5016070000000  0.5178390000000 1.0
C      1  0.5162290000000  0.4787010000000  0.5302010000000 1.0
END
