TITL C-1154826-9507-70 -0.000790840697922682 125000 -340.368740843201 0 0 60 (C1) n - 1
REM
REM in /home/nfs/bkarasulu/CARBON/AIRSS/Generating-Clusters/AIREBO/Higher-Symm/Only-C60
REM
REM
REM
REM
REM
REM ./C.cell (28575a23ae977d3b5fae324c64b13b57)
REM
REM compiler GCC version 9.2.1 20190827 (Red Hat 9.2.1-1)
REM options -cpp -mtune=generic -march=x86-64 -g -O0 -fpre-include=/usr/include/finclude/math-vector-fortran.h
REM seed 1686523643 1134848100 -408949088 -1777159824 1026072265 -1934936995 1555639583 296928104 1160503925 1536717530 -336153700 -233984645 -2123031322 -1585344396 -797696967 1442043495 2135524109 -576444489 2064309810 1410972245 728660013 -45168248 1485185282 -306092238 -203293738 1406419465 -579619667 -461967687 1793683458 1386105760 -1364994306 1056263027 -735370030
REM
CELL 1.54180   50.00000   50.00000   50.00000   90.00000   90.00000   90.00000
LATT -1
SFAC C  
C      1  0.4476640000000  0.5126810000000  0.5276890000000 1.0
C      1  0.5538570000000  0.4879400000000  0.5230890000000 1.0
C      1  0.4508250000000  0.4850980000000  0.5270210000000 1.0
C      1  0.5521740000000  0.5157390000000  0.5217940000000 1.0
C      1  0.4728890000000  0.5232780000000  0.4562210000000 1.0
C      1  0.5242120000000  0.4759700000000  0.4544480000000 1.0
C      1  0.4625290000000  0.4987310000000  0.4483920000000 1.0
C      1  0.5342360000000  0.5007990000000  0.4470290000000 1.0
C      1  0.4969480000000  0.5319360000000  0.4447240000000 1.0
C      1  0.4997210000000  0.4679720000000  0.4432460000000 1.0
C      1  0.4758820000000  0.4755960000000  0.4558840000000 1.0
C      1  0.5216470000000  0.5241580000000  0.4553240000000 1.0
C      1  0.5313650000000  0.4751570000000  0.5661190000000 1.0
C      1  0.4733580000000  0.5265600000000  0.5680980000000 1.0
C      1  0.5291390000000  0.5260550000000  0.5655880000000 1.0
C      1  0.4775460000000  0.4754380000000  0.5682370000000 1.0
C      1  0.5558080000000  0.5655740000000  0.5101330000000 1.0
C      1  0.4413730000000  0.4356510000000  0.5055920000000 1.0
C      1  0.5606240000000  0.4351840000000  0.5075540000000 1.0
C      1  0.4397280000000  0.5626860000000  0.5070920000000 1.0
C      1  0.4860770000000  0.4362270000000  0.4816100000000 1.0
C      1  0.5134650000000  0.5629270000000  0.4800600000000 1.0
C      1  0.4824660000000  0.5625030000000  0.4804520000000 1.0
C      1  0.5169360000000  0.4355620000000  0.4810010000000 1.0
C      1  0.5304390000000  0.4731500000000  0.5386130000000 1.0
C      1  0.4718310000000  0.5277760000000  0.5405710000000 1.0
C      1  0.5276840000000  0.5277590000000  0.5381270000000 1.0
C      1  0.4760960000000  0.4735540000000  0.5408290000000 1.0
C      1  0.4869840000000  0.4843500000000  0.5104040000000 1.0
C      1  0.5144210000000  0.5161820000000  0.5089750000000 1.0
C      1  0.4830820000000  0.5170310000000  0.5102420000000 1.0
C      1  0.5174460000000  0.4823790000000  0.5084650000000 1.0
C      1  0.5266700000000  0.5328210000000  0.4840350000000 1.0
C      1  0.4743530000000  0.4671370000000  0.4846750000000 1.0
C      1  0.5289850000000  0.4657440000000  0.4824020000000 1.0
C      1  0.4691730000000  0.5317890000000  0.4851170000000 1.0
C      1  0.5250870000000  0.5803970000000  0.4581500000000 1.0
C      1  0.4733320000000  0.4184820000000  0.4604730000000 1.0
C      1  0.5282730000000  0.4166060000000  0.4601940000000 1.0
C      1  0.4699140000000  0.5797970000000  0.4588690000000 1.0
C      1  0.5161510000000  0.4473320000000  0.5275230000000 1.0
C      1  0.4846540000000  0.5528850000000  0.5277220000000 1.0
C      1  0.5123730000000  0.5523860000000  0.5268320000000 1.0
C      1  0.4880300000000  0.4479170000000  0.5278480000000 1.0
C      1  0.5847760000000  0.4877820000000  0.4978130000000 1.0
C      1  0.4132650000000  0.5118360000000  0.4901940000000 1.0
C      1  0.5852550000000  0.5145310000000  0.4993380000000 1.0
C      1  0.4066720000000  0.4846090000000  0.4864020000000 1.0
C      1  0.4683480000000  0.5642850000000  0.5082980000000 1.0
C      1  0.5318480000000  0.4350630000000  0.5081910000000 1.0
C      1  0.4708720000000  0.4357630000000  0.5090770000000 1.0
C      1  0.5274770000000  0.5652700000000  0.5077390000000 1.0
C      1  0.5831290000000  0.4540770000000  0.4960820000000 1.0
C      1  0.4179110000000  0.5445280000000  0.4943140000000 1.0
C      1  0.5781990000000  0.5446350000000  0.5124400000000 1.0
C      1  0.4235530000000  0.4621840000000  0.4939650000000 1.0
C      1  0.5556500000000  0.4728980000000  0.4955590000000 1.0
C      1  0.4427010000000  0.5234570000000  0.5002270000000 1.0
C      1  0.5555770000000  0.5298570000000  0.4922860000000 1.0
C      1  0.4493190000000  0.4743330000000  0.5016130000000 1.0
END
