TITL C-1154827-9204-51 0.00252931428681089 125000 -330.925424429214 0 0 60 (C1) n - 1
REM
REM in /home/nfs/bkarasulu/CARBON/AIRSS/Generating-Clusters/AIREBO/Higher-Symm/Only-C60
REM
REM
REM
REM
REM
REM ./C.cell (28575a23ae977d3b5fae324c64b13b57)
REM
REM compiler GCC version 9.2.1 20190827 (Red Hat 9.2.1-1)
REM options -cpp -mtune=generic -march=x86-64 -g -O0 -fpre-include=/usr/include/finclude/math-vector-fortran.h
REM seed -2070146201 -1903200450 380493797 1455578730 -349888076 -959381029 1350787941 -1913815875 488888586 833195096 -1352126019 -1342252183 -752040764 65070353 -1781802642 -1308306740 -1564568620 -1483314554 -885484628 -568562439 1207431333 -748842252 1762455183 2012393048 -113544079 752014557 1924424649 -1460499717 -129670372 1928462328 -244165554 -737642662 384913436
REM
CELL 1.54180   50.00000   50.00000   50.00000   90.00000   90.00000   90.00000
LATT -1
SFAC C  
C      1  0.5279340000000  0.5069150000000  0.4740910000000 1.0
C      1  0.5299970000000  0.4973190000000  0.5128180000000 1.0
C      1  0.4656930000000  0.5159380000000  0.5230350000000 1.0
C      1  0.4765480000000  0.5049630000000  0.4862130000000 1.0
C      1  0.5124780000000  0.5122230000000  0.4377760000000 1.0
C      1  0.5134470000000  0.4909230000000  0.5616330000000 1.0
C      1  0.4780220000000  0.4940520000000  0.5537310000000 1.0
C      1  0.4831020000000  0.4961430000000  0.4316350000000 1.0
C      1  0.4887560000000  0.5288920000000  0.5028100000000 1.0
C      1  0.4859230000000  0.4750640000000  0.4975340000000 1.0
C      1  0.5182380000000  0.5263470000000  0.4996510000000 1.0
C      1  0.5151160000000  0.4704540000000  0.5082880000000 1.0
C      1  0.4977600000000  0.5627930000000  0.4647240000000 1.0
C      1  0.5126260000000  0.4406260000000  0.5510560000000 1.0
C      1  0.5089850000000  0.5489260000000  0.5315970000000 1.0
C      1  0.4980090000000  0.4441190000000  0.4752610000000 1.0
C      1  0.4423150000000  0.5552330000000  0.4851850000000 1.0
C      1  0.4380910000000  0.4596900000000  0.5098420000000 1.0
C      1  0.5615540000000  0.5433850000000  0.5117920000000 1.0
C      1  0.5539500000000  0.4586150000000  0.4818930000000 1.0
C      1  0.4352150000000  0.5309010000000  0.4943510000000 1.0
C      1  0.4236300000000  0.4695740000000  0.4828100000000 1.0
C      1  0.5730180000000  0.5274060000000  0.4865170000000 1.0
C      1  0.5683310000000  0.4728290000000  0.5059730000000 1.0
C      1  0.4322190000000  0.5107580000000  0.5200700000000 1.0
C      1  0.4384560000000  0.4861410000000  0.4645070000000 1.0
C      1  0.5638840000000  0.5174330000000  0.4601820000000 1.0
C      1  0.5619040000000  0.4847020000000  0.5332140000000 1.0
C      1  0.4604230000000  0.4792040000000  0.4478720000000 1.0
C      1  0.4472780000000  0.5082720000000  0.5505640000000 1.0
C      1  0.5461560000000  0.4839010000000  0.5554390000000 1.0
C      1  0.5432350000000  0.5258860000000  0.4426210000000 1.0
C      1  0.5238510000000  0.5128810000000  0.5397440000000 1.0
C      1  0.5141780000000  0.4841500000000  0.4534300000000 1.0
C      1  0.4768090000000  0.5148940000000  0.4553540000000 1.0
C      1  0.4756510000000  0.4614390000000  0.5443730000000 1.0
C      1  0.4462230000000  0.5085310000000  0.4799420000000 1.0
C      1  0.4191660000000  0.4849090000000  0.5117380000000 1.0
C      1  0.5610790000000  0.5110670000000  0.5138440000000 1.0
C      1  0.5573640000000  0.4914110000000  0.4792680000000 1.0
C      1  0.4763230000000  0.5874300000000  0.5076570000000 1.0
C      1  0.4915130000000  0.4102540000000  0.5059060000000 1.0
C      1  0.5309460000000  0.5800090000000  0.4946630000000 1.0
C      1  0.5179020000000  0.4157330000000  0.5129370000000 1.0
C      1  0.5280800000000  0.4506040000000  0.4868750000000 1.0
C      1  0.5335240000000  0.5533330000000  0.5095770000000 1.0
C      1  0.4669300000000  0.4562100000000  0.5151770000000 1.0
C      1  0.4705220000000  0.5662740000000  0.4834050000000 1.0
C      1  0.4820020000000  0.5582890000000  0.5175510000000 1.0
C      1  0.4800210000000  0.4329580000000  0.4960090000000 1.0
C      1  0.5178040000000  0.5841520000000  0.4736630000000 1.0
C      1  0.5204260000000  0.4412960000000  0.5250020000000 1.0
C      1  0.5358310000000  0.5400590000000  0.5490800000000 1.0
C      1  0.5169850000000  0.4537910000000  0.4487370000000 1.0
C      1  0.4774420000000  0.5414530000000  0.4512830000000 1.0
C      1  0.4827110000000  0.4351580000000  0.5650170000000 1.0
C      1  0.4932890000000  0.5203010000000  0.5414200000000 1.0
C      1  0.4858810000000  0.4729080000000  0.4642740000000 1.0
C      1  0.5158780000000  0.5360180000000  0.4609020000000 1.0
C      1  0.4993820000000  0.4648620000000  0.5684880000000 1.0
END
