TITL C-1154804-8633-584 -0.000157618320559713 125000 -328.052183560582 0 0 60 (C1) n - 1
REM
REM in /home/nfs/bkarasulu/CARBON/AIRSS/Generating-Clusters/AIREBO/Higher-Symm/Only-C60
REM
REM
REM
REM
REM
REM ./C.cell (28575a23ae977d3b5fae324c64b13b57)
REM
REM compiler GCC version 9.2.1 20190827 (Red Hat 9.2.1-1)
REM options -cpp -mtune=generic -march=x86-64 -g -O0 -fpre-include=/usr/include/finclude/math-vector-fortran.h
REM seed -1753369915 1598877830 -723290081 -1191739602 -1623976290 -438668021 2019717734 -376246453 1255477609 1958585972 -250718769 1367571865 186082436 715291663 -1027696634 1225345772 -851993666 -2134927429 -1327216698 1951675237 2039577536 -240830467 -1265708097 601056393 2077227741 -725628385 -451289441 -439013696 -1833306866 -1818484679 -1386919437 -1112446329 -934044895
REM
CELL 1.54180   50.00000   50.00000   50.00000   90.00000   90.00000   90.00000
LATT -1
SFAC C  
C      1  0.4819930000000  0.5182290000000  0.5576160000000 1.0
C      1  0.5227230000000  0.4887410000000  0.5594800000000 1.0
C      1  0.4778680000000  0.5064910000000  0.4402750000000 1.0
C      1  0.5257210000000  0.4854290000000  0.4398050000000 1.0
C      1  0.5133860000000  0.5178210000000  0.5599430000000 1.0
C      1  0.4733500000000  0.4886520000000  0.5585440000000 1.0
C      1  0.5074210000000  0.5052380000000  0.4332410000000 1.0
C      1  0.4661490000000  0.4789270000000  0.4409460000000 1.0
C      1  0.4505150000000  0.4869270000000  0.5158450000000 1.0
C      1  0.5500800000000  0.5186750000000  0.5240430000000 1.0
C      1  0.4489040000000  0.4768340000000  0.4834110000000 1.0
C      1  0.5514540000000  0.5149400000000  0.4874130000000 1.0
C      1  0.5475570000000  0.4885850000000  0.5171790000000 1.0
C      1  0.4496470000000  0.5178150000000  0.5181260000000 1.0
C      1  0.5493390000000  0.4823740000000  0.4837870000000 1.0
C      1  0.4515950000000  0.5091800000000  0.4823870000000 1.0
C      1  0.4654660000000  0.4771560000000  0.5806750000000 1.0
C      1  0.5230860000000  0.5317660000000  0.5855420000000 1.0
C      1  0.4511650000000  0.4689340000000  0.4219910000000 1.0
C      1  0.5160120000000  0.5320490000000  0.4293750000000 1.0
C      1  0.5302500000000  0.4762590000000  0.5812080000000 1.0
C      1  0.4689900000000  0.5342470000000  0.5803910000000 1.0
C      1  0.5466110000000  0.4804200000000  0.4223880000000 1.0
C      1  0.4636210000000  0.5218050000000  0.4206110000000 1.0
C      1  0.4723650000000  0.4618150000000  0.4683180000000 1.0
C      1  0.5302630000000  0.5322610000000  0.4762740000000 1.0
C      1  0.4729220000000  0.4747880000000  0.5318240000000 1.0
C      1  0.5249900000000  0.5320140000000  0.5348940000000 1.0
C      1  0.5262490000000  0.4666700000000  0.4681750000000 1.0
C      1  0.4755140000000  0.5211740000000  0.4678960000000 1.0
C      1  0.5247800000000  0.4764430000000  0.5321980000000 1.0
C      1  0.4734860000000  0.5308000000000  0.5297530000000 1.0
C      1  0.5256460000000  0.5629360000000  0.5357840000000 1.0
C      1  0.4863170000000  0.4442830000000  0.5313160000000 1.0
C      1  0.5135940000000  0.5474360000000  0.4529260000000 1.0
C      1  0.4885220000000  0.4431270000000  0.4449450000000 1.0
C      1  0.4990180000000  0.5733120000000  0.5391880000000 1.0
C      1  0.5151730000000  0.4458810000000  0.5312150000000 1.0
C      1  0.4868420000000  0.5523130000000  0.4652320000000 1.0
C      1  0.5138050000000  0.4454430000000  0.4447000000000 1.0
C      1  0.4219700000000  0.5324920000000  0.5132810000000 1.0
C      1  0.5743290000000  0.4707780000000  0.5126220000000 1.0
C      1  0.4263870000000  0.5257490000000  0.4866450000000 1.0
C      1  0.5789160000000  0.4656550000000  0.4857920000000 1.0
C      1  0.5790660000000  0.5314260000000  0.5241000000000 1.0
C      1  0.4228710000000  0.4701560000000  0.5128700000000 1.0
C      1  0.5776390000000  0.5275100000000  0.4965210000000 1.0
C      1  0.4188900000000  0.4614650000000  0.4868590000000 1.0
C      1  0.5274020000000  0.4321430000000  0.5093540000000 1.0
C      1  0.4809580000000  0.5618470000000  0.5196760000000 1.0
C      1  0.5162280000000  0.4382510000000  0.4839610000000 1.0
C      1  0.4910740000000  0.5637100000000  0.4924390000000 1.0
C      1  0.4765640000000  0.4286170000000  0.5095570000000 1.0
C      1  0.5362740000000  0.5717700000000  0.5108890000000 1.0
C      1  0.4873140000000  0.4357460000000  0.4842390000000 1.0
C      1  0.5209450000000  0.5611500000000  0.4896960000000 1.0
C      1  0.5013090000000  0.5279120000000  0.5148570000000 1.0
C      1  0.4988530000000  0.4771410000000  0.5126270000000 1.0
C      1  0.5020140000000  0.5242300000000  0.4890200000000 1.0
C      1  0.4986100000000  0.4740620000000  0.4861370000000 1.0
END
