TITL C-1154821-8623-591 0.000607902743850975 125000 -312.912079067425 0 0 60 (C1) n - 1
REM
REM in /home/nfs/bkarasulu/CARBON/AIRSS/Generating-Clusters/AIREBO/Higher-Symm/Only-C60
REM
REM
REM
REM
REM
REM ./C.cell (28575a23ae977d3b5fae324c64b13b57)
REM
REM compiler GCC version 9.2.1 20190827 (Red Hat 9.2.1-1)
REM options -cpp -mtune=generic -march=x86-64 -g -O0 -fpre-include=/usr/include/finclude/math-vector-fortran.h
REM seed 1728806146 1139492278 144774393 1006512892 948893635 -1197037567 -398642371 1356886327 -1209851072 1769298448 1531079121 2011489467 845109400 -964182977 333310153 802681755 -234120471 -888975845 1937078051 625379952 1760946087 -519001056 207492692 1714048029 -1186799213 768424668 -31732371 688006097 -1438662293 1034321477 -1760033711 1772612143 1524626836
REM
CELL 1.54180   50.00000   50.00000   50.00000   90.00000   90.00000   90.00000
LATT -1
SFAC C  
C      1  0.4448060000000  0.4785660000000  0.5763640000000 1.0
C      1  0.5553360000000  0.5463240000000  0.5437380000000 1.0
C      1  0.4750250000000  0.5854330000000  0.4897750000000 1.0
C      1  0.5520370000000  0.5183840000000  0.4223790000000 1.0
C      1  0.4405410000000  0.4491960000000  0.4560240000000 1.0
C      1  0.5571230000000  0.4172790000000  0.5180220000000 1.0
C      1  0.4638360000000  0.5575150000000  0.4738430000000 1.0
C      1  0.5347550000000  0.5071120000000  0.4479810000000 1.0
C      1  0.4609610000000  0.4608500000000  0.4793680000000 1.0
C      1  0.5409790000000  0.4460230000000  0.5269230000000 1.0
C      1  0.4628410000000  0.4915900000000  0.5517480000000 1.0
C      1  0.5346950000000  0.5340650000000  0.5204500000000 1.0
C      1  0.4852520000000  0.5317730000000  0.5703960000000 1.0
C      1  0.5147420000000  0.5788080000000  0.5161070000000 1.0
C      1  0.4821200000000  0.5939940000000  0.4388210000000 1.0
C      1  0.5193140000000  0.4636740000000  0.4351030000000 1.0
C      1  0.4839980000000  0.4154200000000  0.4820260000000 1.0
C      1  0.5101620000000  0.4543190000000  0.5637520000000 1.0
C      1  0.5079260000000  0.5518730000000  0.5191710000000 1.0
C      1  0.4879420000000  0.5762340000000  0.4596030000000 1.0
C      1  0.5109960000000  0.4893210000000  0.4437620000000 1.0
C      1  0.4896920000000  0.4426800000000  0.4805340000000 1.0
C      1  0.5120330000000  0.4495240000000  0.5344830000000 1.0
C      1  0.4891590000000  0.5066140000000  0.5591760000000 1.0
C      1  0.4497660000000  0.4979340000000  0.5251200000000 1.0
C      1  0.5493030000000  0.5298370000000  0.4937560000000 1.0
C      1  0.4637440000000  0.5287630000000  0.4700210000000 1.0
C      1  0.5477850000000  0.5018820000000  0.4744190000000 1.0
C      1  0.4459050000000  0.4699350000000  0.5061240000000 1.0
C      1  0.5577960000000  0.4702090000000  0.5343660000000 1.0
C      1  0.5336550000000  0.5442900000000  0.4718470000000 1.0
C      1  0.4572910000000  0.5108800000000  0.4457110000000 1.0
C      1  0.5449920000000  0.4706800000000  0.4849690000000 1.0
C      1  0.4542820000000  0.4481840000000  0.5264860000000 1.0
C      1  0.5483800000000  0.4883540000000  0.5521570000000 1.0
C      1  0.4503200000000  0.5317670000000  0.5216850000000 1.0
C      1  0.4879490000000  0.5161930000000  0.4837700000000 1.0
C      1  0.4963600000000  0.4921230000000  0.4730970000000 1.0
C      1  0.4971560000000  0.4719370000000  0.4917660000000 1.0
C      1  0.5018940000000  0.4749530000000  0.5185070000000 1.0
C      1  0.4993640000000  0.5006140000000  0.5282850000000 1.0
C      1  0.4984020000000  0.5214170000000  0.5094260000000 1.0
C      1  0.4358050000000  0.5156280000000  0.4788620000000 1.0
C      1  0.5747990000000  0.4956370000000  0.4934600000000 1.0
C      1  0.4153010000000  0.4681790000000  0.5007290000000 1.0
C      1  0.5758080000000  0.4793890000000  0.5151590000000 1.0
C      1  0.4288790000000  0.5056820000000  0.5005550000000 1.0
C      1  0.5783870000000  0.5395380000000  0.4956650000000 1.0
C      1  0.5451960000000  0.4383920000000  0.4945980000000 1.0
C      1  0.4631960000000  0.4588730000000  0.5565350000000 1.0
C      1  0.5381340000000  0.5187500000000  0.5499920000000 1.0
C      1  0.4581830000000  0.5610900000000  0.5061610000000 1.0
C      1  0.5327030000000  0.5400140000000  0.4392130000000 1.0
C      1  0.4567100000000  0.4777610000000  0.4501640000000 1.0
C      1  0.5225180000000  0.4476850000000  0.4735090000000 1.0
C      1  0.4827340000000  0.4382890000000  0.5397020000000 1.0
C      1  0.5182310000000  0.4946830000000  0.5630280000000 1.0
C      1  0.4779310000000  0.5490240000000  0.5294600000000 1.0
C      1  0.5129070000000  0.5611720000000  0.4563110000000 1.0
C      1  0.4819630000000  0.4936900000000  0.4358380000000 1.0
END
