TITL C-1154821-8623-246 0.00110404426872973 125000 -331.370089740631 0 0 60 (C1) n - 1
REM
REM in /home/nfs/bkarasulu/CARBON/AIRSS/Generating-Clusters/AIREBO/Higher-Symm/Only-C60
REM
REM
REM
REM
REM
REM ./C.cell (28575a23ae977d3b5fae324c64b13b57)
REM
REM compiler GCC version 9.2.1 20190827 (Red Hat 9.2.1-1)
REM options -cpp -mtune=generic -march=x86-64 -g -O0 -fpre-include=/usr/include/finclude/math-vector-fortran.h
REM seed 36876716 1538574114 1121578270 826632607 -1904008825 -1155773076 1498040077 -518039016 -1071470924 -794647533 -76978814 -1920739363 65360779 482045013 -60085778 91187459 1875488003 893755267 -2026755418 2113722717 -1960680477 1623553866 1706589929 -102012635 23358935 895583347 -30597020 2102260065 -763198583 1564802306 -776757756 1342852627 -443111971
REM
CELL 1.54180   50.00000   50.00000   50.00000   90.00000   90.00000   90.00000
LATT -1
SFAC C  
C      1  0.4353440000000  0.5295110000000  0.5295200000000 1.0
C      1  0.3998640000000  0.4985950000000  0.4636180000000 1.0
C      1  0.5575520000000  0.4901630000000  0.5482270000000 1.0
C      1  0.5159610000000  0.4600350000000  0.5306640000000 1.0
C      1  0.4474950000000  0.5129010000000  0.4785040000000 1.0
C      1  0.5172080000000  0.4677150000000  0.4533120000000 1.0
C      1  0.5135620000000  0.5057760000000  0.5092990000000 1.0
C      1  0.5555330000000  0.5172380000000  0.5451190000000 1.0
C      1  0.4841410000000  0.5130180000000  0.4944720000000 1.0
C      1  0.5021290000000  0.5265270000000  0.5336870000000 1.0
C      1  0.5414160000000  0.4264170000000  0.5170940000000 1.0
C      1  0.5285210000000  0.4800770000000  0.5070420000000 1.0
C      1  0.5295620000000  0.5633460000000  0.4619250000000 1.0
C      1  0.5088100000000  0.5165290000000  0.4713240000000 1.0
C      1  0.5427340000000  0.5141890000000  0.4704810000000 1.0
C      1  0.4717130000000  0.5187440000000  0.5417490000000 1.0
C      1  0.4410560000000  0.5163270000000  0.4375310000000 1.0
C      1  0.4631130000000  0.4443400000000  0.4729580000000 1.0
C      1  0.5066530000000  0.5692780000000  0.4866170000000 1.0
C      1  0.4354180000000  0.5557190000000  0.5176820000000 1.0
C      1  0.5082610000000  0.4303870000000  0.5157260000000 1.0
C      1  0.4658070000000  0.5248100000000  0.4451770000000 1.0
C      1  0.5215430000000  0.5398120000000  0.5091250000000 1.0
C      1  0.5333100000000  0.5390240000000  0.4492510000000 1.0
C      1  0.5538760000000  0.4714110000000  0.5253820000000 1.0
C      1  0.5382970000000  0.5649110000000  0.4934560000000 1.0
C      1  0.4899730000000  0.4933040000000  0.5522890000000 1.0
C      1  0.5282390000000  0.5278690000000  0.5554420000000 1.0
C      1  0.4788250000000  0.4234380000000  0.5165510000000 1.0
C      1  0.5700050000000  0.5102030000000  0.4579390000000 1.0
C      1  0.4909940000000  0.4781270000000  0.4443430000000 1.0
C      1  0.4828840000000  0.4673370000000  0.4167540000000 1.0
C      1  0.5103030000000  0.5564880000000  0.5475280000000 1.0
C      1  0.4709330000000  0.4695370000000  0.4656070000000 1.0
C      1  0.5159260000000  0.5279610000000  0.4310100000000 1.0
C      1  0.4665020000000  0.5311980000000  0.5125870000000 1.0
C      1  0.5491710000000  0.5274540000000  0.4993280000000 1.0
C      1  0.4335010000000  0.5072620000000  0.5443550000000 1.0
C      1  0.5359190000000  0.4823370000000  0.4776450000000 1.0
C      1  0.5320940000000  0.4703870000000  0.5587770000000 1.0
C      1  0.5290690000000  0.4381070000000  0.4655590000000 1.0
C      1  0.4880170000000  0.5770590000000  0.5081690000000 1.0
C      1  0.4991890000000  0.5769800000000  0.5335510000000 1.0
C      1  0.5142360000000  0.4971910000000  0.5599270000000 1.0
C      1  0.4624640000000  0.4706750000000  0.5147710000000 1.0
C      1  0.4843160000000  0.4573940000000  0.5365110000000 1.0
C      1  0.5542810000000  0.4443600000000  0.5336030000000 1.0
C      1  0.4630620000000  0.4407720000000  0.5011520000000 1.0
C      1  0.5505580000000  0.4606100000000  0.4559720000000 1.0
C      1  0.4623180000000  0.5616940000000  0.5014170000000 1.0
C      1  0.4751760000000  0.4304360000000  0.5468270000000 1.0
C      1  0.4640840000000  0.5418150000000  0.4741740000000 1.0
C      1  0.4586080000000  0.4873720000000  0.5420350000000 1.0
C      1  0.5502850000000  0.4421890000000  0.5636870000000 1.0
C      1  0.4652360000000  0.4885740000000  0.4887030000000 1.0
C      1  0.4922900000000  0.5093490000000  0.4434120000000 1.0
C      1  0.5272020000000  0.4258590000000  0.4888740000000 1.0
C      1  0.5659380000000  0.5271940000000  0.5207500000000 1.0
C      1  0.4950590000000  0.5448360000000  0.4714200000000 1.0
C      1  0.4244670000000  0.5078310000000  0.4603900000000 1.0
END
