TITL C-1154802-8274-382 -0.000747734163816613 125000 -348.08429723872 0 0 60 (C1) n - 1
REM
REM in /home/nfs/bkarasulu/CARBON/AIRSS/Generating-Clusters/AIREBO/Higher-Symm/Only-C60
REM
REM
REM
REM
REM
REM ./C.cell (28575a23ae977d3b5fae324c64b13b57)
REM
REM compiler GCC version 9.2.1 20190827 (Red Hat 9.2.1-1)
REM options -cpp -mtune=generic -march=x86-64 -g -O0 -fpre-include=/usr/include/finclude/math-vector-fortran.h
REM seed -142619356 1108097500 922276522 16946919 -1321353575 1173672785 1234951609 685085160 -1964975588 1027019768 -1958711928 -1003785507 -1820860822 1173134937 1893691397 1540893502 -1444896581 209255957 1117862517 1454268057 1016471275 -1207530001 -1365668295 649999831 -32119013 1999251507 -61966948 1805392153 -1061966600 1990355650 1352976444 -1879331246 -1072207456
REM
CELL 1.54180   50.00000   50.00000   50.00000   90.00000   90.00000   90.00000
LATT -1
SFAC C  
C      1  0.4421680000000  0.5424820000000  0.5164820000000 1.0
C      1  0.4796750000000  0.5364310000000  0.5599320000000 1.0
C      1  0.5353610000000  0.5420700000000  0.5528540000000 1.0
C      1  0.5359990000000  0.5417620000000  0.4976730000000 1.0
C      1  0.5436120000000  0.5389910000000  0.4708920000000 1.0
C      1  0.5167260000000  0.5418250000000  0.4547680000000 1.0
C      1  0.4571780000000  0.5352700000000  0.4631990000000 1.0
C      1  0.5162660000000  0.5084180000000  0.4614930000000 1.0
C      1  0.4878910000000  0.4904230000000  0.4650190000000 1.0
C      1  0.4619200000000  0.4911860000000  0.4870340000000 1.0
C      1  0.4602960000000  0.4950990000000  0.5208890000000 1.0
C      1  0.4914860000000  0.4856310000000  0.5305970000000 1.0
C      1  0.5177910000000  0.4960430000000  0.5162740000000 1.0
C      1  0.5296570000000  0.4890700000000  0.4860810000000 1.0
C      1  0.5265470000000  0.5665710000000  0.5094110000000 1.0
C      1  0.5122570000000  0.5800920000000  0.4879600000000 1.0
C      1  0.4982730000000  0.5621810000000  0.4697360000000 1.0
C      1  0.4726600000000  0.5536690000000  0.4775770000000 1.0
C      1  0.4689690000000  0.5557610000000  0.5113340000000 1.0
C      1  0.4883370000000  0.5548130000000  0.5393290000000 1.0
C      1  0.5170930000000  0.5595590000000  0.5363800000000 1.0
C      1  0.4264190000000  0.5375710000000  0.4950940000000 1.0
C      1  0.4532460000000  0.5274750000000  0.5588610000000 1.0
C      1  0.5227030000000  0.5312910000000  0.5760080000000 1.0
C      1  0.5814840000000  0.5290170000000  0.5434140000000 1.0
C      1  0.5632800000000  0.5199460000000  0.4655370000000 1.0
C      1  0.5197230000000  0.5443340000000  0.4239400000000 1.0
C      1  0.4631820000000  0.5231870000000  0.4381140000000 1.0
C      1  0.4290150000000  0.4609090000000  0.5060420000000 1.0
C      1  0.4596620000000  0.4540670000000  0.5458590000000 1.0
C      1  0.5145350000000  0.4700080000000  0.5708670000000 1.0
C      1  0.5428720000000  0.4689100000000  0.5312410000000 1.0
C      1  0.5526430000000  0.4473680000000  0.4615200000000 1.0
C      1  0.5144480000000  0.4706910000000  0.4309290000000 1.0
C      1  0.4505410000000  0.4540890000000  0.4522080000000 1.0
C      1  0.4567970000000  0.4471060000000  0.5066760000000 1.0
C      1  0.4839560000000  0.4529210000000  0.5244170000000 1.0
C      1  0.5345630000000  0.4575740000000  0.5559420000000 1.0
C      1  0.5288360000000  0.4598990000000  0.5037640000000 1.0
C      1  0.5271700000000  0.4514860000000  0.4730390000000 1.0
C      1  0.5072930000000  0.4635380000000  0.4582450000000 1.0
C      1  0.4581470000000  0.4584010000000  0.4788180000000 1.0
C      1  0.4986180000000  0.5178420000000  0.5701110000000 1.0
C      1  0.5552050000000  0.5229380000000  0.5428130000000 1.0
C      1  0.5581180000000  0.4932620000000  0.4720520000000 1.0
C      1  0.5239580000000  0.5195540000000  0.4123640000000 1.0
C      1  0.4701710000000  0.4958490000000  0.4397310000000 1.0
C      1  0.4385520000000  0.5143560000000  0.4784010000000 1.0
C      1  0.4456960000000  0.5205310000000  0.5330520000000 1.0
C      1  0.4983210000000  0.4909560000000  0.5606400000000 1.0
C      1  0.5455000000000  0.4984780000000  0.5334840000000 1.0
C      1  0.5694680000000  0.4694150000000  0.4623520000000 1.0
C      1  0.5212390000000  0.4981160000000  0.4302530000000 1.0
C      1  0.4569560000000  0.4721610000000  0.4320820000000 1.0
C      1  0.4289290000000  0.4833970000000  0.4897620000000 1.0
C      1  0.4452040000000  0.4745490000000  0.5408120000000 1.0
C      1  0.5133680000000  0.4139940000000  0.5171330000000 1.0
C      1  0.5086440000000  0.4395870000000  0.5157190000000 1.0
C      1  0.5159570000000  0.5235950000000  0.5054400000000 1.0
C      1  0.4919110000000  0.5336180000000  0.5058860000000 1.0
END
