TITL C-1154826-9507-125 0.000441461487468289 125000 -336.916431486524 0 0 60 (C2) n - 1
REM
REM in /home/nfs/bkarasulu/CARBON/AIRSS/Generating-Clusters/AIREBO/Higher-Symm/Only-C60
REM
REM
REM
REM
REM
REM ./C.cell (28575a23ae977d3b5fae324c64b13b57)
REM
REM compiler GCC version 9.2.1 20190827 (Red Hat 9.2.1-1)
REM options -cpp -mtune=generic -march=x86-64 -g -O0 -fpre-include=/usr/include/finclude/math-vector-fortran.h
REM seed 1599762935 -569513059 -561355185 -1947708221 -1531101539 -566795739 -1004889458 1755565518 -1645324258 -1915192586 2128357765 -1404618737 -1223153787 1986722370 1380432147 1971808790 807018827 1677837815 -1899830224 -1182522517 -21845155 -463908458 146694467 517869255 2113209350 -782334121 880859222 1386433594 1475005061 1370064313 -1971027784 -1541211645 2116288072
REM
CELL 1.54180   50.00000   50.00000   50.00000   90.00000   90.00000   90.00000
LATT -1
SFAC C  
C      1  0.5248900000000  0.5104050000000  0.4257950000000 1.0
C      1  0.5282980000000  0.5672700000000  0.5106910000000 1.0
C      1  0.5249390000000  0.4896170000000  0.5741920000000 1.0
C      1  0.5283480000000  0.4327570000000  0.4892890000000 1.0
C      1  0.4758990000000  0.5234890000000  0.4332620000000 1.0
C      1  0.4786770000000  0.5628460000000  0.5217670000000 1.0
C      1  0.4759560000000  0.4764920000000  0.5667500000000 1.0
C      1  0.4787180000000  0.4371380000000  0.4782440000000 1.0
C      1  0.4777180000000  0.5039900000000  0.5528330000000 1.0
C      1  0.4817330000000  0.4537210000000  0.5037850000000 1.0
C      1  0.4776930000000  0.4959930000000  0.4471790000000 1.0
C      1  0.4816880000000  0.5462680000000  0.4962240000000 1.0
C      1  0.5114380000000  0.5093070000000  0.5528360000000 1.0
C      1  0.5143190000000  0.4524280000000  0.5094790000000 1.0
C      1  0.5114170000000  0.4907030000000  0.4471580000000 1.0
C      1  0.5142700000000  0.5475870000000  0.4905130000000 1.0
C      1  0.4645580000000  0.5007650000000  0.5261360000000 1.0
C      1  0.4758210000000  0.4826610000000  0.5000680000000 1.0
C      1  0.4645440000000  0.4992080000000  0.4738830000000 1.0
C      1  0.4758050000000  0.5173220000000  0.4999440000000 1.0
C      1  0.5245270000000  0.5033650000000  0.5268430000000 1.0
C      1  0.5240430000000  0.4802860000000  0.5029430000000 1.0
C      1  0.5245150000000  0.4966560000000  0.4731430000000 1.0
C      1  0.5240150000000  0.5197360000000  0.4970460000000 1.0
C      1  0.5354370000000  0.5584700000000  0.5429380000000 1.0
C      1  0.5348980000000  0.4597470000000  0.5611590000000 1.0
C      1  0.5354600000000  0.4415580000000  0.4570370000000 1.0
C      1  0.5348310000000  0.5402810000000  0.4388270000000 1.0
C      1  0.4631280000000  0.5501340000000  0.5419250000000 1.0
C      1  0.4630880000000  0.4571460000000  0.5497430000000 1.0
C      1  0.4631460000000  0.4498370000000  0.4580960000000 1.0
C      1  0.4630230000000  0.5428240000000  0.4502750000000 1.0
C      1  0.5561070000000  0.4811190000000  0.4916650000000 1.0
C      1  0.5559670000000  0.5108860000000  0.4752350000000 1.0
C      1  0.5560920000000  0.5189180000000  0.5082890000000 1.0
C      1  0.5559900000000  0.4891680000000  0.5247490000000 1.0
C      1  0.4313940000000  0.4791480000000  0.4837980000000 1.0
C      1  0.4353900000000  0.5124930000000  0.4844740000000 1.0
C      1  0.4313850000000  0.5207970000000  0.5162400000000 1.0
C      1  0.4354090000000  0.4874550000000  0.5155610000000 1.0
C      1  0.4814450000000  0.5348810000000  0.5584670000000 1.0
C      1  0.4836050000000  0.4450080000000  0.5337690000000 1.0
C      1  0.4814410000000  0.4651050000000  0.4415430000000 1.0
C      1  0.4835380000000  0.5549800000000  0.4662380000000 1.0
C      1  0.5140100000000  0.5402230000000  0.5620510000000 1.0
C      1  0.5149970000000  0.4417460000000  0.5402710000000 1.0
C      1  0.5140070000000  0.4597890000000  0.4379390000000 1.0
C      1  0.5149240000000  0.5582680000000  0.4597210000000 1.0
C      1  0.4381560000000  0.5395300000000  0.5337970000000 1.0
C      1  0.4382120000000  0.4641910000000  0.5376240000000 1.0
C      1  0.4381700000000  0.4604200000000  0.4662380000000 1.0
C      1  0.4381600000000  0.5357590000000  0.4624080000000 1.0
C      1  0.5586490000000  0.5418220000000  0.5260460000000 1.0
C      1  0.5603730000000  0.4695800000000  0.5448020000000 1.0
C      1  0.5586740000000  0.4582280000000  0.4739010000000 1.0
C      1  0.5603220000000  0.5304730000000  0.4551740000000 1.0
C      1  0.5024080000000  0.5309880000000  0.4348850000000 1.0
C      1  0.5043440000000  0.5618260000000  0.5311720000000 1.0
C      1  0.5024700000000  0.4690140000000  0.5651150000000 1.0
C      1  0.5043770000000  0.4381780000000  0.4688230000000 1.0
END
