TITL C-1154802-8274-61 0.000394815295667039 125000 -315.001394877352 0 0 60 (C1) n - 1
REM
REM in /home/nfs/bkarasulu/CARBON/AIRSS/Generating-Clusters/AIREBO/Higher-Symm/Only-C60
REM
REM
REM
REM
REM
REM ./C.cell (28575a23ae977d3b5fae324c64b13b57)
REM
REM compiler GCC version 9.2.1 20190827 (Red Hat 9.2.1-1)
REM options -cpp -mtune=generic -march=x86-64 -g -O0 -fpre-include=/usr/include/finclude/math-vector-fortran.h
REM seed 1181977434 1669681258 -705541924 -1487632876 1024591939 1873656048 1984449527 1268038450 537120898 -1526842310 1250295157 -1700396892 -754928704 -1578870141 -1617954178 -1602081951 1290858333 -1336318349 -703412896 -794908378 1989835381 -1360930948 2125708250 1729292787 642720512 317567432 -1003830042 467105148 591946503 1834807605 1501297472 1894679100 924528691
REM
CELL 1.54180   50.00000   50.00000   50.00000   90.00000   90.00000   90.00000
LATT -1
SFAC C  
C      1  0.5766380000000  0.5243900000000  0.4675670000000 1.0
C      1  0.5329250000000  0.5189500000000  0.4371910000000 1.0
C      1  0.4704290000000  0.5195110000000  0.4412580000000 1.0
C      1  0.4322790000000  0.5133400000000  0.4870330000000 1.0
C      1  0.4493240000000  0.5307350000000  0.5659130000000 1.0
C      1  0.4937600000000  0.5248780000000  0.5693810000000 1.0
C      1  0.5555510000000  0.5107690000000  0.5316960000000 1.0
C      1  0.5412260000000  0.4592240000000  0.4954500000000 1.0
C      1  0.5226900000000  0.4566960000000  0.4686860000000 1.0
C      1  0.4905450000000  0.4530800000000  0.4597960000000 1.0
C      1  0.4677400000000  0.4551840000000  0.4851080000000 1.0
C      1  0.4562020000000  0.4379180000000  0.5120440000000 1.0
C      1  0.4881740000000  0.4412510000000  0.5163960000000 1.0
C      1  0.5223000000000  0.4462650000000  0.5205790000000 1.0
C      1  0.5338380000000  0.5658730000000  0.4850690000000 1.0
C      1  0.5101600000000  0.5644830000000  0.4678240000000 1.0
C      1  0.4817400000000  0.5638600000000  0.4760380000000 1.0
C      1  0.4658930000000  0.5622960000000  0.5014220000000 1.0
C      1  0.4782370000000  0.5653690000000  0.5273560000000 1.0
C      1  0.5067830000000  0.5610010000000  0.5307100000000 1.0
C      1  0.5297750000000  0.5621860000000  0.5133670000000 1.0
C      1  0.5071770000000  0.4715140000000  0.4355250000000 1.0
C      1  0.4531900000000  0.4658610000000  0.4562780000000 1.0
C      1  0.4322760000000  0.4594150000000  0.5189420000000 1.0
C      1  0.4566190000000  0.4808340000000  0.5601310000000 1.0
C      1  0.5081850000000  0.4882820000000  0.6026010000000 1.0
C      1  0.5600910000000  0.4586820000000  0.5214230000000 1.0
C      1  0.5601880000000  0.4842600000000  0.4370170000000 1.0
C      1  0.5329570000000  0.4664240000000  0.5437170000000 1.0
C      1  0.5398290000000  0.4898860000000  0.4816820000000 1.0
C      1  0.5095060000000  0.4878720000000  0.4652570000000 1.0
C      1  0.4755070000000  0.4888890000000  0.4661050000000 1.0
C      1  0.4596320000000  0.4775530000000  0.5100320000000 1.0
C      1  0.4796200000000  0.4849960000000  0.5365400000000 1.0
C      1  0.5110360000000  0.4877560000000  0.5492720000000 1.0
C      1  0.5229800000000  0.5148570000000  0.5349970000000 1.0
C      1  0.5299880000000  0.5223210000000  0.5024430000000 1.0
C      1  0.5370820000000  0.5207920000000  0.4692120000000 1.0
C      1  0.4991290000000  0.5193440000000  0.4574860000000 1.0
C      1  0.4677090000000  0.5141910000000  0.4816180000000 1.0
C      1  0.4603590000000  0.5122890000000  0.5147710000000 1.0
C      1  0.4778360000000  0.5187020000000  0.5406610000000 1.0
C      1  0.4644380000000  0.5484300000000  0.5463410000000 1.0
C      1  0.5109020000000  0.5393810000000  0.5488640000000 1.0
C      1  0.5502710000000  0.5408290000000  0.5225090000000 1.0
C      1  0.5543210000000  0.5466030000000  0.4764290000000 1.0
C      1  0.5146890000000  0.5448140000000  0.4467380000000 1.0
C      1  0.4669660000000  0.5423540000000  0.4625830000000 1.0
C      1  0.4461470000000  0.5404740000000  0.5021220000000 1.0
C      1  0.5321590000000  0.4907870000000  0.4290820000000 1.0
C      1  0.4592790000000  0.4917470000000  0.4364460000000 1.0
C      1  0.4288400000000  0.4875990000000  0.4996480000000 1.0
C      1  0.4428100000000  0.5037800000000  0.5677800000000 1.0
C      1  0.5058910000000  0.5001880000000  0.5784270000000 1.0
C      1  0.5608070000000  0.4847960000000  0.5388230000000 1.0
C      1  0.5675010000000  0.4962420000000  0.4627970000000 1.0
C      1  0.4997430000000  0.5197650000000  0.4915820000000 1.0
C      1  0.5026940000000  0.4359070000000  0.4866860000000 1.0
C      1  0.4957910000000  0.4939530000000  0.5080040000000 1.0
C      1  0.5028750000000  0.4666560000000  0.5016760000000 1.0
END
