TITL C-1154816-9297-512 -0.00341437387046347 125000 -349.144100368121 0 0 60 (C1) n - 1
REM
REM in /home/nfs/bkarasulu/CARBON/AIRSS/Generating-Clusters/AIREBO/Higher-Symm/Only-C60
REM
REM
REM
REM
REM
REM ./C.cell (28575a23ae977d3b5fae324c64b13b57)
REM
REM compiler GCC version 9.2.1 20190827 (Red Hat 9.2.1-1)
REM options -cpp -mtune=generic -march=x86-64 -g -O0 -fpre-include=/usr/include/finclude/math-vector-fortran.h
REM seed 105979531 1651753692 1161515594 -1652155623 725615194 1517214139 -356325396 1832850692 -636470880 1541704166 -654227483 1178307369 -133399959 1846623710 933315619 1295932090 -2082229326 290218793 1629113639 -2078928652 -1603539111 -522640917 -698410660 -138438635 1728558806 1943280363 1341864307 -1547590832 405315657 -1855820342 -1738309913 1572940217 648964938
REM
CELL 1.54180   50.00000   50.00000   50.00000   90.00000   90.00000   90.00000
LATT -1
SFAC C  
C      1  0.4504200000000  0.4577820000000  0.5241480000000 1.0
C      1  0.4919840000000  0.4714200000000  0.5586190000000 1.0
C      1  0.5387080000000  0.5170650000000  0.4604650000000 1.0
C      1  0.4443930000000  0.4276310000000  0.5664280000000 1.0
C      1  0.5815430000000  0.4762000000000  0.4896810000000 1.0
C      1  0.4611740000000  0.5474940000000  0.4852330000000 1.0
C      1  0.5588320000000  0.5188330000000  0.4812360000000 1.0
C      1  0.5398320000000  0.5489370000000  0.5402880000000 1.0
C      1  0.4667040000000  0.4330610000000  0.5813860000000 1.0
C      1  0.4372480000000  0.4434110000000  0.4785070000000 1.0
C      1  0.4528210000000  0.5295390000000  0.4652430000000 1.0
C      1  0.5017410000000  0.4528440000000  0.4756830000000 1.0
C      1  0.4508530000000  0.4770630000000  0.4346180000000 1.0
C      1  0.5638720000000  0.5465140000000  0.4862780000000 1.0
C      1  0.4501080000000  0.5006980000000  0.4522420000000 1.0
C      1  0.5525580000000  0.5617540000000  0.4646430000000 1.0
C      1  0.4373940000000  0.4827040000000  0.4100080000000 1.0
C      1  0.4361350000000  0.5071730000000  0.4800660000000 1.0
C      1  0.5267440000000  0.4939320000000  0.4545430000000 1.0
C      1  0.6076980000000  0.4044770000000  0.4679620000000 1.0
C      1  0.4522200000000  0.5398270000000  0.5113180000000 1.0
C      1  0.5567070000000  0.5605750000000  0.5141900000000 1.0
C      1  0.4560050000000  0.4456020000000  0.4978080000000 1.0
C      1  0.6000980000000  0.4286310000000  0.4747340000000 1.0
C      1  0.4496260000000  0.4912040000000  0.5242030000000 1.0
C      1  0.5485240000000  0.5887290000000  0.5021440000000 1.0
C      1  0.5178530000000  0.5309340000000  0.5574530000000 1.0
C      1  0.4877280000000  0.5866470000000  0.5114780000000 1.0
C      1  0.5699260000000  0.5070540000000  0.5260030000000 1.0
C      1  0.4109980000000  0.4407630000000  0.4604410000000 1.0
C      1  0.5002750000000  0.4734510000000  0.4485430000000 1.0
C      1  0.4350400000000  0.4410070000000  0.5446820000000 1.0
C      1  0.5263800000000  0.5081300000000  0.5697480000000 1.0
C      1  0.5391990000000  0.5855600000000  0.4750190000000 1.0
C      1  0.4734100000000  0.4772110000000  0.5393130000000 1.0
C      1  0.5181040000000  0.4821550000000  0.5584180000000 1.0
C      1  0.4798190000000  0.4695070000000  0.4285240000000 1.0
C      1  0.5410330000000  0.4707590000000  0.5448520000000 1.0
C      1  0.5703640000000  0.4997700000000  0.4987260000000 1.0
C      1  0.5555570000000  0.5049160000000  0.5721200000000 1.0
C      1  0.4467290000000  0.5540960000000  0.5568330000000 1.0
C      1  0.4605820000000  0.5535410000000  0.5337310000000 1.0
C      1  0.5899300000000  0.4523740000000  0.4812390000000 1.0
C      1  0.4355380000000  0.5130120000000  0.5104210000000 1.0
C      1  0.5094940000000  0.5611680000000  0.4485520000000 1.0
C      1  0.4856300000000  0.5669780000000  0.5311550000000 1.0
C      1  0.5330550000000  0.5439710000000  0.4507710000000 1.0
C      1  0.4855900000000  0.4589880000000  0.4051730000000 1.0
C      1  0.5679630000000  0.5341780000000  0.5310300000000 1.0
C      1  0.4924570000000  0.5923570000000  0.4854040000000 1.0
C      1  0.4822930000000  0.4413920000000  0.4902430000000 1.0
C      1  0.4833420000000  0.4546430000000  0.5794400000000 1.0
C      1  0.5076240000000  0.5565840000000  0.5427500000000 1.0
C      1  0.3878190000000  0.4296200000000  0.4558240000000 1.0
C      1  0.5424840000000  0.4468750000000  0.5328380000000 1.0
C      1  0.4091960000000  0.5168880000000  0.5200890000000 1.0
C      1  0.5631120000000  0.4902170000000  0.5476600000000 1.0
C      1  0.4371360000000  0.4548270000000  0.4488320000000 1.0
C      1  0.5289370000000  0.4636000000000  0.4641000000000 1.0
C      1  0.5114610000000  0.5837290000000  0.4669190000000 1.0
END
