TITL C-1154808-8168-73 7.60624419880237e-05 125000 -349.574893563897 0 0 60 (C1) n - 1
REM
REM in /home/nfs/bkarasulu/CARBON/AIRSS/Generating-Clusters/AIREBO/Higher-Symm/Only-C60
REM
REM
REM
REM
REM
REM ./C.cell (28575a23ae977d3b5fae324c64b13b57)
REM
REM compiler GCC version 9.2.1 20190827 (Red Hat 9.2.1-1)
REM options -cpp -mtune=generic -march=x86-64 -g -O0 -fpre-include=/usr/include/finclude/math-vector-fortran.h
REM seed -369633556 512095747 1624179146 -509347080 252518027 -458619016 995331476 1290596589 1054567503 1042745594 -537561030 -653028776 665278597 1332343399 -1843484513 1263516569 491782356 1438725012 -1087588267 -1244169760 -351843805 -2081566725 -1343617253 -931915590 -151703644 1420939139 -1440108549 -215993318 1168706216 -912503701 1596202513 -1227700141 -439391552
REM
CELL 1.54180   50.00000   50.00000   50.00000   90.00000   90.00000   90.00000
LATT -1
SFAC C  
C      1  0.4848040000000  0.5727290000000  0.5332870000000 1.0
C      1  0.5339500000000  0.5671090000000  0.5131660000000 1.0
C      1  0.5125500000000  0.5658670000000  0.4632050000000 1.0
C      1  0.4630390000000  0.5724050000000  0.4835050000000 1.0
C      1  0.5158230000000  0.5697890000000  0.5338500000000 1.0
C      1  0.4648690000000  0.5692180000000  0.5140720000000 1.0
C      1  0.4819130000000  0.5709990000000  0.4633390000000 1.0
C      1  0.5322900000000  0.5688410000000  0.4823370000000 1.0
C      1  0.4803520000000  0.4946950000000  0.4412420000000 1.0
C      1  0.4264180000000  0.4866460000000  0.5041110000000 1.0
C      1  0.5213740000000  0.5007930000000  0.5701530000000 1.0
C      1  0.5659800000000  0.4954430000000  0.4923970000000 1.0
C      1  0.5142160000000  0.4945980000000  0.4389320000000 1.0
C      1  0.5691520000000  0.4981080000000  0.5262920000000 1.0
C      1  0.4874360000000  0.4989190000000  0.5714520000000 1.0
C      1  0.4313520000000  0.4943680000000  0.4781950000000 1.0
C      1  0.5212340000000  0.4685040000000  0.4540960000000 1.0
C      1  0.4390010000000  0.4739790000000  0.4613900000000 1.0
C      1  0.4739870000000  0.4798690000000  0.5463740000000 1.0
C      1  0.5533960000000  0.4677740000000  0.5306690000000 1.0
C      1  0.4623930000000  0.4696670000000  0.4427940000000 1.0
C      1  0.5775620000000  0.4686790000000  0.4823840000000 1.0
C      1  0.5282110000000  0.4727120000000  0.5523190000000 1.0
C      1  0.4498150000000  0.4722270000000  0.5227450000000 1.0
C      1  0.4739270000000  0.4425430000000  0.4497670000000 1.0
C      1  0.4627970000000  0.4466870000000  0.5074440000000 1.0
C      1  0.5180000000000  0.4493550000000  0.5321020000000 1.0
C      1  0.5366620000000  0.4331610000000  0.4800360000000 1.0
C      1  0.5213100000000  0.4408120000000  0.4583960000000 1.0
C      1  0.5424490000000  0.4434010000000  0.5119890000000 1.0
C      1  0.4838260000000  0.4530770000000  0.5308090000000 1.0
C      1  0.4536280000000  0.4473400000000  0.4746520000000 1.0
C      1  0.5278300000000  0.5178160000000  0.4482150000000 1.0
C      1  0.4455260000000  0.5233000000000  0.4729400000000 1.0
C      1  0.4748940000000  0.5272810000000  0.5570300000000 1.0
C      1  0.5549630000000  0.5255200000000  0.5364860000000 1.0
C      1  0.4673390000000  0.5230300000000  0.4488790000000 1.0
C      1  0.5500200000000  0.5189140000000  0.4730580000000 1.0
C      1  0.5363920000000  0.5279750000000  0.5575480000000 1.0
C      1  0.4520100000000  0.5255690000000  0.5335530000000 1.0
C      1  0.4420680000000  0.5495150000000  0.4880270000000 1.0
C      1  0.4891910000000  0.5533990000000  0.5581710000000 1.0
C      1  0.5563040000000  0.5459780000000  0.5173390000000 1.0
C      1  0.5149240000000  0.5421200000000  0.4432840000000 1.0
C      1  0.5534730000000  0.5460720000000  0.4857670000000 1.0
C      1  0.5206530000000  0.5513850000000  0.5589100000000 1.0
C      1  0.4433260000000  0.5478820000000  0.5196110000000 1.0
C      1  0.4835800000000  0.5451980000000  0.4455250000000 1.0
C      1  0.5114820000000  0.4846130000000  0.4773950000000 1.0
C      1  0.4681030000000  0.5069560000000  0.4873800000000 1.0
C      1  0.4872500000000  0.5076690000000  0.5328910000000 1.0
C      1  0.5367980000000  0.4941510000000  0.5196720000000 1.0
C      1  0.4878310000000  0.4967720000000  0.4721540000000 1.0
C      1  0.5323420000000  0.4982780000000  0.4905740000000 1.0
C      1  0.5145230000000  0.5012990000000  0.5375980000000 1.0
C      1  0.4619130000000  0.5012590000000  0.5150520000000 1.0
C      1  0.5646620000000  0.4455850000000  0.4869440000000 1.0
C      1  0.4979160000000  0.4289380000000  0.4478490000000 1.0
C      1  0.4980260000000  0.4270710000000  0.5442510000000 1.0
C      1  0.4429480000000  0.4234810000000  0.4963950000000 1.0
END
