TITL C-1154826-9507-90 0.000682150185744327 125000 -326.264999264647 0 0 60 (C1) n - 1
REM
REM in /home/nfs/bkarasulu/CARBON/AIRSS/Generating-Clusters/AIREBO/Higher-Symm/Only-C60
REM
REM
REM
REM
REM
REM ./C.cell (28575a23ae977d3b5fae324c64b13b57)
REM
REM compiler GCC version 9.2.1 20190827 (Red Hat 9.2.1-1)
REM options -cpp -mtune=generic -march=x86-64 -g -O0 -fpre-include=/usr/include/finclude/math-vector-fortran.h
REM seed 404404844 745538010 -1306531439 -913823945 -391175819 -1658344551 -8129078 -1141200697 675483633 -1970104664 1416388421 -701473366 -1165596845 872041336 1764920884 1244617390 -256558242 1198599887 -1246571861 -491950571 1560278671 168876572 1041111839 -514708022 -1475207461 -272814143 -575999570 -606053341 1556951065 -2064746945 -437362754 -1897489578 96178196
REM
CELL 1.54180   50.00000   50.00000   50.00000   90.00000   90.00000   90.00000
LATT -1
SFAC C  
C      1  0.5268080000000  0.5530250000000  0.5138750000000 1.0
C      1  0.4750120000000  0.5531670000000  0.5171210000000 1.0
C      1  0.4974990000000  0.5542390000000  0.4714660000000 1.0
C      1  0.5480090000000  0.5571860000000  0.4669340000000 1.0
C      1  0.5047250000000  0.5576870000000  0.5599380000000 1.0
C      1  0.4459400000000  0.5615600000000  0.4762180000000 1.0
C      1  0.5672020000000  0.5057970000000  0.4798270000000 1.0
C      1  0.4834040000000  0.5039490000000  0.5667420000000 1.0
C      1  0.4502520000000  0.5085130000000  0.4523320000000 1.0
C      1  0.5377070000000  0.5205070000000  0.5554460000000 1.0
C      1  0.4315860000000  0.5234260000000  0.5057580000000 1.0
C      1  0.5263820000000  0.5211560000000  0.4396820000000 1.0
C      1  0.4762710000000  0.5124490000000  0.4403500000000 1.0
C      1  0.5629720000000  0.5052440000000  0.5111690000000 1.0
C      1  0.4609140000000  0.5035370000000  0.5459340000000 1.0
C      1  0.4401590000000  0.4843140000000  0.4609700000000 1.0
C      1  0.5677540000000  0.4812990000000  0.4662260000000 1.0
C      1  0.4951440000000  0.4799560000000  0.5749500000000 1.0
C      1  0.4546300000000  0.4706130000000  0.4885430000000 1.0
C      1  0.5380720000000  0.4688540000000  0.4595780000000 1.0
C      1  0.5119870000000  0.4641700000000  0.5516500000000 1.0
C      1  0.5221060000000  0.5493770000000  0.4491600000000 1.0
C      1  0.5330490000000  0.5487670000000  0.5467560000000 1.0
C      1  0.4430750000000  0.5512440000000  0.5070460000000 1.0
C      1  0.5077610000000  0.5116600000000  0.5304540000000 1.0
C      1  0.4658300000000  0.5114800000000  0.4890400000000 1.0
C      1  0.5222080000000  0.5099930000000  0.4778200000000 1.0
C      1  0.5498060000000  0.4438650000000  0.5206960000000 1.0
C      1  0.4604700000000  0.4473090000000  0.5271700000000 1.0
C      1  0.4951260000000  0.4378290000000  0.4682600000000 1.0
C      1  0.5634300000000  0.4739120000000  0.5169090000000 1.0
C      1  0.4474200000000  0.4721820000000  0.5454750000000 1.0
C      1  0.4951380000000  0.4549650000000  0.4388030000000 1.0
C      1  0.4863260000000  0.4919760000000  0.5173180000000 1.0
C      1  0.4846970000000  0.4916860000000  0.4729330000000 1.0
C      1  0.5270960000000  0.4896440000000  0.5033820000000 1.0
C      1  0.4997550000000  0.5620780000000  0.5301220000000 1.0
C      1  0.4744190000000  0.5641490000000  0.4865770000000 1.0
C      1  0.5252780000000  0.5630830000000  0.4861900000000 1.0
C      1  0.4855930000000  0.4626210000000  0.5001290000000 1.0
C      1  0.5083540000000  0.4683080000000  0.4754930000000 1.0
C      1  0.5142380000000  0.4619980000000  0.5184490000000 1.0
C      1  0.5484890000000  0.5244490000000  0.4653900000000 1.0
C      1  0.5042720000000  0.5247360000000  0.5600600000000 1.0
C      1  0.4420380000000  0.5293460000000  0.4738910000000 1.0
C      1  0.4706360000000  0.5216640000000  0.5188490000000 1.0
C      1  0.4961800000000  0.5229120000000  0.4658570000000 1.0
C      1  0.5331280000000  0.5212770000000  0.5143340000000 1.0
C      1  0.4358760000000  0.5025200000000  0.5229320000000 1.0
C      1  0.5069250000000  0.5018980000000  0.4337860000000 1.0
C      1  0.5518400000000  0.5009290000000  0.5430650000000 1.0
C      1  0.4721260000000  0.4619540000000  0.4615490000000 1.0
C      1  0.5440240000000  0.4624040000000  0.4920760000000 1.0
C      1  0.4810550000000  0.4696930000000  0.5391990000000 1.0
C      1  0.5229080000000  0.4320920000000  0.5073670000000 1.0
C      1  0.4735800000000  0.4313140000000  0.5057610000000 1.0
C      1  0.5077180000000  0.4194170000000  0.4887120000000 1.0
C      1  0.5440590000000  0.4680910000000  0.5442480000000 1.0
C      1  0.4363310000000  0.4717830000000  0.5133350000000 1.0
C      1  0.5152120000000  0.4747450000000  0.4366960000000 1.0
END
