TITL C-1154804-8633-274 -0.000380906571661288 125000 -333.012833622386 0 0 60 (C1) n - 1
REM
REM in /home/nfs/bkarasulu/CARBON/AIRSS/Generating-Clusters/AIREBO/Higher-Symm/Only-C60
REM
REM
REM
REM
REM
REM ./C.cell (28575a23ae977d3b5fae324c64b13b57)
REM
REM compiler GCC version 9.2.1 20190827 (Red Hat 9.2.1-1)
REM options -cpp -mtune=generic -march=x86-64 -g -O0 -fpre-include=/usr/include/finclude/math-vector-fortran.h
REM seed -1157535006 -758872021 318413954 -313316563 1032340344 2052945666 470715114 -415859276 212842223 868363473 -1787144968 -1434635554 -1288424148 490222049 1355112630 1919412422 1741478329 -1171260794 -295469691 1635685975 1089999983 -437889921 -1806321255 -1262518880 489073285 -152183104 407559006 -636342198 1161670705 1353633865 1447116762 573727180 -1262185351
REM
CELL 1.54180   50.00000   50.00000   50.00000   90.00000   90.00000   90.00000
LATT -1
SFAC C  
C      1  0.4737910000000  0.4633260000000  0.4906940000000 1.0
C      1  0.5279900000000  0.4603270000000  0.5137780000000 1.0
C      1  0.5365780000000  0.5486270000000  0.5114100000000 1.0
C      1  0.4551410000000  0.5552420000000  0.4822880000000 1.0
C      1  0.5666490000000  0.4723290000000  0.4811000000000 1.0
C      1  0.4322250000000  0.4731260000000  0.5182090000000 1.0
C      1  0.4995490000000  0.5579430000000  0.4403370000000 1.0
C      1  0.4992930000000  0.5526080000000  0.5498410000000 1.0
C      1  0.5434370000000  0.5518140000000  0.4721660000000 1.0
C      1  0.4704030000000  0.5203790000000  0.5162280000000 1.0
C      1  0.4732570000000  0.4878170000000  0.5115090000000 1.0
C      1  0.5189640000000  0.4920450000000  0.5042530000000 1.0
C      1  0.5278690000000  0.5428680000000  0.5416390000000 1.0
C      1  0.4753490000000  0.5469250000000  0.4561950000000 1.0
C      1  0.4858670000000  0.5217040000000  0.4739680000000 1.0
C      1  0.5117550000000  0.5177870000000  0.5252880000000 1.0
C      1  0.5623850000000  0.5367060000000  0.4957530000000 1.0
C      1  0.4435660000000  0.5320790000000  0.5045490000000 1.0
C      1  0.4622120000000  0.4965990000000  0.4715760000000 1.0
C      1  0.5439180000000  0.4943000000000  0.5272390000000 1.0
C      1  0.5267300000000  0.4886910000000  0.5561420000000 1.0
C      1  0.4759790000000  0.4841370000000  0.4434790000000 1.0
C      1  0.5615260000000  0.5214970000000  0.4667810000000 1.0
C      1  0.4336920000000  0.5193210000000  0.5319190000000 1.0
C      1  0.4431070000000  0.5422990000000  0.4464420000000 1.0
C      1  0.5585250000000  0.5365210000000  0.5529280000000 1.0
C      1  0.4188550000000  0.4958400000000  0.5281200000000 1.0
C      1  0.5758270000000  0.4953570000000  0.4706650000000 1.0
C      1  0.5201540000000  0.5701520000000  0.4985880000000 1.0
C      1  0.4727680000000  0.5593080000000  0.5067270000000 1.0
C      1  0.5253910000000  0.5508860000000  0.4438660000000 1.0
C      1  0.4775360000000  0.5392740000000  0.5435950000000 1.0
C      1  0.5077990000000  0.4958760000000  0.4769040000000 1.0
C      1  0.4934020000000  0.4936100000000  0.5348660000000 1.0
C      1  0.4960700000000  0.4971810000000  0.4294250000000 1.0
C      1  0.5069280000000  0.5014140000000  0.5716680000000 1.0
C      1  0.4917280000000  0.4700130000000  0.4672190000000 1.0
C      1  0.5098060000000  0.4667040000000  0.5397290000000 1.0
C      1  0.5803500000000  0.4545330000000  0.5272300000000 1.0
C      1  0.4235740000000  0.4611840000000  0.4695360000000 1.0
C      1  0.4959090000000  0.5398940000000  0.5080990000000 1.0
C      1  0.5119300000000  0.5425600000000  0.4805000000000 1.0
C      1  0.5594730000000  0.4689910000000  0.5106850000000 1.0
C      1  0.4433380000000  0.4742110000000  0.4889600000000 1.0
C      1  0.4793940000000  0.4334160000000  0.4971450000000 1.0
C      1  0.5179260000000  0.4319860000000  0.5067960000000 1.0
C      1  0.5367840000000  0.5230560000000  0.4458000000000 1.0
C      1  0.4537240000000  0.5207640000000  0.5524960000000 1.0
C      1  0.5177200000000  0.5035380000000  0.4470700000000 1.0
C      1  0.4777960000000  0.5033780000000  0.5607980000000 1.0
C      1  0.4629170000000  0.4477300000000  0.5522630000000 1.0
C      1  0.5346730000000  0.4474960000000  0.4492810000000 1.0
C      1  0.4898060000000  0.4440460000000  0.5447950000000 1.0
C      1  0.5091000000000  0.4461970000000  0.4600750000000 1.0
C      1  0.5047580000000  0.4264430000000  0.4794790000000 1.0
C      1  0.4932900000000  0.4254250000000  0.5241040000000 1.0
C      1  0.4408490000000  0.4538500000000  0.5369150000000 1.0
C      1  0.5574960000000  0.4530800000000  0.4631850000000 1.0
C      1  0.5571680000000  0.5216110000000  0.5251720000000 1.0
C      1  0.4460060000000  0.5239760000000  0.4725330000000 1.0
END
