TITL C-1154816-9297-242 -545.053699501755 125000 -315.059449203612 0 0 60 (C1) n - 1
REM
REM in /home/nfs/bkarasulu/CARBON/AIRSS/Generating-Clusters/AIREBO/Higher-Symm/Only-C60
REM
REM
REM
REM
REM
REM ./C.cell (28575a23ae977d3b5fae324c64b13b57)
REM
REM compiler GCC version 9.2.1 20190827 (Red Hat 9.2.1-1)
REM options -cpp -mtune=generic -march=x86-64 -g -O0 -fpre-include=/usr/include/finclude/math-vector-fortran.h
REM seed 1250282349 1360642453 -1214418120 274215736 -108146399 -916921102 263921238 754701771 -983585538 -578008117 -659224542 448970932 -1170496278 1284413584 171445114 1185984236 -569138262 1718065502 -704327853 115664216 -1356550797 105269129 53955761 1623673084 -895857839 1378933489 192979995 1043309945 -353081993 1170098043 -542581630 -1460440488 -1844280843
REM
CELL 1.54180   50.00000   50.00000   50.00000   90.00000   90.00000   90.00000
LATT -1
SFAC C  
C      1  0.4541760000000  0.5058710000000  0.5475720000000 1.0
C      1  0.5075950000000  0.4978020000000  0.5614720000000 1.0
C      1  0.5583600000000  0.4892530000000  0.5527310000000 1.0
C      1  0.5694610000000  0.4893950000000  0.4884710000000 1.0
C      1  0.5369050000000  0.4983240000000  0.4432400000000 1.0
C      1  0.4530290000000  0.5001460000000  0.4456630000000 1.0
C      1  0.4329130000000  0.4966400000000  0.4899810000000 1.0
C      1  0.4681200000000  0.4578360000000  0.5605310000000 1.0
C      1  0.5295090000000  0.4530460000000  0.5585960000000 1.0
C      1  0.5586620000000  0.4503370000000  0.5216120000000 1.0
C      1  0.5593880000000  0.4562390000000  0.4687930000000 1.0
C      1  0.5058550000000  0.4550100000000  0.4453160000000 1.0
C      1  0.4471040000000  0.4551660000000  0.4608630000000 1.0
C      1  0.4540500000000  0.4633120000000  0.5148160000000 1.0
C      1  0.5548190000000  0.5609270000000  0.5135310000000 1.0
C      1  0.5461170000000  0.5524720000000  0.4616570000000 1.0
C      1  0.4971280000000  0.5361610000000  0.4456890000000 1.0
C      1  0.4539360000000  0.5442470000000  0.4753400000000 1.0
C      1  0.4487470000000  0.5456060000000  0.5236280000000 1.0
C      1  0.4811070000000  0.5465990000000  0.5563950000000 1.0
C      1  0.5110650000000  0.5421850000000  0.5422160000000 1.0
C      1  0.4931950000000  0.5704600000000  0.5347600000000 1.0
C      1  0.5227650000000  0.5644230000000  0.5213320000000 1.0
C      1  0.5315550000000  0.5665350000000  0.4889870000000 1.0
C      1  0.5137490000000  0.5627860000000  0.4602620000000 1.0
C      1  0.4801240000000  0.5616890000000  0.4603590000000 1.0
C      1  0.4631760000000  0.5755710000000  0.4847990000000 1.0
C      1  0.4710520000000  0.5655130000000  0.5135480000000 1.0
C      1  0.4707910000000  0.5228760000000  0.4605250000000 1.0
C      1  0.4463230000000  0.5262070000000  0.4998840000000 1.0
C      1  0.4578610000000  0.5332830000000  0.5471390000000 1.0
C      1  0.5242620000000  0.5145170000000  0.5383280000000 1.0
C      1  0.5423160000000  0.5300790000000  0.5139320000000 1.0
C      1  0.5364170000000  0.5264850000000  0.4817300000000 1.0
C      1  0.5275340000000  0.5266970000000  0.4499480000000 1.0
C      1  0.5588940000000  0.4875410000000  0.4589700000000 1.0
C      1  0.5153420000000  0.4831560000000  0.4344450000000 1.0
C      1  0.4361650000000  0.4854020000000  0.4638040000000 1.0
C      1  0.4378810000000  0.4902780000000  0.5232390000000 1.0
C      1  0.4759210000000  0.4875900000000  0.5614970000000 1.0
C      1  0.5342800000000  0.4801480000000  0.5634340000000 1.0
C      1  0.5681720000000  0.4800950000000  0.5221160000000 1.0
C      1  0.4893670000000  0.4958830000000  0.5314600000000 1.0
C      1  0.5194370000000  0.4830360000000  0.5264040000000 1.0
C      1  0.5423030000000  0.4966710000000  0.5075950000000 1.0
C      1  0.5220930000000  0.4955930000000  0.4802720000000 1.0
C      1  0.4851120000000  0.4888840000000  0.4456450000000 1.0
C      1  0.4755850000000  0.4937990000000  0.4779250000000 1.0
C      1  0.4671890000000  0.5013440000000  0.5100230000000 1.0
C      1  0.4766930000000  0.4548020000000  0.4527020000000 1.0
C      1  0.4605010000000  0.4649380000000  0.4877510000000 1.0
C      1  0.4686220000000  0.4479430000000  0.5338620000000 1.0
C      1  0.4931880000000  0.4377400000000  0.5240270000000 1.0
C      1  0.5248830000000  0.4499670000000  0.5255520000000 1.0
C      1  0.5387110000000  0.4468630000000  0.4942990000000 1.0
C      1  0.5274640000000  0.4645140000000  0.4675350000000 1.0
C      1  0.4856460000000  0.5394670000000  0.4991810000000 1.0
C      1  0.4972640000000  0.4480180000000  0.4967860000000 1.0
C      1  0.4974810000000  0.5171250000000  0.4895950000000 1.0
C      1  0.4988990000000  0.4744330000000  0.4933360000000 1.0
END
