TITL C-1154808-8168-592 -0.000105990602502625 125000 -307.919853567843 0 0 60 (C1) n - 1
REM
REM in /home/nfs/bkarasulu/CARBON/AIRSS/Generating-Clusters/AIREBO/Higher-Symm/Only-C60
REM
REM
REM
REM
REM
REM ./C.cell (28575a23ae977d3b5fae324c64b13b57)
REM
REM compiler GCC version 9.2.1 20190827 (Red Hat 9.2.1-1)
REM options -cpp -mtune=generic -march=x86-64 -g -O0 -fpre-include=/usr/include/finclude/math-vector-fortran.h
REM seed 1408545196 1010187597 -2035766587 1963257241 2018776525 -1905341592 -2096562777 -674651197 -748583322 137211843 124091156 1507216269 1568580067 -1133307181 -1127470053 1469944489 1701006905 -205575091 -799956390 2002388943 -524161516 -1598426564 1800008433 1766973772 -252539749 -1848645056 -1506850493 -539043896 -1499317383 -1232672884 -99032046 -1730552014 1705501620
REM
CELL 1.54180   50.00000   50.00000   50.00000   90.00000   90.00000   90.00000
LATT -1
SFAC C  
C      1  0.4418820000000  0.4869610000000  0.4474890000000 1.0
C      1  0.5626140000000  0.5004740000000  0.5516570000000 1.0
C      1  0.5139460000000  0.5535630000000  0.5451580000000 1.0
C      1  0.4790260000000  0.4488130000000  0.4570830000000 1.0
C      1  0.5037210000000  0.4553740000000  0.5749190000000 1.0
C      1  0.5110670000000  0.5564790000000  0.4300020000000 1.0
C      1  0.5518340000000  0.4884590000000  0.4702150000000 1.0
C      1  0.4466820000000  0.5113340000000  0.5264030000000 1.0
C      1  0.5394060000000  0.5454590000000  0.5346360000000 1.0
C      1  0.4556430000000  0.4404970000000  0.4755880000000 1.0
C      1  0.5429740000000  0.4390900000000  0.4663070000000 1.0
C      1  0.4557900000000  0.5609660000000  0.5373870000000 1.0
C      1  0.4992630000000  0.4319670000000  0.5367250000000 1.0
C      1  0.5046160000000  0.5707300000000  0.4736740000000 1.0
C      1  0.5279740000000  0.4679570000000  0.4571680000000 1.0
C      1  0.4681610000000  0.5308260000000  0.5388460000000 1.0
C      1  0.4836680000000  0.4639420000000  0.4349150000000 1.0
C      1  0.5052280000000  0.5388650000000  0.5677310000000 1.0
C      1  0.4799220000000  0.5352160000000  0.4958610000000 1.0
C      1  0.5141460000000  0.4649050000000  0.4988890000000 1.0
C      1  0.4435910000000  0.4855840000000  0.5348410000000 1.0
C      1  0.5593460000000  0.5151740000000  0.4666700000000 1.0
C      1  0.4498850000000  0.4733790000000  0.4691080000000 1.0
C      1  0.5410140000000  0.5116540000000  0.5379960000000 1.0
C      1  0.5052900000000  0.4823210000000  0.4394790000000 1.0
C      1  0.4908790000000  0.5176480000000  0.5561420000000 1.0
C      1  0.4935890000000  0.5744510000000  0.5035860000000 1.0
C      1  0.5047170000000  0.4221230000000  0.4915910000000 1.0
C      1  0.5193670000000  0.5294350000000  0.4976750000000 1.0
C      1  0.4723440000000  0.4717180000000  0.4948780000000 1.0
C      1  0.5341190000000  0.4289310000000  0.4907190000000 1.0
C      1  0.4605420000000  0.5695160000000  0.5085290000000 1.0
C      1  0.5288750000000  0.4446330000000  0.5679060000000 1.0
C      1  0.4856750000000  0.5683380000000  0.4312950000000 1.0
C      1  0.5496660000000  0.5542010000000  0.5032930000000 1.0
C      1  0.4588870000000  0.4373720000000  0.5096940000000 1.0
C      1  0.4982750000000  0.5090100000000  0.4416940000000 1.0
C      1  0.5102160000000  0.4976000000000  0.5416550000000 1.0
C      1  0.4996430000000  0.5230720000000  0.4707220000000 1.0
C      1  0.4919700000000  0.4763990000000  0.5222730000000 1.0
C      1  0.4568190000000  0.4609120000000  0.5342170000000 1.0
C      1  0.5484770000000  0.5399500000000  0.4724280000000 1.0
C      1  0.4776870000000  0.5717020000000  0.4574690000000 1.0
C      1  0.5274740000000  0.4351910000000  0.5408920000000 1.0
C      1  0.4396500000000  0.4632340000000  0.4988520000000 1.0
C      1  0.5458480000000  0.5206330000000  0.5072500000000 1.0
C      1  0.5214670000000  0.5465830000000  0.4594480000000 1.0
C      1  0.4840620000000  0.4570660000000  0.5491100000000 1.0
C      1  0.5285960000000  0.4846350000000  0.5646580000000 1.0
C      1  0.4887950000000  0.5236790000000  0.4205210000000 1.0
C      1  0.5468290000000  0.4693490000000  0.4921640000000 1.0
C      1  0.4473100000000  0.5383230000000  0.5056220000000 1.0
C      1  0.4918360000000  0.5502160000000  0.5239690000000 1.0
C      1  0.5045210000000  0.4480060000000  0.4720150000000 1.0
C      1  0.4873490000000  0.4241660000000  0.5132560000000 1.0
C      1  0.5270560000000  0.5783390000000  0.4980590000000 1.0
C      1  0.5045990000000  0.4939970000000  0.4876500000000 1.0
C      1  0.4859780000000  0.5067040000000  0.5080580000000 1.0
C      1  0.5397350000000  0.4468380000000  0.5166510000000 1.0
C      1  0.4604620000000  0.5560400000000  0.4773120000000 1.0
END
