TITL C-1154803-8277-127 0.0233686113506681 125000 -321.087929935541 0 0 60 (C1) n - 1
REM
REM in /home/nfs/bkarasulu/CARBON/AIRSS/Generating-Clusters/AIREBO/Higher-Symm/Only-C60
REM
REM
REM
REM
REM
REM ./C.cell (28575a23ae977d3b5fae324c64b13b57)
REM
REM compiler GCC version 9.2.1 20190827 (Red Hat 9.2.1-1)
REM options -cpp -mtune=generic -march=x86-64 -g -O0 -fpre-include=/usr/include/finclude/math-vector-fortran.h
REM seed 82222889 -1093064763 1028879791 -113772838 2053807430 1483033001 -501716480 -1871450725 1060507265 1157033151 597988642 -1207981524 241809108 -1456212023 -849430631 1918853496 2109971140 -2081856083 1709697532 230479056 255681415 -1451833202 -386330888 1417597979 1543900301 1153676505 -429755343 1204503441 -1799807665 528630928 -1633830056 382611010 321737400
REM
CELL 1.54180   50.00000   50.00000   50.00000   90.00000   90.00000   90.00000
LATT -1
SFAC C  
C      1  0.4588660000000  0.5303130000000  0.5703690000000 1.0
C      1  0.5732140000000  0.4659760000000  0.5288130000000 1.0
C      1  0.5424010000000  0.5736990000000  0.4603980000000 1.0
C      1  0.5285960000000  0.5306540000000  0.4172390000000 1.0
C      1  0.4696290000000  0.4788790000000  0.4235990000000 1.0
C      1  0.5397440000000  0.4679750000000  0.5742050000000 1.0
C      1  0.4264300000000  0.4393660000000  0.4751980000000 1.0
C      1  0.5627220000000  0.5519000000000  0.4624010000000 1.0
C      1  0.4209660000000  0.5337190000000  0.5269910000000 1.0
C      1  0.4709840000000  0.5742550000000  0.5379380000000 1.0
C      1  0.5419110000000  0.4184390000000  0.5326730000000 1.0
C      1  0.4711550000000  0.4260830000000  0.4488470000000 1.0
C      1  0.4435580000000  0.4719040000000  0.5623510000000 1.0
C      1  0.5698640000000  0.5500830000000  0.5345270000000 1.0
C      1  0.5358020000000  0.4329000000000  0.4580470000000 1.0
C      1  0.5325540000000  0.4499520000000  0.4395570000000 1.0
C      1  0.4601260000000  0.5549770000000  0.4453410000000 1.0
C      1  0.5231370000000  0.5371990000000  0.5846780000000 1.0
C      1  0.4344810000000  0.5414880000000  0.4546350000000 1.0
C      1  0.5654000000000  0.4639210000000  0.4624510000000 1.0
C      1  0.4202060000000  0.4731360000000  0.5473110000000 1.0
C      1  0.4844450000000  0.4315540000000  0.5607280000000 1.0
C      1  0.5500610000000  0.5703790000000  0.5435810000000 1.0
C      1  0.4701540000000  0.5771600000000  0.4631750000000 1.0
C      1  0.5558000000000  0.5274650000000  0.5209460000000 1.0
C      1  0.5305780000000  0.5434060000000  0.5355250000000 1.0
C      1  0.5229920000000  0.5268860000000  0.5593550000000 1.0
C      1  0.4589060000000  0.5284980000000  0.4750320000000 1.0
C      1  0.5371890000000  0.4694830000000  0.4741280000000 1.0
C      1  0.4429970000000  0.4835960000000  0.5243100000000 1.0
C      1  0.4779350000000  0.5538630000000  0.4811070000000 1.0
C      1  0.5245030000000  0.4413350000000  0.4866300000000 1.0
C      1  0.4841830000000  0.4491770000000  0.5396520000000 1.0
C      1  0.4793670000000  0.5296110000000  0.4478970000000 1.0
C      1  0.5172350000000  0.4769110000000  0.4481800000000 1.0
C      1  0.4699960000000  0.4749950000000  0.5431170000000 1.0
C      1  0.5451010000000  0.4697180000000  0.5251420000000 1.0
C      1  0.5312900000000  0.4430660000000  0.5187260000000 1.0
C      1  0.5323470000000  0.4805500000000  0.5507440000000 1.0
C      1  0.4474150000000  0.4569020000000  0.4775940000000 1.0
C      1  0.5505340000000  0.5279440000000  0.4758590000000 1.0
C      1  0.4462740000000  0.5171420000000  0.5249410000000 1.0
C      1  0.4742920000000  0.4485170000000  0.4661830000000 1.0
C      1  0.5237820000000  0.5461990000000  0.4686350000000 1.0
C      1  0.4828490000000  0.5498630000000  0.5331970000000 1.0
C      1  0.4857390000000  0.4715070000000  0.4512620000000 1.0
C      1  0.5106930000000  0.5335920000000  0.4449470000000 1.0
C      1  0.4689460000000  0.5251520000000  0.5441180000000 1.0
C      1  0.4919490000000  0.4415390000000  0.4890740000000 1.0
C      1  0.4880100000000  0.5019420000000  0.4363330000000 1.0
C      1  0.4462110000000  0.4794730000000  0.4923210000000 1.0
C      1  0.5038560000000  0.5499430000000  0.4910410000000 1.0
C      1  0.4869110000000  0.4998520000000  0.5452130000000 1.0
C      1  0.5208400000000  0.5035890000000  0.4327400000000 1.0
C      1  0.5407760000000  0.4870230000000  0.4995900000000 1.0
C      1  0.4534850000000  0.5083320000000  0.4951380000000 1.0
C      1  0.5513130000000  0.5124920000000  0.4984360000000 1.0
C      1  0.5064740000000  0.5479870000000  0.5181350000000 1.0
C      1  0.4995320000000  0.4452200000000  0.5173700000000 1.0
C      1  0.5132910000000  0.5013150000000  0.5523280000000 1.0
END
