TITL C-1154802-8274-350 -0.000373890276615022 125000 -336.351192868939 0 0 60 (C1) n - 1
REM
REM in /home/nfs/bkarasulu/CARBON/AIRSS/Generating-Clusters/AIREBO/Higher-Symm/Only-C60
REM
REM
REM
REM
REM
REM ./C.cell (28575a23ae977d3b5fae324c64b13b57)
REM
REM compiler GCC version 9.2.1 20190827 (Red Hat 9.2.1-1)
REM options -cpp -mtune=generic -march=x86-64 -g -O0 -fpre-include=/usr/include/finclude/math-vector-fortran.h
REM seed 1486027472 998863786 1115915700 -676352056 -378421801 418801580 408596835 -1623641989 -942581922 -928451962 -1232458024 -273123500 -461551219 -338307052 1925326398 -864408765 376842972 1528554289 -1127067659 -1913034418 -717553306 1021285998 -351030336 -1433941353 -2071314448 -32890647 -759946637 -650046008 -2111291067 423410722 -825132631 1183815414 1862503565
REM
CELL 1.54180   50.00000   50.00000   50.00000   90.00000   90.00000   90.00000
LATT -1
SFAC C  
C      1  0.4841240000000  0.5341750000000  0.4506720000000 1.0
C      1  0.5317900000000  0.4440790000000  0.4883910000000 1.0
C      1  0.4570180000000  0.4962120000000  0.5230700000000 1.0
C      1  0.5018210000000  0.4846610000000  0.5514270000000 1.0
C      1  0.5051910000000  0.5239610000000  0.5472030000000 1.0
C      1  0.5133780000000  0.4683810000000  0.4336910000000 1.0
C      1  0.5152720000000  0.5452780000000  0.5013260000000 1.0
C      1  0.4890280000000  0.4587820000000  0.5067160000000 1.0
C      1  0.4602650000000  0.5504800000000  0.4920070000000 1.0
C      1  0.4514720000000  0.4983830000000  0.4836220000000 1.0
C      1  0.5451910000000  0.4941120000000  0.4784260000000 1.0
C      1  0.5433750000000  0.4990260000000  0.5178160000000 1.0
C      1  0.4934240000000  0.4552830000000  0.5363990000000 1.0
C      1  0.5382670000000  0.4862940000000  0.4459730000000 1.0
C      1  0.4469910000000  0.5219470000000  0.5040440000000 1.0
C      1  0.4886730000000  0.5475700000000  0.4812440000000 1.0
C      1  0.5096810000000  0.5519160000000  0.5296250000000 1.0
C      1  0.5023010000000  0.4464960000000  0.4855120000000 1.0
C      1  0.5295220000000  0.5034170000000  0.5452730000000 1.0
C      1  0.4634850000000  0.5091550000000  0.4544080000000 1.0
C      1  0.4759850000000  0.5059380000000  0.5455170000000 1.0
C      1  0.4638890000000  0.4728430000000  0.5006700000000 1.0
C      1  0.5472420000000  0.4710150000000  0.4991570000000 1.0
C      1  0.5390760000000  0.5226870000000  0.4958980000000 1.0
C      1  0.5670230000000  0.4525250000000  0.5211560000000 1.0
C      1  0.4579950000000  0.5276260000000  0.5635050000000 1.0
C      1  0.5152050000000  0.5556020000000  0.4629060000000 1.0
C      1  0.5617660000000  0.5425190000000  0.4764530000000 1.0
C      1  0.4456310000000  0.4584310000000  0.4794010000000 1.0
C      1  0.4379450000000  0.5448840000000  0.5244890000000 1.0
C      1  0.4661880000000  0.4806500000000  0.4396440000000 1.0
C      1  0.5367070000000  0.5186620000000  0.4376760000000 1.0
C      1  0.5509240000000  0.4736740000000  0.5612830000000 1.0
C      1  0.5224000000000  0.4396290000000  0.5398530000000 1.0
C      1  0.4805660000000  0.5660060000000  0.5368400000000 1.0
C      1  0.4860110000000  0.4426160000000  0.4626360000000 1.0
C      1  0.5565820000000  0.5185280000000  0.4603160000000 1.0
C      1  0.4586060000000  0.5666710000000  0.5201670000000 1.0
C      1  0.5249350000000  0.4626350000000  0.5593870000000 1.0
C      1  0.5621390000000  0.4783050000000  0.5355380000000 1.0
C      1  0.4404560000000  0.4773760000000  0.4573590000000 1.0
C      1  0.4342170000000  0.5367840000000  0.5513310000000 1.0
C      1  0.4591850000000  0.4353430000000  0.4695140000000 1.0
C      1  0.5406530000000  0.4369980000000  0.5187240000000 1.0
C      1  0.5384120000000  0.5596380000000  0.4809640000000 1.0
C      1  0.5153950000000  0.5354110000000  0.4402610000000 1.0
C      1  0.4819550000000  0.5436790000000  0.5570020000000 1.0
C      1  0.4877550000000  0.4627060000000  0.4418170000000 1.0
C      1  0.4640300000000  0.5590970000000  0.4389340000000 1.0
C      1  0.5463410000000  0.4369960000000  0.4629890000000 1.0
C      1  0.4657570000000  0.4495350000000  0.5463070000000 1.0
C      1  0.4348630000000  0.4405960000000  0.5453700000000 1.0
C      1  0.4453640000000  0.5576890000000  0.4661980000000 1.0
C      1  0.5616090000000  0.4615570000000  0.4476240000000 1.0
C      1  0.5583190000000  0.5534110000000  0.5692820000000 1.0
C      1  0.4440960000000  0.4701320000000  0.5352460000000 1.0
C      1  0.4447230000000  0.5333470000000  0.4452390000000 1.0
C      1  0.5425610000000  0.5263030000000  0.5612350000000 1.0
C      1  0.5322010000000  0.5542640000000  0.5505010000000 1.0
C      1  0.5350240000000  0.4480880000000  0.4347610000000 1.0
END
