TITL C-1154828-9214-403 0.000902156561734142 125000 -320.264533668605 0 0 60 (C1) n - 1
REM
REM in /home/nfs/bkarasulu/CARBON/AIRSS/Generating-Clusters/AIREBO/Higher-Symm/Only-C60
REM
REM
REM
REM
REM
REM ./C.cell (28575a23ae977d3b5fae324c64b13b57)
REM
REM compiler GCC version 9.2.1 20190827 (Red Hat 9.2.1-1)
REM options -cpp -mtune=generic -march=x86-64 -g -O0 -fpre-include=/usr/include/finclude/math-vector-fortran.h
REM seed 956489789 365225618 1163321035 -2091910724 615659868 -283197097 549418564 1862777720 -1427106330 -915271811 -1650507828 -1545603410 -1200005529 -1845614474 -1313105573 -1877603986 1992089458 352853859 -773683544 1580931171 11094232 1872979596 829342841 -1688471834 1715348991 364169079 1567232533 -150638754 -1547530474 1689632538 -1608342598 2020372699 -1951969134
REM
CELL 1.54180   50.00000   50.00000   50.00000   90.00000   90.00000   90.00000
LATT -1
SFAC C  
C      1  0.5383160000000  0.5309040000000  0.5286440000000 1.0
C      1  0.4869670000000  0.5404170000000  0.5290370000000 1.0
C      1  0.4612410000000  0.5341140000000  0.5119650000000 1.0
C      1  0.4641670000000  0.5366260000000  0.4787030000000 1.0
C      1  0.4888320000000  0.5357610000000  0.4589260000000 1.0
C      1  0.5201560000000  0.5373700000000  0.4697050000000 1.0
C      1  0.5381040000000  0.5311710000000  0.4979730000000 1.0
C      1  0.5657310000000  0.4930980000000  0.5414560000000 1.0
C      1  0.5155210000000  0.5121190000000  0.5671150000000 1.0
C      1  0.4569700000000  0.5227440000000  0.5650570000000 1.0
C      1  0.4324700000000  0.5065260000000  0.5101960000000 1.0
C      1  0.4502990000000  0.5007980000000  0.4520930000000 1.0
C      1  0.4996980000000  0.5079130000000  0.4182230000000 1.0
C      1  0.5655400000000  0.5149010000000  0.4592370000000 1.0
C      1  0.5587030000000  0.5104120000000  0.4875970000000 1.0
C      1  0.5340130000000  0.5000710000000  0.5423150000000 1.0
C      1  0.4869540000000  0.5195950000000  0.5535150000000 1.0
C      1  0.4538110000000  0.5066580000000  0.5352640000000 1.0
C      1  0.4531380000000  0.5051640000000  0.4856920000000 1.0
C      1  0.4808120000000  0.5052000000000  0.4463650000000 1.0
C      1  0.5194290000000  0.5151320000000  0.4438300000000 1.0
C      1  0.5684720000000  0.4615380000000  0.4700290000000 1.0
C      1  0.5595200000000  0.4484610000000  0.5281830000000 1.0
C      1  0.5063750000000  0.4621270000000  0.5610150000000 1.0
C      1  0.4410630000000  0.4758070000000  0.5580480000000 1.0
C      1  0.4439100000000  0.4662610000000  0.4847640000000 1.0
C      1  0.4608790000000  0.4518100000000  0.4476060000000 1.0
C      1  0.5135700000000  0.4634250000000  0.4328990000000 1.0
C      1  0.5463540000000  0.5334810000000  0.4483820000000 1.0
C      1  0.5661970000000  0.5226840000000  0.5484980000000 1.0
C      1  0.5397340000000  0.5337690000000  0.5627440000000 1.0
C      1  0.4508530000000  0.5462620000000  0.5779020000000 1.0
C      1  0.4318140000000  0.5376490000000  0.5228360000000 1.0
C      1  0.4377360000000  0.5313270000000  0.4602300000000 1.0
C      1  0.4886190000000  0.5389210000000  0.4271990000000 1.0
C      1  0.4797870000000  0.4481300000000  0.5255720000000 1.0
C      1  0.4799440000000  0.4467090000000  0.4972200000000 1.0
C      1  0.4871590000000  0.4494570000000  0.4653570000000 1.0
C      1  0.5197270000000  0.4466460000000  0.4610140000000 1.0
C      1  0.5382290000000  0.4556870000000  0.4844210000000 1.0
C      1  0.5297420000000  0.4498620000000  0.5168940000000 1.0
C      1  0.5046310000000  0.4432120000000  0.5388330000000 1.0
C      1  0.4396970000000  0.4967170000000  0.5719690000000 1.0
C      1  0.4250920000000  0.4787570000000  0.4964290000000 1.0
C      1  0.4450020000000  0.4711420000000  0.4448040000000 1.0
C      1  0.5072060000000  0.4777510000000  0.4099360000000 1.0
C      1  0.5565160000000  0.4862190000000  0.4558720000000 1.0
C      1  0.5708230000000  0.4736930000000  0.5227370000000 1.0
C      1  0.5158910000000  0.4822010000000  0.5794230000000 1.0
C      1  0.4914610000000  0.4880550000000  0.5462080000000 1.0
C      1  0.4642730000000  0.4740630000000  0.5366690000000 1.0
C      1  0.4750500000000  0.4793390000000  0.4887620000000 1.0
C      1  0.4943530000000  0.4825150000000  0.4619720000000 1.0
C      1  0.5264320000000  0.4852680000000  0.4538590000000 1.0
C      1  0.5610070000000  0.4813360000000  0.4952880000000 1.0
C      1  0.5174710000000  0.4786740000000  0.5264110000000 1.0
C      1  0.4977890000000  0.4906380000000  0.5068610000000 1.0
C      1  0.5121460000000  0.5763410000000  0.5006330000000 1.0
C      1  0.5107890000000  0.5495500000000  0.5065310000000 1.0
C      1  0.5028090000000  0.5165020000000  0.5060310000000 1.0
END
