TITL C-1154830-9999-493 -0.00118655091614621 125000 -342.584120066061 0 0 60 (C5) n - 1
REM
REM in /home/nfs/bkarasulu/CARBON/AIRSS/Generating-Clusters/AIREBO/Higher-Symm/Only-C60
REM
REM
REM
REM
REM
REM ./C.cell (28575a23ae977d3b5fae324c64b13b57)
REM
REM compiler GCC version 9.2.1 20190827 (Red Hat 9.2.1-1)
REM options -cpp -mtune=generic -march=x86-64 -g -O0 -fpre-include=/usr/include/finclude/math-vector-fortran.h
REM seed -1405170268 872830870 1015685205 188352327 -1945274990 -1162002527 2076914321 1699630481 413819112 1318428269 32249528 159125668 -4338150 703385551 -1842874861 342923465 -344205592 461023434 418869633 1055691608 -883667102 420948153 203934850 -450859993 1363769500 -723141859 -218318292 -2053311700 1513347986 1794988432 2125852686 633239064 1783338633
REM
CELL 1.54180   50.00000   50.00000   50.00000   90.00000   90.00000   90.00000
LATT -1
SFAC C  
C      1  0.5273630000000  0.4516930000000  0.4909000000000 1.0
C      1  0.5171010000000  0.4515830000000  0.5233220000000 1.0
C      1  0.4830420000000  0.4516200000000  0.5235640000000 1.0
C      1  0.4723940000000  0.4517040000000  0.4912670000000 1.0
C      1  0.4997700000000  0.4515960000000  0.4710220000000 1.0
C      1  0.4998970000000  0.5610650000000  0.5403070000000 1.0
C      1  0.4616620000000  0.5610880000000  0.5122910000000 1.0
C      1  0.4764930000000  0.5610420000000  0.4672640000000 1.0
C      1  0.5238940000000  0.5610110000000  0.4674410000000 1.0
C      1  0.5383530000000  0.5610080000000  0.5125860000000 1.0
C      1  0.5001470000000  0.5489020000000  0.4555790000000 1.0
C      1  0.5422850000000  0.5488700000000  0.4863460000000 1.0
C      1  0.5260670000000  0.5489190000000  0.5359550000000 1.0
C      1  0.4738760000000  0.5489640000000  0.5358520000000 1.0
C      1  0.4578660000000  0.5489520000000  0.4861900000000 1.0
C      1  0.4529520000000  0.4916830000000  0.5574020000000 1.0
C      1  0.4308260000000  0.4917090000000  0.4730040000000 1.0
C      1  0.5043100000000  0.4915810000000  0.4259120000000 1.0
C      1  0.5718100000000  0.4915650000000  0.4811990000000 1.0
C      1  0.5400630000000  0.4916350000000  0.5625050000000 1.0
C      1  0.4760190000000  0.5869030000000  0.5076900000000 1.0
C      1  0.4853020000000  0.5868770000000  0.4794640000000 1.0
C      1  0.5150140000000  0.5868540000000  0.4795690000000 1.0
C      1  0.5240920000000  0.5868550000000  0.5078600000000 1.0
C      1  0.4999930000000  0.5868900000000  0.5252400000000 1.0
C      1  0.5157510000000  0.5074800000000  0.5213660000000 1.0
C      1  0.4845520000000  0.5074980000000  0.5215620000000 1.0
C      1  0.4747220000000  0.5074970000000  0.4919610000000 1.0
C      1  0.4998410000000  0.5074600000000  0.4734610000000 1.0
C      1  0.5251970000000  0.5074240000000  0.4916370000000 1.0
C      1  0.5106360000000  0.5025540000000  0.5646570000000 1.0
C      1  0.4418100000000  0.5025730000000  0.5300730000000 1.0
C      1  0.4533830000000  0.5025730000000  0.4539470000000 1.0
C      1  0.5294070000000  0.5024340000000  0.4414670000000 1.0
C      1  0.5647850000000  0.5024730000000  0.5098630000000 1.0
C      1  0.5464010000000  0.4391020000000  0.4580700000000 1.0
C      1  0.5543310000000  0.4392700000000  0.5311330000000 1.0
C      1  0.4871340000000  0.4393020000000  0.5613820000000 1.0
C      1  0.4376570000000  0.4392630000000  0.5066740000000 1.0
C      1  0.4741740000000  0.4393090000000  0.4428700000000 1.0
C      1  0.5435520000000  0.4913580000000  0.5233060000000 1.0
C      1  0.4913120000000  0.4914080000000  0.5486140000000 1.0
C      1  0.4510910000000  0.4914060000000  0.5067420000000 1.0
C      1  0.4784320000000  0.4913950000000  0.4555610000000 1.0
C      1  0.5355880000000  0.4912790000000  0.4658090000000 1.0
C      1  0.5019830000000  0.5211910000000  0.4430190000000 1.0
C      1  0.5548050000000  0.5211660000000  0.4842270000000 1.0
C      1  0.5319370000000  0.5212250000000  0.5472390000000 1.0
C      1  0.4649560000000  0.5212690000000  0.5449370000000 1.0
C      1  0.4464290000000  0.5212740000000  0.4805490000000 1.0
C      1  0.5412960000000  0.4663100000000  0.5423580000000 1.0
C      1  0.4725150000000  0.4663630000000  0.5523610000000 1.0
C      1  0.4416050000000  0.4663660000000  0.4900140000000 1.0
C      1  0.4913860000000  0.4663100000000  0.4415160000000 1.0
C      1  0.5530720000000  0.4662260000000  0.4738040000000 1.0
C      1  0.5221850000000  0.4316130000000  0.4568360000000 1.0
C      1  0.5480200000000  0.4318120000000  0.5077120000000 1.0
C      1  0.5073840000000  0.4317160000000  0.5480980000000 1.0
C      1  0.4565050000000  0.4317200000000  0.5219020000000 1.0
C      1  0.4655770000000  0.4318110000000  0.4655410000000 1.0
END
