TITL C-1154828-9214-145 90.5466391544958 125000 -333.879438654585 0 0 60 (C2) n - 1
REM
REM in /home/nfs/bkarasulu/CARBON/AIRSS/Generating-Clusters/AIREBO/Higher-Symm/Only-C60
REM
REM
REM
REM
REM
REM ./C.cell (28575a23ae977d3b5fae324c64b13b57)
REM
REM compiler GCC version 9.2.1 20190827 (Red Hat 9.2.1-1)
REM options -cpp -mtune=generic -march=x86-64 -g -O0 -fpre-include=/usr/include/finclude/math-vector-fortran.h
REM seed -107754630 1709910428 -391599011 159338792 -654483096 1847603364 -1379852649 -596220084 1610842710 2132982279 -1724574632 -649784522 439224583 -61211262 -1655692323 1741317225 481077374 20514135 -80152052 -1554414694 898673821 -1495912405 -816007889 1607110719 -2594953 -525795103 1234278852 -1805609958 -1143360740 2109734857 -875756914 -1386421525 1580849368
REM
CELL 1.54180   50.00000   50.00000   50.00000   90.00000   90.00000   90.00000
LATT -1
SFAC C  
C      1  0.4396340000000  0.5173540000000  0.4819610000000 1.0
C      1  0.5188870000000  0.5138300000000  0.4413580000000 1.0
C      1  0.5603660000000  0.5173570000000  0.5180370000000 1.0
C      1  0.4811110000000  0.5138370000000  0.5586420000000 1.0
C      1  0.5602350000000  0.4831210000000  0.4824570000000 1.0
C      1  0.4798850000000  0.4864140000000  0.4396620000000 1.0
C      1  0.4397690000000  0.4831210000000  0.5175430000000 1.0
C      1  0.5201130000000  0.4864220000000  0.5603400000000 1.0
C      1  0.5049920000000  0.4514310000000  0.4744930000000 1.0
C      1  0.5194960000000  0.4505510000000  0.5042360000000 1.0
C      1  0.4950080000000  0.4514350000000  0.5255130000000 1.0
C      1  0.4805040000000  0.4505500000000  0.4957700000000 1.0
C      1  0.4947400000000  0.5488270000000  0.4747330000000 1.0
C      1  0.4804580000000  0.5498140000000  0.5040570000000 1.0
C      1  0.5052600000000  0.5488310000000  0.5252610000000 1.0
C      1  0.5195420000000  0.5498120000000  0.4959370000000 1.0
C      1  0.5335030000000  0.5127090000000  0.5554440000000 1.0
C      1  0.4435730000000  0.5090900000000  0.5291210000000 1.0
C      1  0.4664960000000  0.5127020000000  0.4445560000000 1.0
C      1  0.5564300000000  0.5090890000000  0.4708760000000 1.0
C      1  0.4668950000000  0.4874310000000  0.5550910000000 1.0
C      1  0.5559560000000  0.4916740000000  0.5298920000000 1.0
C      1  0.5331040000000  0.4874250000000  0.4449120000000 1.0
C      1  0.4440430000000  0.4916690000000  0.4701100000000 1.0
C      1  0.5240370000000  0.5590470000000  0.5492150000000 1.0
C      1  0.4527890000000  0.5592470000000  0.5205770000000 1.0
C      1  0.4759620000000  0.5590410000000  0.4507780000000 1.0
C      1  0.5472100000000  0.5592450000000  0.4794160000000 1.0
C      1  0.4757140000000  0.4412410000000  0.5490800000000 1.0
C      1  0.5473210000000  0.4412390000000  0.5210700000000 1.0
C      1  0.5242860000000  0.4412350000000  0.4509280000000 1.0
C      1  0.4526790000000  0.4412360000000  0.4789390000000 1.0
C      1  0.5064110000000  0.5199240000000  0.5409290000000 1.0
C      1  0.4608460000000  0.5233440000000  0.5057730000000 1.0
C      1  0.4935860000000  0.5199170000000  0.4590720000000 1.0
C      1  0.5391560000000  0.5233430000000  0.4942220000000 1.0
C      1  0.4956090000000  0.4800090000000  0.5430190000000 1.0
C      1  0.5388880000000  0.4772410000000  0.5067700000000 1.0
C      1  0.5043880000000  0.4800020000000  0.4569830000000 1.0
C      1  0.4611130000000  0.4772400000000  0.4932330000000 1.0
C      1  0.5444720000000  0.5399990000000  0.5556500000000 1.0
C      1  0.4449640000000  0.5385260000000  0.5391790000000 1.0
C      1  0.4555280000000  0.5399930000000  0.4443440000000 1.0
C      1  0.5550360000000  0.5385230000000  0.4608140000000 1.0
C      1  0.4555000000000  0.4605660000000  0.5552860000000 1.0
C      1  0.5555250000000  0.4618590000000  0.5396880000000 1.0
C      1  0.5444990000000  0.4605590000000  0.4447190000000 1.0
C      1  0.4444730000000  0.4618520000000  0.4603180000000 1.0
C      1  0.4626840000000  0.5354950000000  0.5621730000000 1.0
C      1  0.4340290000000  0.5382650000000  0.4635120000000 1.0
C      1  0.5373130000000  0.5354880000000  0.4378230000000 1.0
C      1  0.5659710000000  0.5382710000000  0.5364820000000 1.0
C      1  0.5388090000000  0.4650370000000  0.5634360000000 1.0
C      1  0.5659090000000  0.4622950000000  0.4639170000000 1.0
C      1  0.4611880000000  0.4650290000000  0.4365680000000 1.0
C      1  0.4340920000000  0.4622990000000  0.5360850000000 1.0
C      1  0.4809420000000  0.4993020000000  0.5191050000000 1.0
C      1  0.5146420000000  0.4998760000000  0.5146100000000 1.0
C      1  0.4853630000000  0.4998710000000  0.4853960000000 1.0
C      1  0.5190620000000  0.4992990000000  0.4808910000000 1.0
END
