TITL C-1154828-9214-44 0.000185848528018423 125000 -349.098289402429 0 0 60 (C1) n - 1
REM
REM in /home/nfs/bkarasulu/CARBON/AIRSS/Generating-Clusters/AIREBO/Higher-Symm/Only-C60
REM
REM
REM
REM
REM
REM ./C.cell (28575a23ae977d3b5fae324c64b13b57)
REM
REM compiler GCC version 9.2.1 20190827 (Red Hat 9.2.1-1)
REM options -cpp -mtune=generic -march=x86-64 -g -O0 -fpre-include=/usr/include/finclude/math-vector-fortran.h
REM seed 2120376525 1682818460 -1828456594 -1763365259 1117599247 2092971630 -2266753 -1843976807 141492122 -182294182 524980804 263756590 810688779 -1766379809 -113238581 803718305 -506588579 -674206267 184865496 1104061875 314869034 -1822832214 -1000659780 1015961601 -1286238445 1113402179 -139907524 -2090476459 1387798956 -457651745 -149084604 245557552 -1284256564
REM
CELL 1.54180   50.00000   50.00000   50.00000   90.00000   90.00000   90.00000
LATT -1
SFAC C  
C      1  0.5535610000000  0.4824760000000  0.4788640000000 1.0
C      1  0.4960840000000  0.4838320000000  0.4397590000000 1.0
C      1  0.4446410000000  0.4888450000000  0.4853700000000 1.0
C      1  0.4718800000000  0.4859900000000  0.5514860000000 1.0
C      1  0.5375470000000  0.4839470000000  0.5476380000000 1.0
C      1  0.4503000000000  0.5370620000000  0.4804940000000 1.0
C      1  0.4665680000000  0.5326380000000  0.5412190000000 1.0
C      1  0.5291960000000  0.5322060000000  0.5431830000000 1.0
C      1  0.5517930000000  0.5323070000000  0.4830920000000 1.0
C      1  0.5013060000000  0.5342690000000  0.4447150000000 1.0
C      1  0.5154020000000  0.5133370000000  0.4755370000000 1.0
C      1  0.4828610000000  0.5142230000000  0.4748000000000 1.0
C      1  0.4724600000000  0.5139020000000  0.5042300000000 1.0
C      1  0.4983170000000  0.5172340000000  0.5227920000000 1.0
C      1  0.5233470000000  0.5153330000000  0.5051900000000 1.0
C      1  0.4154490000000  0.5105200000000  0.4539560000000 1.0
C      1  0.4295330000000  0.5042670000000  0.5604060000000 1.0
C      1  0.5400020000000  0.5067080000000  0.5898680000000 1.0
C      1  0.5894460000000  0.5063950000000  0.5017720000000 1.0
C      1  0.5211760000000  0.5093030000000  0.4045700000000 1.0
C      1  0.5081650000000  0.4554490000000  0.4542850000000 1.0
C      1  0.4601570000000  0.4586320000000  0.4823900000000 1.0
C      1  0.4696720000000  0.4552720000000  0.5392410000000 1.0
C      1  0.5272810000000  0.4511130000000  0.5449240000000 1.0
C      1  0.5501710000000  0.4510230000000  0.4915460000000 1.0
C      1  0.4411630000000  0.4674840000000  0.5338630000000 1.0
C      1  0.5328280000000  0.4650910000000  0.5725710000000 1.0
C      1  0.5535940000000  0.4755340000000  0.5121480000000 1.0
C      1  0.5279370000000  0.4734510000000  0.4339590000000 1.0
C      1  0.4461370000000  0.4736380000000  0.4552930000000 1.0
C      1  0.4590940000000  0.4840950000000  0.5136610000000 1.0
C      1  0.4911170000000  0.4860430000000  0.5255410000000 1.0
C      1  0.5239660000000  0.4868810000000  0.5193980000000 1.0
C      1  0.5293460000000  0.4893180000000  0.4625350000000 1.0
C      1  0.4733560000000  0.4910860000000  0.4576840000000 1.0
C      1  0.4753370000000  0.5440690000000  0.4615360000000 1.0
C      1  0.4575060000000  0.5433180000000  0.5113350000000 1.0
C      1  0.4982500000000  0.5426480000000  0.5426020000000 1.0
C      1  0.5415830000000  0.5411700000000  0.5132930000000 1.0
C      1  0.5272430000000  0.5423190000000  0.4632580000000 1.0
C      1  0.4216740000000  0.4864250000000  0.4408240000000 1.0
C      1  0.4211590000000  0.4804580000000  0.5484780000000 1.0
C      1  0.5374080000000  0.4787160000000  0.5965630000000 1.0
C      1  0.5812300000000  0.4876780000000  0.5209190000000 1.0
C      1  0.5372740000000  0.4865240000000  0.4078450000000 1.0
C      1  0.4861190000000  0.4416230000000  0.5207110000000 1.0
C      1  0.5151300000000  0.4377550000000  0.5239630000000 1.0
C      1  0.5263720000000  0.4372120000000  0.4964470000000 1.0
C      1  0.5050150000000  0.4419320000000  0.4775400000000 1.0
C      1  0.4803010000000  0.4437390000000  0.4921730000000 1.0
C      1  0.4568160000000  0.5099610000000  0.5546380000000 1.0
C      1  0.5370240000000  0.5118660000000  0.5610800000000 1.0
C      1  0.5690560000000  0.5099480000000  0.4819850000000 1.0
C      1  0.5036350000000  0.5127280000000  0.4268610000000 1.0
C      1  0.4334140000000  0.5156130000000  0.4756360000000 1.0
C      1  0.4998490000000  0.5671920000000  0.5233920000000 1.0
C      1  0.5237880000000  0.5664560000000  0.5071440000000 1.0
C      1  0.5157280000000  0.5667560000000  0.4794900000000 1.0
C      1  0.4870480000000  0.5675260000000  0.4786530000000 1.0
C      1  0.4771870000000  0.5674640000000  0.5056540000000 1.0
END
