TITL C-1154826-9507-82 -0.000200479365944285 125000 -332.731963212039 0 0 60 (C1) n - 1
REM
REM in /home/nfs/bkarasulu/CARBON/AIRSS/Generating-Clusters/AIREBO/Higher-Symm/Only-C60
REM
REM
REM
REM
REM
REM ./C.cell (28575a23ae977d3b5fae324c64b13b57)
REM
REM compiler GCC version 9.2.1 20190827 (Red Hat 9.2.1-1)
REM options -cpp -mtune=generic -march=x86-64 -g -O0 -fpre-include=/usr/include/finclude/math-vector-fortran.h
REM seed 433018516 -1172824703 -436009810 -2145356406 -1692907245 1797678228 466521916 1513094818 -681050609 1166484093 686969110 -276439315 -212278869 -1101434301 -1923523144 578721120 -86654631 59532667 247148223 -572895578 -1014129709 -1150922563 -849662055 -500353065 -613611605 1342981961 1484370956 -1741716613 1864746250 -128048404 -1578353003 456493735 1410923728
REM
CELL 1.54180   50.00000   50.00000   50.00000   90.00000   90.00000   90.00000
LATT -1
SFAC C  
C      1  0.5752730000000  0.5199900000000  0.4959270000000 1.0
C      1  0.5798930000000  0.4885850000000  0.4858430000000 1.0
C      1  0.5788590000000  0.4944990000000  0.5182930000000 1.0
C      1  0.4883770000000  0.5563210000000  0.5261320000000 1.0
C      1  0.4873380000000  0.4938850000000  0.4399800000000 1.0
C      1  0.4869950000000  0.4557100000000  0.5320850000000 1.0
C      1  0.5392960000000  0.4666270000000  0.5309900000000 1.0
C      1  0.5404890000000  0.5473900000000  0.5168830000000 1.0
C      1  0.5443810000000  0.4849700000000  0.4512160000000 1.0
C      1  0.4253780000000  0.4764810000000  0.5467710000000 1.0
C      1  0.4233540000000  0.5529710000000  0.4991980000000 1.0
C      1  0.4230540000000  0.4695780000000  0.4539890000000 1.0
C      1  0.4937870000000  0.4815010000000  0.4881970000000 1.0
C      1  0.4953370000000  0.5075380000000  0.5216020000000 1.0
C      1  0.4958690000000  0.5144220000000  0.4893100000000 1.0
C      1  0.5720780000000  0.4801760000000  0.4565090000000 1.0
C      1  0.5680430000000  0.4696390000000  0.5343140000000 1.0
C      1  0.5694870000000  0.5467880000000  0.5108520000000 1.0
C      1  0.5030930000000  0.5141010000000  0.4560850000000 1.0
C      1  0.5049530000000  0.4623020000000  0.5110290000000 1.0
C      1  0.5059420000000  0.5351770000000  0.5327990000000 1.0
C      1  0.4913290000000  0.5165120000000  0.5738020000000 1.0
C      1  0.4894390000000  0.5516510000000  0.4519290000000 1.0
C      1  0.4915120000000  0.4290190000000  0.4758280000000 1.0
C      1  0.4659810000000  0.4753420000000  0.4786690000000 1.0
C      1  0.4691680000000  0.4953530000000  0.5309150000000 1.0
C      1  0.4660950000000  0.5280960000000  0.4913510000000 1.0
C      1  0.4465710000000  0.4886170000000  0.4590010000000 1.0
C      1  0.4500960000000  0.4708460000000  0.5294830000000 1.0
C      1  0.4475860000000  0.5402700000000  0.5130660000000 1.0
C      1  0.4924700000000  0.4664030000000  0.4429240000000 1.0
C      1  0.4915010000000  0.4697800000000  0.5564830000000 1.0
C      1  0.4924480000000  0.5657420000000  0.4993130000000 1.0
C      1  0.5355010000000  0.5159300000000  0.4488880000000 1.0
C      1  0.5319400000000  0.4483540000000  0.5032710000000 1.0
C      1  0.5340880000000  0.5317130000000  0.5463760000000 1.0
C      1  0.5541540000000  0.5118880000000  0.5288970000000 1.0
C      1  0.5493210000000  0.5164360000000  0.4780300000000 1.0
C      1  0.5533580000000  0.4717710000000  0.4935690000000 1.0
C      1  0.4622340000000  0.4456520000000  0.5183650000000 1.0
C      1  0.4631780000000  0.5462260000000  0.5364120000000 1.0
C      1  0.4617420000000  0.5077290000000  0.4437750000000 1.0
C      1  0.5190830000000  0.5438180000000  0.4602670000000 1.0
C      1  0.5186290000000  0.4381530000000  0.4760490000000 1.0
C      1  0.5184710000000  0.5117180000000  0.5660120000000 1.0
C      1  0.4762190000000  0.4457640000000  0.4540150000000 1.0
C      1  0.4757240000000  0.4896530000000  0.5697330000000 1.0
C      1  0.4756190000000  0.5639300000000  0.4766990000000 1.0
C      1  0.5210720000000  0.5586070000000  0.4909590000000 1.0
C      1  0.5224840000000  0.4592060000000  0.4498390000000 1.0
C      1  0.5211130000000  0.4790500000000  0.5571420000000 1.0
C      1  0.4645490000000  0.5345420000000  0.4519810000000 1.0
C      1  0.4659250000000  0.4375870000000  0.4916470000000 1.0
C      1  0.4669040000000  0.5261660000000  0.5563140000000 1.0
C      1  0.5239790000000  0.4776530000000  0.4774360000000 1.0
C      1  0.5241600000000  0.4968850000000  0.5294630000000 1.0
C      1  0.5260950000000  0.5264430000000  0.4954670000000 1.0
C      1  0.4454900000000  0.5491620000000  0.4743260000000 1.0
C      1  0.4463290000000  0.4497740000000  0.4678200000000 1.0
C      1  0.4471680000000  0.4999070000000  0.5564820000000 1.0
END
