TITL C-1154823-9327-82 -0.00255246154056642 125000 -318.275791611013 0 0 60 (C1) n - 1
REM
REM in /home/nfs/bkarasulu/CARBON/AIRSS/Generating-Clusters/AIREBO/Higher-Symm/Only-C60
REM
REM
REM
REM
REM
REM ./C.cell (28575a23ae977d3b5fae324c64b13b57)
REM
REM compiler GCC version 9.2.1 20190827 (Red Hat 9.2.1-1)
REM options -cpp -mtune=generic -march=x86-64 -g -O0 -fpre-include=/usr/include/finclude/math-vector-fortran.h
REM seed -983139310 2101878306 1812567209 -1285141239 -371435345 350922504 -1530337288 1672395526 673815178 343321849 986232732 -975288717 1556076612 -1501178832 -844447990 264598880 665786570 -167287642 -624296646 250843955 -383864696 -1549279379 87703181 -105060880 1473391682 -133360173 -1032482172 -568460826 519752801 -1757320678 1046907575 1494446803 -604334335
REM
CELL 1.54180   50.00000   50.00000   50.00000   90.00000   90.00000   90.00000
LATT -1
SFAC C  
C      1  0.5363410000000  0.4401370000000  0.5866450000000 1.0
C      1  0.4468030000000  0.5235270000000  0.5027950000000 1.0
C      1  0.4464360000000  0.4915040000000  0.4575330000000 1.0
C      1  0.4531200000000  0.5225450000000  0.5362040000000 1.0
C      1  0.4956180000000  0.5078230000000  0.5620410000000 1.0
C      1  0.4455980000000  0.4555920000000  0.5075190000000 1.0
C      1  0.5063250000000  0.4986180000000  0.5109750000000 1.0
C      1  0.4997880000000  0.4457150000000  0.4533720000000 1.0
C      1  0.4775400000000  0.4584790000000  0.5510400000000 1.0
C      1  0.4904290000000  0.5280130000000  0.5088340000000 1.0
C      1  0.4984380000000  0.5417640000000  0.4315210000000 1.0
C      1  0.4984960000000  0.4391430000000  0.5497070000000 1.0
C      1  0.5226250000000  0.4673840000000  0.5145640000000 1.0
C      1  0.4406750000000  0.4900690000000  0.5022820000000 1.0
C      1  0.5113170000000  0.4321240000000  0.4747640000000 1.0
C      1  0.5315170000000  0.5664760000000  0.5172670000000 1.0
C      1  0.4937270000000  0.4238620000000  0.4996050000000 1.0
C      1  0.5393680000000  0.4342010000000  0.4762590000000 1.0
C      1  0.4688690000000  0.4771840000000  0.4682800000000 1.0
C      1  0.4617890000000  0.4352230000000  0.5005450000000 1.0
C      1  0.5185630000000  0.5296100000000  0.4165250000000 1.0
C      1  0.4939370000000  0.3956360000000  0.5031120000000 1.0
C      1  0.4537750000000  0.5169850000000  0.4489010000000 1.0
C      1  0.5250190000000  0.5414150000000  0.4831280000000 1.0
C      1  0.5018320000000  0.4954490000000  0.4423760000000 1.0
C      1  0.4497980000000  0.5573810000000  0.5040190000000 1.0
C      1  0.5556810000000  0.4551680000000  0.4829640000000 1.0
C      1  0.4759560000000  0.5650100000000  0.5042290000000 1.0
C      1  0.4713620000000  0.5327280000000  0.4810810000000 1.0
C      1  0.5185960000000  0.5244140000000  0.5485720000000 1.0
C      1  0.4909280000000  0.5566400000000  0.5276120000000 1.0
C      1  0.5683510000000  0.5391310000000  0.5311410000000 1.0
C      1  0.5070210000000  0.4842660000000  0.5772170000000 1.0
C      1  0.5678850000000  0.5603610000000  0.4873390000000 1.0
C      1  0.5080140000000  0.5544640000000  0.5480270000000 1.0
C      1  0.4449630000000  0.5424600000000  0.4619730000000 1.0
C      1  0.5605670000000  0.5617350000000  0.5149380000000 1.0
C      1  0.5401360000000  0.4855450000000  0.4136510000000 1.0
C      1  0.4225970000000  0.4875590000000  0.4743200000000 1.0
C      1  0.4852900000000  0.5208860000000  0.4518790000000 1.0
C      1  0.5223440000000  0.5347360000000  0.5163660000000 1.0
C      1  0.4163260000000  0.5294000000000  0.4964670000000 1.0
C      1  0.4950490000000  0.5570780000000  0.4793280000000 1.0
C      1  0.4730370000000  0.4822340000000  0.4963840000000 1.0
C      1  0.4909350000000  0.4720260000000  0.4516600000000 1.0
C      1  0.4856700000000  0.4771860000000  0.5249400000000 1.0
C      1  0.5492340000000  0.5464210000000  0.4720770000000 1.0
C      1  0.4678000000000  0.5055070000000  0.5537620000000 1.0
C      1  0.5740310000000  0.4991680000000  0.4707330000000 1.0
C      1  0.5212270000000  0.5019580000000  0.4232340000000 1.0
C      1  0.5084960000000  0.4392030000000  0.5226330000000 1.0
C      1  0.4368200000000  0.4751280000000  0.5325900000000 1.0
C      1  0.5466170000000  0.5155740000000  0.5305280000000 1.0
C      1  0.4566980000000  0.4789210000000  0.5524020000000 1.0
C      1  0.5134420000000  0.5778880000000  0.4989760000000 1.0
C      1  0.5870960000000  0.5149100000000  0.4543520000000 1.0
C      1  0.5398260000000  0.4942900000000  0.5070940000000 1.0
C      1  0.5582730000000  0.4829210000000  0.4861740000000 1.0
C      1  0.5190510000000  0.4532220000000  0.5703130000000 1.0
C      1  0.5129370000000  0.4760000000000  0.5452320000000 1.0
END
