TITL C-1154824-75-115 0.000349512349729329 125000 -347.063068673931 0 0 60 (C1) n - 1
REM
REM in /home/nfs/bkarasulu/CARBON/AIRSS/Generating-Clusters/AIREBO/Higher-Symm/Only-C60
REM
REM
REM
REM
REM
REM ./C.cell (28575a23ae977d3b5fae324c64b13b57)
REM
REM compiler GCC version 9.2.1 20190827 (Red Hat 9.2.1-1)
REM options -cpp -mtune=generic -march=x86-64 -g -O0 -fpre-include=/usr/include/finclude/math-vector-fortran.h
REM seed -791105045 413014794 -125111512 -75547382 -490121787 493127605 -1602876637 -633055606 -1366370694 1696547781 2051995528 440362800 76439621 -1734143355 -2071132414 1298723983 1876146794 -127341600 -1174666630 -662155438 1065169772 478857390 -105770103 2116633746 -614341683 -1686031036 -33648426 330105066 -1729032441 -130081444 1691907056 612282242 -1733873908
REM
CELL 1.54180   50.00000   50.00000   50.00000   90.00000   90.00000   90.00000
LATT -1
SFAC C  
C      1  0.4621750000000  0.5556510000000  0.5401110000000 1.0
C      1  0.5178450000000  0.5557950000000  0.5562930000000 1.0
C      1  0.5607440000000  0.5585330000000  0.5184450000000 1.0
C      1  0.5401310000000  0.5587340000000  0.4553890000000 1.0
C      1  0.4815130000000  0.5559590000000  0.4431310000000 1.0
C      1  0.4412720000000  0.5512670000000  0.4879100000000 1.0
C      1  0.4638930000000  0.4412650000000  0.5444010000000 1.0
C      1  0.5201650000000  0.4443280000000  0.5524880000000 1.0
C      1  0.5536540000000  0.4448060000000  0.5083610000000 1.0
C      1  0.5373190000000  0.4432790000000  0.4574900000000 1.0
C      1  0.4819380000000  0.4452340000000  0.4408520000000 1.0
C      1  0.4347470000000  0.4423100000000  0.4976160000000 1.0
C      1  0.5109770000000  0.4854110000000  0.4435190000000 1.0
C      1  0.4634660000000  0.4839540000000  0.4586830000000 1.0
C      1  0.4427280000000  0.4815050000000  0.5268820000000 1.0
C      1  0.4899670000000  0.4843580000000  0.5562400000000 1.0
C      1  0.5433170000000  0.4871550000000  0.5357370000000 1.0
C      1  0.5531760000000  0.4863440000000  0.4790680000000 1.0
C      1  0.5114370000000  0.5156770000000  0.4425780000000 1.0
C      1  0.4591210000000  0.5131880000000  0.4622010000000 1.0
C      1  0.4457010000000  0.5122190000000  0.5200870000000 1.0
C      1  0.4902520000000  0.5142880000000  0.5547390000000 1.0
C      1  0.5429850000000  0.5166130000000  0.5396890000000 1.0
C      1  0.5580370000000  0.5157490000000  0.4690620000000 1.0
C      1  0.5285550000000  0.4322780000000  0.5031570000000 1.0
C      1  0.5203270000000  0.4313890000000  0.4767590000000 1.0
C      1  0.4902620000000  0.4373120000000  0.4710920000000 1.0
C      1  0.4661250000000  0.4382280000000  0.4942470000000 1.0
C      1  0.4773660000000  0.4320410000000  0.5223420000000 1.0
C      1  0.5077630000000  0.4371550000000  0.5240280000000 1.0
C      1  0.5321660000000  0.5637390000000  0.5050270000000 1.0
C      1  0.5252600000000  0.5689080000000  0.4760450000000 1.0
C      1  0.4948580000000  0.5651280000000  0.4706060000000 1.0
C      1  0.4711180000000  0.5626110000000  0.4925220000000 1.0
C      1  0.4781570000000  0.5674290000000  0.5212890000000 1.0
C      1  0.5082470000000  0.5630530000000  0.5266420000000 1.0
C      1  0.5215780000000  0.4856540000000  0.4888410000000 1.0
C      1  0.5019010000000  0.4694500000000  0.4721890000000 1.0
C      1  0.4715300000000  0.4695210000000  0.4849950000000 1.0
C      1  0.4719770000000  0.4836460000000  0.5115320000000 1.0
C      1  0.4939380000000  0.4681110000000  0.5271390000000 1.0
C      1  0.5195530000000  0.4782360000000  0.5167240000000 1.0
C      1  0.5290730000000  0.5172700000000  0.4865850000000 1.0
C      1  0.5074540000000  0.5335290000000  0.4709170000000 1.0
C      1  0.4786960000000  0.5307360000000  0.4821960000000 1.0
C      1  0.4776460000000  0.5164560000000  0.5086110000000 1.0
C      1  0.4978310000000  0.5306780000000  0.5261720000000 1.0
C      1  0.5284040000000  0.5311030000000  0.5140220000000 1.0
C      1  0.5211230000000  0.4719730000000  0.5561130000000 1.0
C      1  0.5579420000000  0.4721290000000  0.5088090000000 1.0
C      1  0.5380810000000  0.4704400000000  0.4554850000000 1.0
C      1  0.4810300000000  0.4729150000000  0.4384200000000 1.0
C      1  0.4250890000000  0.4607420000000  0.5121220000000 1.0
C      1  0.4609370000000  0.4682680000000  0.5494150000000 1.0
C      1  0.5201540000000  0.5278850000000  0.5590970000000 1.0
C      1  0.5655700000000  0.5379630000000  0.5322440000000 1.0
C      1  0.5410210000000  0.5309260000000  0.4495730000000 1.0
C      1  0.4805680000000  0.5281420000000  0.4419780000000 1.0
C      1  0.4403060000000  0.5228180000000  0.4888530000000 1.0
C      1  0.4618330000000  0.5285160000000  0.5432390000000 1.0
END
