TITL C-1154801-8518-315 0.00413764247497649 125000 -324.455777812434 0 0 60 (C1) n - 1
REM
REM in /home/nfs/bkarasulu/CARBON/AIRSS/Generating-Clusters/AIREBO/Higher-Symm/Only-C60
REM
REM
REM
REM
REM
REM ./C.cell (28575a23ae977d3b5fae324c64b13b57)
REM
REM compiler GCC version 9.2.1 20190827 (Red Hat 9.2.1-1)
REM options -cpp -mtune=generic -march=x86-64 -g -O0 -fpre-include=/usr/include/finclude/math-vector-fortran.h
REM seed 1263966161 1777283751 1899425002 -931494574 1830264324 -1952187761 -1064129136 198625128 -1855730455 -1156185800 384949166 371221408 1079163031 -180458465 1518773362 -1543566928 -172630774 -485122606 78334510 -831586894 -725824436 743299315 -1700112464 -672965792 489645576 -1747275685 -1598322650 -2472458 -1139516553 -390952434 1993457932 -2032239603 1400043897
REM
CELL 1.54180   50.00000   50.00000   50.00000   90.00000   90.00000   90.00000
LATT -1
SFAC C  
C      1  0.5167090000000  0.5588330000000  0.5429030000000 1.0
C      1  0.5419270000000  0.5190630000000  0.5587760000000 1.0
C      1  0.5560750000000  0.5385120000000  0.5158530000000 1.0
C      1  0.4788960000000  0.5515450000000  0.4675070000000 1.0
C      1  0.5052190000000  0.4702980000000  0.4612270000000 1.0
C      1  0.4833060000000  0.4520940000000  0.5420020000000 1.0
C      1  0.4617560000000  0.5086020000000  0.4632700000000 1.0
C      1  0.5393930000000  0.4903790000000  0.4575580000000 1.0
C      1  0.4553400000000  0.4942150000000  0.5465490000000 1.0
C      1  0.4377590000000  0.5386950000000  0.4906210000000 1.0
C      1  0.5461210000000  0.4520110000000  0.4918450000000 1.0
C      1  0.4570900000000  0.4605110000000  0.5092150000000 1.0
C      1  0.4668550000000  0.5215250000000  0.5156790000000 1.0
C      1  0.5192400000000  0.4487360000000  0.5249670000000 1.0
C      1  0.5297140000000  0.5264100000000  0.4383210000000 1.0
C      1  0.5509490000000  0.5310080000000  0.4644840000000 1.0
C      1  0.4438770000000  0.4608940000000  0.4550330000000 1.0
C      1  0.5341210000000  0.4788250000000  0.5182580000000 1.0
C      1  0.4732210000000  0.4465260000000  0.4644410000000 1.0
C      1  0.5258720000000  0.5481050000000  0.4645620000000 1.0
C      1  0.4978450000000  0.5361240000000  0.5160800000000 1.0
C      1  0.4903290000000  0.5096250000000  0.5356120000000 1.0
C      1  0.5248240000000  0.4712730000000  0.5481540000000 1.0
C      1  0.4716670000000  0.4644800000000  0.4356090000000 1.0
C      1  0.4496770000000  0.4857710000000  0.5195200000000 1.0
C      1  0.5150640000000  0.4619680000000  0.4876680000000 1.0
C      1  0.4846800000000  0.5242840000000  0.4632970000000 1.0
C      1  0.5473600000000  0.4852970000000  0.4875620000000 1.0
C      1  0.4474280000000  0.5061410000000  0.4923730000000 1.0
C      1  0.5590450000000  0.5179110000000  0.5350810000000 1.0
C      1  0.4896700000000  0.4534490000000  0.5086210000000 1.0
C      1  0.5284520000000  0.5509200000000  0.5151290000000 1.0
C      1  0.4605070000000  0.5563360000000  0.4891900000000 1.0
C      1  0.5193540000000  0.5373590000000  0.5613540000000 1.0
C      1  0.4858120000000  0.4801680000000  0.5521080000000 1.0
C      1  0.5082020000000  0.5031840000000  0.4530880000000 1.0
C      1  0.5701100000000  0.5357850000000  0.4913580000000 1.0
C      1  0.4907390000000  0.5701530000000  0.5375890000000 1.0
C      1  0.5364100000000  0.4935190000000  0.5699350000000 1.0
C      1  0.4172770000000  0.5411200000000  0.5128020000000 1.0
C      1  0.5696360000000  0.4626340000000  0.5114940000000 1.0
C      1  0.4414240000000  0.4540530000000  0.4874800000000 1.0
C      1  0.5014520000000  0.5683600000000  0.4644970000000 1.0
C      1  0.5045640000000  0.4371330000000  0.4584290000000 1.0
C      1  0.4911340000000  0.4243910000000  0.5395130000000 1.0
C      1  0.4598390000000  0.4950500000000  0.4388590000000 1.0
C      1  0.5428130000000  0.4898210000000  0.4292060000000 1.0
C      1  0.4675830000000  0.5108630000000  0.5695500000000 1.0
C      1  0.5635670000000  0.4916800000000  0.5242740000000 1.0
C      1  0.5227920000000  0.5679550000000  0.4899220000000 1.0
C      1  0.4944930000000  0.5238320000000  0.5649700000000 1.0
C      1  0.4287900000000  0.4820340000000  0.4772580000000 1.0
C      1  0.5679180000000  0.5069170000000  0.4792230000000 1.0
C      1  0.4357060000000  0.5224730000000  0.5269520000000 1.0
C      1  0.4747800000000  0.5605350000000  0.5134950000000 1.0
C      1  0.5071380000000  0.4184730000000  0.5152600000000 1.0
C      1  0.4897530000000  0.4269590000000  0.4872960000000 1.0
C      1  0.5202950000000  0.5033040000000  0.4152110000000 1.0
C      1  0.4911770000000  0.4909140000000  0.4263280000000 1.0
C      1  0.5072510000000  0.4809680000000  0.5755830000000 1.0
END
