TITL C-1154816-9297-214 0.000303809955315878 125000 -339.894517827007 0 0 60 (C1) n - 1
REM
REM in /home/nfs/bkarasulu/CARBON/AIRSS/Generating-Clusters/AIREBO/Higher-Symm/Only-C60
REM
REM
REM
REM
REM
REM ./C.cell (28575a23ae977d3b5fae324c64b13b57)
REM
REM compiler GCC version 9.2.1 20190827 (Red Hat 9.2.1-1)
REM options -cpp -mtune=generic -march=x86-64 -g -O0 -fpre-include=/usr/include/finclude/math-vector-fortran.h
REM seed -931762802 -710161632 -611140093 -302449633 -482912457 -1373419403 1376991972 -1722241210 1226697389 1255473227 -1918491771 -1135951840 -1779260055 655890147 -107586331 -1789196715 -677577074 -689207488 -1407958219 390999885 -848906663 -2004993655 -128245159 1339920182 654283727 -681719460 -1425691919 1072324668 1235563460 1516026876 1338156336 -160373324 878672918
REM
CELL 1.54180   50.00000   50.00000   50.00000   90.00000   90.00000   90.00000
LATT -1
SFAC C  
C      1  0.5025980000000  0.4698030000000  0.5872340000000 1.0
C      1  0.4778890000000  0.4784080000000  0.5770170000000 1.0
C      1  0.4661960000000  0.5055430000000  0.5774360000000 1.0
C      1  0.4856170000000  0.5278540000000  0.5801720000000 1.0
C      1  0.5150720000000  0.5280810000000  0.5741330000000 1.0
C      1  0.5311220000000  0.5078290000000  0.5854730000000 1.0
C      1  0.5256000000000  0.4818020000000  0.5757510000000 1.0
C      1  0.4473990000000  0.5365140000000  0.4793140000000 1.0
C      1  0.4937160000000  0.5621470000000  0.4788820000000 1.0
C      1  0.5521470000000  0.5502050000000  0.4805600000000 1.0
C      1  0.5616700000000  0.4903050000000  0.4812600000000 1.0
C      1  0.5434250000000  0.4426040000000  0.4847580000000 1.0
C      1  0.4827600000000  0.4425800000000  0.4810300000000 1.0
C      1  0.4363440000000  0.4763560000000  0.4818220000000 1.0
C      1  0.5367030000000  0.4439650000000  0.5137440000000 1.0
C      1  0.4743020000000  0.4390260000000  0.5120600000000 1.0
C      1  0.4397740000000  0.4806990000000  0.5128380000000 1.0
C      1  0.4492560000000  0.5364260000000  0.5118240000000 1.0
C      1  0.4976100000000  0.5639810000000  0.5114780000000 1.0
C      1  0.5509270000000  0.5458970000000  0.5107130000000 1.0
C      1  0.5684860000000  0.4854430000000  0.5142230000000 1.0
C      1  0.4940010000000  0.5375180000000  0.4346960000000 1.0
C      1  0.5216510000000  0.5278390000000  0.4351500000000 1.0
C      1  0.5343930000000  0.4983000000000  0.4301550000000 1.0
C      1  0.5218500000000  0.4668840000000  0.4343700000000 1.0
C      1  0.4859930000000  0.4679610000000  0.4315370000000 1.0
C      1  0.4644100000000  0.4928070000000  0.4366380000000 1.0
C      1  0.4681740000000  0.5219710000000  0.4354420000000 1.0
C      1  0.5273970000000  0.5269040000000  0.4847030000000 1.0
C      1  0.5362840000000  0.5028470000000  0.4994340000000 1.0
C      1  0.5265600000000  0.4724570000000  0.4876590000000 1.0
C      1  0.4960140000000  0.4691130000000  0.4976670000000 1.0
C      1  0.4670280000000  0.4811500000000  0.4839370000000 1.0
C      1  0.4684410000000  0.5149710000000  0.4845340000000 1.0
C      1  0.4979320000000  0.5325800000000  0.4873890000000 1.0
C      1  0.4585620000000  0.4608680000000  0.5240000000000 1.0
C      1  0.4427950000000  0.5090580000000  0.5235440000000 1.0
C      1  0.4742580000000  0.5486040000000  0.5234460000000 1.0
C      1  0.5244660000000  0.5528000000000  0.5218390000000 1.0
C      1  0.5655490000000  0.5187500000000  0.5212330000000 1.0
C      1  0.5490850000000  0.4666580000000  0.5266620000000 1.0
C      1  0.5073480000000  0.4373410000000  0.5200440000000 1.0
C      1  0.4751270000000  0.4735790000000  0.5471020000000 1.0
C      1  0.4545800000000  0.5075860000000  0.5511170000000 1.0
C      1  0.4865790000000  0.5310820000000  0.5464340000000 1.0
C      1  0.5195250000000  0.5311990000000  0.5429960000000 1.0
C      1  0.5360240000000  0.5067870000000  0.5318980000000 1.0
C      1  0.5277190000000  0.4798250000000  0.5455720000000 1.0
C      1  0.5016990000000  0.4676700000000  0.5311700000000 1.0
C      1  0.4420770000000  0.4841310000000  0.4528560000000 1.0
C      1  0.4466500000000  0.5367420000000  0.4502840000000 1.0
C      1  0.4918430000000  0.5628470000000  0.4503900000000 1.0
C      1  0.5361520000000  0.5385060000000  0.4561110000000 1.0
C      1  0.5576570000000  0.4919730000000  0.4542060000000 1.0
C      1  0.5317580000000  0.4562040000000  0.4594670000000 1.0
C      1  0.4822240000000  0.4443770000000  0.4540810000000 1.0
C      1  0.4943900000000  0.5026920000000  0.5027530000000 1.0
C      1  0.5038820000000  0.4929090000000  0.4428190000000 1.0
C      1  0.4816250000000  0.5028410000000  0.5310540000000 1.0
C      1  0.5000930000000  0.4972090000000  0.4696680000000 1.0
END
