TITL C-1154823-9327-297 0.000421116689115885 125000 -340.254744411399 0 0 60 (C1) n - 1
REM
REM in /home/nfs/bkarasulu/CARBON/AIRSS/Generating-Clusters/AIREBO/Higher-Symm/Only-C60
REM
REM
REM
REM
REM
REM ./C.cell (28575a23ae977d3b5fae324c64b13b57)
REM
REM compiler GCC version 9.2.1 20190827 (Red Hat 9.2.1-1)
REM options -cpp -mtune=generic -march=x86-64 -g -O0 -fpre-include=/usr/include/finclude/math-vector-fortran.h
REM seed -1663527171 -1192197385 318524595 -1001245924 -351157127 356976480 1676009255 425236362 -1193423726 -1690344344 -1881604290 -1238580 889214491 -153995219 -1032563867 -1118411294 1615217627 -128256836 -1644962635 -1241161054 -1810478130 2120084644 -172948476 -1117337684 -203651959 1356326992 1821347452 -149670710 1473065666 1874001290 1127718827 2139953533 57224081
REM
CELL 1.54180   50.00000   50.00000   50.00000   90.00000   90.00000   90.00000
LATT -1
SFAC C  
C      1  0.5273920000000  0.4456070000000  0.4410890000000 1.0
C      1  0.5215470000000  0.4433930000000  0.5613080000000 1.0
C      1  0.4489950000000  0.4905770000000  0.5278200000000 1.0
C      1  0.4592510000000  0.4885620000000  0.4612720000000 1.0
C      1  0.4874020000000  0.5730210000000  0.5122110000000 1.0
C      1  0.4855110000000  0.5702820000000  0.4838130000000 1.0
C      1  0.5264450000000  0.4934030000000  0.5809830000000 1.0
C      1  0.5403330000000  0.4860740000000  0.4133710000000 1.0
C      1  0.5224350000000  0.4770180000000  0.4333640000000 1.0
C      1  0.5109590000000  0.4712650000000  0.5668660000000 1.0
C      1  0.4256850000000  0.5261470000000  0.5014860000000 1.0
C      1  0.4367610000000  0.5174300000000  0.5259510000000 1.0
C      1  0.4936010000000  0.5044360000000  0.4742030000000 1.0
C      1  0.5025480000000  0.5106700000000  0.5225130000000 1.0
C      1  0.5355130000000  0.4376470000000  0.4675820000000 1.0
C      1  0.5321420000000  0.4403380000000  0.5355650000000 1.0
C      1  0.4429290000000  0.4668310000000  0.4813800000000 1.0
C      1  0.4436220000000  0.4655700000000  0.5090440000000 1.0
C      1  0.5240080000000  0.4965660000000  0.4611620000000 1.0
C      1  0.5251970000000  0.4933850000000  0.5410810000000 1.0
C      1  0.5467390000000  0.4672470000000  0.5296680000000 1.0
C      1  0.5515160000000  0.4599460000000  0.4775590000000 1.0
C      1  0.4810310000000  0.4755170000000  0.5688940000000 1.0
C      1  0.4923060000000  0.4782640000000  0.4244660000000 1.0
C      1  0.5082660000000  0.5651400000000  0.4677410000000 1.0
C      1  0.5116360000000  0.5644280000000  0.5239110000000 1.0
C      1  0.4641830000000  0.5616180000000  0.5275250000000 1.0
C      1  0.4596670000000  0.5577110000000  0.4741940000000 1.0
C      1  0.4589810000000  0.5182430000000  0.4599110000000 1.0
C      1  0.4808620000000  0.5326780000000  0.5491990000000 1.0
C      1  0.4931740000000  0.4509180000000  0.4748880000000 1.0
C      1  0.4899110000000  0.4546920000000  0.5206220000000 1.0
C      1  0.5192170000000  0.5382790000000  0.5116200000000 1.0
C      1  0.5297020000000  0.5445810000000  0.4800670000000 1.0
C      1  0.5019190000000  0.5569330000000  0.4389730000000 1.0
C      1  0.5154100000000  0.5633090000000  0.5518500000000 1.0
C      1  0.4837670000000  0.5311550000000  0.4459870000000 1.0
C      1  0.5054240000000  0.5384690000000  0.5615100000000 1.0
C      1  0.4601670000000  0.4790250000000  0.5558370000000 1.0
C      1  0.4696700000000  0.4770460000000  0.4345530000000 1.0
C      1  0.5691200000000  0.4840410000000  0.5142770000000 1.0
C      1  0.5672600000000  0.4814610000000  0.4860200000000 1.0
C      1  0.4597740000000  0.4454130000000  0.5193100000000 1.0
C      1  0.4617000000000  0.4490780000000  0.4670220000000 1.0
C      1  0.4807100000000  0.4789460000000  0.4854880000000 1.0
C      1  0.4793780000000  0.4866820000000  0.5158820000000 1.0
C      1  0.4383360000000  0.5350090000000  0.4783920000000 1.0
C      1  0.4497970000000  0.5368130000000  0.5414390000000 1.0
C      1  0.4774460000000  0.5309860000000  0.4854600000000 1.0
C      1  0.4797060000000  0.5338970000000  0.5152360000000 1.0
C      1  0.5489850000000  0.5290120000000  0.5113400000000 1.0
C      1  0.5576740000000  0.5287380000000  0.4831400000000 1.0
C      1  0.5171480000000  0.4739510000000  0.5143210000000 1.0
C      1  0.5197970000000  0.4709160000000  0.4830980000000 1.0
C      1  0.5168810000000  0.5288970000000  0.4533890000000 1.0
C      1  0.5230940000000  0.5172740000000  0.5651980000000 1.0
C      1  0.5148900000000  0.4314360000000  0.4868500000000 1.0
C      1  0.5136880000000  0.4341920000000  0.5147950000000 1.0
C      1  0.5557170000000  0.5034920000000  0.4717640000000 1.0
C      1  0.5530760000000  0.5063440000000  0.5265410000000 1.0
END
