TITL C-1154821-8623-451 -0.0128848892167463 125000 -336.190399824243 0 0 60 (C1) n - 1
REM
REM in /home/nfs/bkarasulu/CARBON/AIRSS/Generating-Clusters/AIREBO/Higher-Symm/Only-C60
REM
REM
REM
REM
REM
REM ./C.cell (28575a23ae977d3b5fae324c64b13b57)
REM
REM compiler GCC version 9.2.1 20190827 (Red Hat 9.2.1-1)
REM options -cpp -mtune=generic -march=x86-64 -g -O0 -fpre-include=/usr/include/finclude/math-vector-fortran.h
REM seed 168394351 132492312 679596486 1069492958 2126419453 431801693 -1116947874 -447703349 1896186679 -1608287402 463132740 -1013778764 976897441 -1819939798 2141550061 557987386 -168254026 1432102819 -1663502760 -657858872 1374412894 -1501889407 -1234441606 -1777481956 1310580726 488998791 183543572 -1056275800 459435770 1301525209 -1095469451 1334822304 883395860
REM
CELL 1.54180   50.00000   50.00000   50.00000   90.00000   90.00000   90.00000
LATT -1
SFAC C  
C      1  0.5472170000000  0.5302830000000  0.4871720000000 1.0
C      1  0.5338160000000  0.4467000000000  0.4826880000000 1.0
C      1  0.4683600000000  0.4553610000000  0.4860480000000 1.0
C      1  0.4488180000000  0.5184360000000  0.4868580000000 1.0
C      1  0.4996550000000  0.5649450000000  0.4914870000000 1.0
C      1  0.5143440000000  0.4250600000000  0.4939840000000 1.0
C      1  0.4208490000000  0.4774370000000  0.5057320000000 1.0
C      1  0.4461390000000  0.5460130000000  0.5011460000000 1.0
C      1  0.5503800000000  0.5764720000000  0.5181390000000 1.0
C      1  0.5601120000000  0.5030630000000  0.4930100000000 1.0
C      1  0.4562800000000  0.4503910000000  0.5364010000000 1.0
C      1  0.4654130000000  0.5186420000000  0.5346400000000 1.0
C      1  0.5036220000000  0.5733920000000  0.5426230000000 1.0
C      1  0.5452140000000  0.5143090000000  0.5360520000000 1.0
C      1  0.5275320000000  0.4476030000000  0.5331550000000 1.0
C      1  0.5295440000000  0.5640430000000  0.4989110000000 1.0
C      1  0.5624990000000  0.4741740000000  0.4868090000000 1.0
C      1  0.4850000000000  0.4196020000000  0.4907560000000 1.0
C      1  0.4479230000000  0.4768510000000  0.4905930000000 1.0
C      1  0.4607840000000  0.5720610000000  0.4975590000000 1.0
C      1  0.4780910000000  0.4878930000000  0.3948080000000 1.0
C      1  0.5018400000000  0.5062440000000  0.4025450000000 1.0
C      1  0.5285250000000  0.4919500000000  0.3962330000000 1.0
C      1  0.5186620000000  0.4740150000000  0.4191820000000 1.0
C      1  0.4892650000000  0.4718800000000  0.4186230000000 1.0
C      1  0.4603760000000  0.4243830000000  0.4745240000000 1.0
C      1  0.4261830000000  0.5114390000000  0.4716640000000 1.0
C      1  0.4928030000000  0.5859160000000  0.4740060000000 1.0
C      1  0.5651640000000  0.5488210000000  0.4757980000000 1.0
C      1  0.5553960000000  0.4354830000000  0.4684090000000 1.0
C      1  0.4525120000000  0.4999360000000  0.5151560000000 1.0
C      1  0.4852470000000  0.5671170000000  0.5207110000000 1.0
C      1  0.5386520000000  0.5382430000000  0.5191030000000 1.0
C      1  0.5432240000000  0.4614170000000  0.5118010000000 1.0
C      1  0.4762890000000  0.4435990000000  0.5164950000000 1.0
C      1  0.4855500000000  0.5962350000000  0.5875530000000 1.0
C      1  0.5443340000000  0.5164700000000  0.5894710000000 1.0
C      1  0.5413420000000  0.4457990000000  0.5847360000000 1.0
C      1  0.4504310000000  0.4211260000000  0.5808300000000 1.0
C      1  0.4913030000000  0.5009820000000  0.5779660000000 1.0
C      1  0.5001690000000  0.5177760000000  0.4289720000000 1.0
C      1  0.5220970000000  0.5108680000000  0.4479190000000 1.0
C      1  0.5273310000000  0.4823170000000  0.4458390000000 1.0
C      1  0.4780580000000  0.4795280000000  0.4444320000000 1.0
C      1  0.4778920000000  0.5083700000000  0.4464600000000 1.0
C      1  0.4946620000000  0.5862620000000  0.5650950000000 1.0
C      1  0.5460390000000  0.5157550000000  0.5633250000000 1.0
C      1  0.5352950000000  0.4456030000000  0.5592350000000 1.0
C      1  0.4524270000000  0.4346580000000  0.5584750000000 1.0
C      1  0.4775210000000  0.5097230000000  0.5574630000000 1.0
C      1  0.5289920000000  0.5644270000000  0.5386100000000 1.0
C      1  0.5508320000000  0.4928770000000  0.5198320000000 1.0
C      1  0.5058250000000  0.4352180000000  0.5208700000000 1.0
C      1  0.4411640000000  0.4720770000000  0.5295910000000 1.0
C      1  0.4634120000000  0.5443230000000  0.5258550000000 1.0
C      1  0.5166250000000  0.4656160000000  0.4664940000000 1.0
C      1  0.4891130000000  0.4658630000000  0.4669900000000 1.0
C      1  0.4746670000000  0.5224100000000  0.4706400000000 1.0
C      1  0.4972750000000  0.5366040000000  0.4791170000000 1.0
C      1  0.5219150000000  0.5259410000000  0.4714120000000 1.0
END
