TITL C-1154826-9507-276 0.0247956664246533 125000 -325.476958061857 0 0 60 (C1) n - 1
REM
REM in /home/nfs/bkarasulu/CARBON/AIRSS/Generating-Clusters/AIREBO/Higher-Symm/Only-C60
REM
REM
REM
REM
REM
REM ./C.cell (28575a23ae977d3b5fae324c64b13b57)
REM
REM compiler GCC version 9.2.1 20190827 (Red Hat 9.2.1-1)
REM options -cpp -mtune=generic -march=x86-64 -g -O0 -fpre-include=/usr/include/finclude/math-vector-fortran.h
REM seed 1366896846 -1208137808 434257873 -988681930 2101587230 -301471377 -1097820916 1023242929 1067825693 209146667 1708518684 215027696 1572042645 -693921650 364630380 806755824 1359560061 -148518259 -1506421789 969052743 1419415545 -1156638063 866648076 -1320421846 1202660938 65376800 -1197877334 -1497688014 -1724907894 -659000340 213200334 1904549613 -365439122
REM
CELL 1.54180   50.00000   50.00000   50.00000   90.00000   90.00000   90.00000
LATT -1
SFAC C  
C      1  0.5101740000000  0.5407630000000  0.4407450000000 1.0
C      1  0.4932950000000  0.5472370000000  0.5643430000000 1.0
C      1  0.5420870000000  0.5454990000000  0.5128950000000 1.0
C      1  0.4619370000000  0.5345080000000  0.4913780000000 1.0
C      1  0.4909890000000  0.5203130000000  0.5668130000000 1.0
C      1  0.5138120000000  0.5136140000000  0.4433360000000 1.0
C      1  0.4533160000000  0.5467070000000  0.5503030000000 1.0
C      1  0.5512280000000  0.5524380000000  0.4503130000000 1.0
C      1  0.5371590000000  0.4648000000000  0.4421280000000 1.0
C      1  0.4643040000000  0.4630290000000  0.5578130000000 1.0
C      1  0.5114570000000  0.4321790000000  0.5290580000000 1.0
C      1  0.4847440000000  0.4299460000000  0.4814920000000 1.0
C      1  0.5046260000000  0.5003740000000  0.5428660000000 1.0
C      1  0.4893600000000  0.5023650000000  0.4590390000000 1.0
C      1  0.4937400000000  0.5540020000000  0.4602510000000 1.0
C      1  0.5088590000000  0.5582670000000  0.5434100000000 1.0
C      1  0.4176010000000  0.4942860000000  0.5002520000000 1.0
C      1  0.5840190000000  0.4863960000000  0.4977980000000 1.0
C      1  0.5564040000000  0.5030230000000  0.5458730000000 1.0
C      1  0.4371430000000  0.5071820000000  0.4454150000000 1.0
C      1  0.5321570000000  0.5434080000000  0.5391020000000 1.0
C      1  0.4691890000000  0.5405630000000  0.4651560000000 1.0
C      1  0.4436300000000  0.5151060000000  0.4965830000000 1.0
C      1  0.5660720000000  0.5338850000000  0.5079640000000 1.0
C      1  0.4837960000000  0.5373060000000  0.5109130000000 1.0
C      1  0.5214980000000  0.5456000000000  0.4911250000000 1.0
C      1  0.5659150000000  0.5038820000000  0.5154950000000 1.0
C      1  0.4272480000000  0.4935630000000  0.4678560000000 1.0
C      1  0.4702770000000  0.5576120000000  0.5331050000000 1.0
C      1  0.5323910000000  0.5621200000000  0.4661030000000 1.0
C      1  0.5520280000000  0.4666640000000  0.5114570000000 1.0
C      1  0.4434110000000  0.4521960000000  0.4910390000000 1.0
C      1  0.4594060000000  0.4760350000000  0.5256360000000 1.0
C      1  0.5386260000000  0.4744110000000  0.4746920000000 1.0
C      1  0.5683710000000  0.4654610000000  0.4855470000000 1.0
C      1  0.4283630000000  0.4700930000000  0.5141200000000 1.0
C      1  0.5094440000000  0.4430640000000  0.4771190000000 1.0
C      1  0.4860850000000  0.4408580000000  0.5196110000000 1.0
C      1  0.5058990000000  0.5146500000000  0.5135320000000 1.0
C      1  0.5047900000000  0.5199970000000  0.4815940000000 1.0
C      1  0.4724900000000  0.4544740000000  0.4524860000000 1.0
C      1  0.5244940000000  0.4510090000000  0.5530070000000 1.0
C      1  0.5418750000000  0.4455550000000  0.5258210000000 1.0
C      1  0.4570710000000  0.4365630000000  0.4715310000000 1.0
C      1  0.4718820000000  0.4953980000000  0.5506560000000 1.0
C      1  0.5396250000000  0.4973940000000  0.4494290000000 1.0
C      1  0.4806530000000  0.4683060000000  0.5002140000000 1.0
C      1  0.5146040000000  0.4692370000000  0.4982260000000 1.0
C      1  0.4486700000000  0.5199180000000  0.5546660000000 1.0
C      1  0.5543300000000  0.5258010000000  0.4440630000000 1.0
C      1  0.5331290000000  0.5166900000000  0.5501570000000 1.0
C      1  0.4633220000000  0.5173600000000  0.4479720000000 1.0
C      1  0.4859840000000  0.4737560000000  0.4670550000000 1.0
C      1  0.5124890000000  0.4718380000000  0.5320860000000 1.0
C      1  0.5063700000000  0.5751850000000  0.4836660000000 1.0
C      1  0.4965780000000  0.5675330000000  0.5139420000000 1.0
C      1  0.4536570000000  0.4843810000000  0.4871460000000 1.0
C      1  0.5337080000000  0.4955510000000  0.5082350000000 1.0
C      1  0.5277510000000  0.4409570000000  0.4557060000000 1.0
C      1  0.4664690000000  0.4396910000000  0.5406660000000 1.0
END
