TITL C-1154830-9999-317 0.00153157921022737 125000 -314.936793326001 0 0 60 (C1) n - 1
REM
REM in /home/nfs/bkarasulu/CARBON/AIRSS/Generating-Clusters/AIREBO/Higher-Symm/Only-C60
REM
REM
REM
REM
REM
REM ./C.cell (28575a23ae977d3b5fae324c64b13b57)
REM
REM compiler GCC version 9.2.1 20190827 (Red Hat 9.2.1-1)
REM options -cpp -mtune=generic -march=x86-64 -g -O0 -fpre-include=/usr/include/finclude/math-vector-fortran.h
REM seed 1260671806 1952141703 -1727316263 69793485 564710887 -1599137638 523770982 313853568 1659984351 -860479317 -686843296 -1048962522 538724466 -830360278 1755789683 478724339 217025949 -1832033537 -989091989 -45694084 53468086 1247121704 -2056278597 -802226849 1949667474 363928582 -1589216338 -55549232 -2024853215 861817971 834292578 -168177321 -1122498612
REM
CELL 1.54180   50.00000   50.00000   50.00000   90.00000   90.00000   90.00000
LATT -1
SFAC C  
C      1  0.5511420000000  0.5293140000000  0.5073200000000 1.0
C      1  0.5542710000000  0.4795380000000  0.5208310000000 1.0
C      1  0.5532330000000  0.4918370000000  0.4731680000000 1.0
C      1  0.5333750000000  0.5680160000000  0.4709990000000 1.0
C      1  0.5327050000000  0.4886460000000  0.5716020000000 1.0
C      1  0.5267600000000  0.4468750000000  0.4748620000000 1.0
C      1  0.5366890000000  0.5141150000000  0.5545260000000 1.0
C      1  0.5531170000000  0.4425430000000  0.4832950000000 1.0
C      1  0.5373850000000  0.5394210000000  0.4595840000000 1.0
C      1  0.4964920000000  0.4731820000000  0.5412270000000 1.0
C      1  0.4951110000000  0.4750590000000  0.4582450000000 1.0
C      1  0.4955510000000  0.5541810000000  0.5004820000000 1.0
C      1  0.4490920000000  0.5459250000000  0.5281650000000 1.0
C      1  0.4481320000000  0.4519370000000  0.5278180000000 1.0
C      1  0.4484140000000  0.5014070000000  0.4415640000000 1.0
C      1  0.5221110000000  0.4865940000000  0.4754270000000 1.0
C      1  0.5195220000000  0.5312470000000  0.4987790000000 1.0
C      1  0.5222650000000  0.4847790000000  0.5231060000000 1.0
C      1  0.4660350000000  0.4519810000000  0.5557480000000 1.0
C      1  0.4655720000000  0.4747030000000  0.4314300000000 1.0
C      1  0.4629650000000  0.5723280000000  0.5139110000000 1.0
C      1  0.4629380000000  0.4470560000000  0.4794070000000 1.0
C      1  0.4651580000000  0.5470230000000  0.4646360000000 1.0
C      1  0.4670690000000  0.5065690000000  0.5568800000000 1.0
C      1  0.5100580000000  0.4647180000000  0.4985120000000 1.0
C      1  0.5127880000000  0.5176260000000  0.4683620000000 1.0
C      1  0.5141110000000  0.5172200000000  0.5292750000000 1.0
C      1  0.5076500000000  0.5493910000000  0.5382370000000 1.0
C      1  0.5058630000000  0.4398390000000  0.5213280000000 1.0
C      1  0.5081470000000  0.5061160000000  0.4367050000000 1.0
C      1  0.4664260000000  0.4903600000000  0.4682170000000 1.0
C      1  0.4699290000000  0.5322740000000  0.5049950000000 1.0
C      1  0.4675020000000  0.4797220000000  0.5246920000000 1.0
C      1  0.5593000000000  0.5071890000000  0.5307220000000 1.0
C      1  0.5665800000000  0.4721670000000  0.4904190000000 1.0
C      1  0.5598690000000  0.5238230000000  0.4792200000000 1.0
C      1  0.4376420000000  0.4920200000000  0.4845200000000 1.0
C      1  0.4387690000000  0.5207940000000  0.4976930000000 1.0
C      1  0.4391140000000  0.4946140000000  0.5160470000000 1.0
C      1  0.4790140000000  0.5562260000000  0.5398680000000 1.0
C      1  0.4775420000000  0.4348500000000  0.5283660000000 1.0
C      1  0.4797960000000  0.5057790000000  0.4292330000000 1.0
C      1  0.5227040000000  0.4415970000000  0.5431130000000 1.0
C      1  0.5229060000000  0.4833300000000  0.4307220000000 1.0
C      1  0.5229980000000  0.5688480000000  0.5259370000000 1.0
C      1  0.5638100000000  0.4476430000000  0.5138960000000 1.0
C      1  0.5551660000000  0.5132180000000  0.4470060000000 1.0
C      1  0.5535700000000  0.5396880000000  0.5395700000000 1.0
C      1  0.4596850000000  0.5347270000000  0.5577720000000 1.0
C      1  0.4559000000000  0.4317410000000  0.5023870000000 1.0
C      1  0.4611460000000  0.5324440000000  0.4393680000000 1.0
C      1  0.5209850000000  0.4578380000000  0.4477840000000 1.0
C      1  0.5228790000000  0.5709300000000  0.4957320000000 1.0
C      1  0.5224820000000  0.4666560000000  0.5596210000000 1.0
C      1  0.4694880000000  0.5664940000000  0.4843990000000 1.0
C      1  0.4730410000000  0.4800350000000  0.5642440000000 1.0
C      1  0.4698330000000  0.4538080000000  0.4524460000000 1.0
C      1  0.4796340000000  0.5193870000000  0.4750500000000 1.0
C      1  0.4807550000000  0.5109450000000  0.5272730000000 1.0
C      1  0.4778120000000  0.4716650000000  0.4942580000000 1.0
END
