TITL C-1154825-9328-171 -7.97880886784376e-05 125000 -332.871999918715 0 0 60 (C1) n - 1
REM
REM in /home/nfs/bkarasulu/CARBON/AIRSS/Generating-Clusters/AIREBO/Higher-Symm/Only-C60
REM
REM
REM
REM
REM
REM ./C.cell (28575a23ae977d3b5fae324c64b13b57)
REM
REM compiler GCC version 9.2.1 20190827 (Red Hat 9.2.1-1)
REM options -cpp -mtune=generic -march=x86-64 -g -O0 -fpre-include=/usr/include/finclude/math-vector-fortran.h
REM seed 2036851271 -1372745789 738886058 -2096052567 -676331762 1434407257 553994859 -2010929347 663363222 1530792967 1351069541 1072789266 1295963201 1474253765 1275162207 -297153992 425275179 470441269 561538178 183042591 293412701 1489132373 1180038925 -208860772 453381299 -1487420111 1264680299 -1789705085 -143600020 -467772040 -1869270591 -1464352910 444521151
REM
CELL 1.54180   50.00000   50.00000   50.00000   90.00000   90.00000   90.00000
LATT -1
SFAC C  
C      1  0.5538510000000  0.4415680000000  0.4220420000000 1.0
C      1  0.5559710000000  0.4471190000000  0.4874110000000 1.0
C      1  0.5517570000000  0.4555170000000  0.5467650000000 1.0
C      1  0.5438380000000  0.5056670000000  0.5729060000000 1.0
C      1  0.5445500000000  0.5513980000000  0.5392270000000 1.0
C      1  0.5590640000000  0.5503310000000  0.4900300000000 1.0
C      1  0.5499010000000  0.5201270000000  0.4239510000000 1.0
C      1  0.4926520000000  0.4546060000000  0.5375070000000 1.0
C      1  0.4828280000000  0.5018260000000  0.5610970000000 1.0
C      1  0.4843680000000  0.5523450000000  0.5392410000000 1.0
C      1  0.4922340000000  0.5554450000000  0.4857170000000 1.0
C      1  0.4770130000000  0.5206110000000  0.4474990000000 1.0
C      1  0.4824890000000  0.4672890000000  0.4456940000000 1.0
C      1  0.4942250000000  0.4374130000000  0.4874700000000 1.0
C      1  0.5063010000000  0.4807910000000  0.4607560000000 1.0
C      1  0.5134590000000  0.4635080000000  0.4868520000000 1.0
C      1  0.5169380000000  0.4672230000000  0.5187710000000 1.0
C      1  0.5083090000000  0.4918870000000  0.5405580000000 1.0
C      1  0.5058510000000  0.5259370000000  0.5393170000000 1.0
C      1  0.4995530000000  0.5338450000000  0.5076410000000 1.0
C      1  0.5058660000000  0.5130250000000  0.4597940000000 1.0
C      1  0.4963900000000  0.5075310000000  0.5889580000000 1.0
C      1  0.5040500000000  0.5756950000000  0.5479520000000 1.0
C      1  0.5178860000000  0.5660990000000  0.4722380000000 1.0
C      1  0.4967600000000  0.5182530000000  0.4212510000000 1.0
C      1  0.5077980000000  0.4545860000000  0.4305810000000 1.0
C      1  0.5155150000000  0.4147650000000  0.4907090000000 1.0
C      1  0.5055940000000  0.4399110000000  0.5614230000000 1.0
C      1  0.4615570000000  0.4918300000000  0.4485430000000 1.0
C      1  0.4716000000000  0.4469160000000  0.4670260000000 1.0
C      1  0.4771700000000  0.4408900000000  0.5135090000000 1.0
C      1  0.4716090000000  0.4759050000000  0.5461130000000 1.0
C      1  0.4686960000000  0.5282430000000  0.5538700000000 1.0
C      1  0.4712320000000  0.5611740000000  0.5118360000000 1.0
C      1  0.4694090000000  0.5460070000000  0.4642470000000 1.0
C      1  0.5337450000000  0.4515690000000  0.4377160000000 1.0
C      1  0.5397880000000  0.4226490000000  0.4997680000000 1.0
C      1  0.5294940000000  0.4504030000000  0.5689290000000 1.0
C      1  0.5205240000000  0.5203340000000  0.5882590000000 1.0
C      1  0.5309280000000  0.5763440000000  0.5411530000000 1.0
C      1  0.5400640000000  0.5503410000000  0.4689160000000 1.0
C      1  0.5215610000000  0.5080950000000  0.4209350000000 1.0
C      1  0.4482160000000  0.4715560000000  0.5317200000000 1.0
C      1  0.4440660000000  0.5324080000000  0.5620980000000 1.0
C      1  0.4464060000000  0.5652430000000  0.5001220000000 1.0
C      1  0.4454690000000  0.5568570000000  0.4731170000000 1.0
C      1  0.4416450000000  0.4825370000000  0.4660350000000 1.0
C      1  0.4490020000000  0.4585080000000  0.4806470000000 1.0
C      1  0.4521330000000  0.4542370000000  0.5088360000000 1.0
C      1  0.5353250000000  0.5249750000000  0.4542840000000 1.0
C      1  0.5355840000000  0.4905110000000  0.4464610000000 1.0
C      1  0.5413900000000  0.4634980000000  0.4663120000000 1.0
C      1  0.5440030000000  0.4501500000000  0.5185850000000 1.0
C      1  0.5347340000000  0.4815950000000  0.5586040000000 1.0
C      1  0.5310410000000  0.5323760000000  0.5583060000000 1.0
C      1  0.5491880000000  0.5390070000000  0.5140680000000 1.0
C      1  0.5028770000000  0.5079390000000  0.4898070000000 1.0
C      1  0.5294550000000  0.5199110000000  0.5076150000000 1.0
C      1  0.4722780000000  0.5057720000000  0.4996340000000 1.0
C      1  0.4473320000000  0.5099140000000  0.5043600000000 1.0
END
