TITL C-1154801-8518-478 1.5088436726509e-06 125000 -345.887111570075 0 0 60 (C1) n - 1
REM
REM in /home/nfs/bkarasulu/CARBON/AIRSS/Generating-Clusters/AIREBO/Higher-Symm/Only-C60
REM
REM
REM
REM
REM
REM ./C.cell (28575a23ae977d3b5fae324c64b13b57)
REM
REM compiler GCC version 9.2.1 20190827 (Red Hat 9.2.1-1)
REM options -cpp -mtune=generic -march=x86-64 -g -O0 -fpre-include=/usr/include/finclude/math-vector-fortran.h
REM seed -1353668358 678379661 -431330482 1851440397 -448202818 -1702176189 1502457333 1464327475 -1392935380 957195217 853532014 -1423865413 -981463508 1291123057 716202022 858952356 -1233314354 2083128693 -312463571 -735253527 -1652756161 117077990 -2077248339 1825286852 -1576149776 -749531443 -65762872 -1310504981 1317853620 -104920198 606422014 376261740 -572632818
REM
CELL 1.54180   50.00000   50.00000   50.00000   90.00000   90.00000   90.00000
LATT -1
SFAC C  
C      1  0.5073050000000  0.4639810000000  0.5160870000000 1.0
C      1  0.5121870000000  0.5052660000000  0.4601040000000 1.0
C      1  0.4707260000000  0.5140690000000  0.4912020000000 1.0
C      1  0.5113800000000  0.5366360000000  0.4887330000000 1.0
C      1  0.4879020000000  0.5325930000000  0.5131290000000 1.0
C      1  0.4889240000000  0.4641420000000  0.4920500000000 1.0
C      1  0.5150050000000  0.4929460000000  0.5254710000000 1.0
C      1  0.4885020000000  0.4933750000000  0.4589950000000 1.0
C      1  0.4888660000000  0.5051990000000  0.5292830000000 1.0
C      1  0.4630760000000  0.4852230000000  0.4884140000000 1.0
C      1  0.5294920000000  0.4913680000000  0.4977880000000 1.0
C      1  0.5378880000000  0.5180350000000  0.4877470000000 1.0
C      1  0.4640790000000  0.4476350000000  0.4749920000000 1.0
C      1  0.4724500000000  0.4652580000000  0.4486020000000 1.0
C      1  0.4439850000000  0.4720410000000  0.4635500000000 1.0
C      1  0.4622620000000  0.5480980000000  0.5292200000000 1.0
C      1  0.5361770000000  0.5554580000000  0.4741820000000 1.0
C      1  0.5344200000000  0.4504330000000  0.5315650000000 1.0
C      1  0.4675410000000  0.5406990000000  0.5619450000000 1.0
C      1  0.5268790000000  0.5333520000000  0.4513950000000 1.0
C      1  0.5338070000000  0.4580590000000  0.5646090000000 1.0
C      1  0.4413100000000  0.5295800000000  0.5462410000000 1.0
C      1  0.5577160000000  0.5313900000000  0.4635590000000 1.0
C      1  0.5586750000000  0.4686090000000  0.5457720000000 1.0
C      1  0.4888010000000  0.5691490000000  0.4914980000000 1.0
C      1  0.4919990000000  0.4869990000000  0.5647430000000 1.0
C      1  0.5680030000000  0.4898290000000  0.4881620000000 1.0
C      1  0.4876280000000  0.4294490000000  0.5141030000000 1.0
C      1  0.5108730000000  0.4309700000000  0.4921210000000 1.0
C      1  0.5114160000000  0.5681690000000  0.5132140000000 1.0
C      1  0.4891120000000  0.5124610000000  0.4242000000000 1.0
C      1  0.5096710000000  0.5106280000000  0.5644690000000 1.0
C      1  0.5116480000000  0.4869600000000  0.4249030000000 1.0
C      1  0.5674530000000  0.5086010000000  0.5129200000000 1.0
C      1  0.4310780000000  0.5120390000000  0.4887470000000 1.0
C      1  0.4326410000000  0.4922800000000  0.5130560000000 1.0
C      1  0.4419920000000  0.5022810000000  0.5391520000000 1.0
C      1  0.5363780000000  0.4407220000000  0.5018140000000 1.0
C      1  0.4984310000000  0.5371200000000  0.4374270000000 1.0
C      1  0.4363150000000  0.5024200000000  0.4614270000000 1.0
C      1  0.5593910000000  0.4963570000000  0.5386420000000 1.0
C      1  0.5624990000000  0.5004680000000  0.4616300000000 1.0
C      1  0.5385670000000  0.5630720000000  0.5046740000000 1.0
C      1  0.4621970000000  0.5632180000000  0.5011450000000 1.0
C      1  0.4617050000000  0.4378640000000  0.5050070000000 1.0
C      1  0.5037330000000  0.4601870000000  0.5630640000000 1.0
C      1  0.5024270000000  0.4621040000000  0.4383960000000 1.0
C      1  0.4968990000000  0.5367030000000  0.5606720000000 1.0
C      1  0.4474070000000  0.4642880000000  0.5084870000000 1.0
C      1  0.5035630000000  0.4476790000000  0.4661370000000 1.0
C      1  0.4621860000000  0.5033240000000  0.4424950000000 1.0
C      1  0.4494080000000  0.5370600000000  0.4930670000000 1.0
C      1  0.5532100000000  0.5366390000000  0.5088790000000 1.0
C      1  0.5475380000000  0.4667350000000  0.4933060000000 1.0
C      1  0.5050760000000  0.5505820000000  0.5363170000000 1.0
C      1  0.4944180000000  0.5525490000000  0.4642530000000 1.0
C      1  0.4957000000000  0.4450950000000  0.5397220000000 1.0
C      1  0.4681700000000  0.4926250000000  0.5462560000000 1.0
C      1  0.5385560000000  0.4944860000000  0.4442790000000 1.0
C      1  0.5333590000000  0.5054420000000  0.5469810000000 1.0
END
