TITL C-1154816-9297-326 0.000811179284527015 125000 -329.524975632879 0 0 60 (C1) n - 1
REM
REM in /home/nfs/bkarasulu/CARBON/AIRSS/Generating-Clusters/AIREBO/Higher-Symm/Only-C60
REM
REM
REM
REM
REM
REM ./C.cell (28575a23ae977d3b5fae324c64b13b57)
REM
REM compiler GCC version 9.2.1 20190827 (Red Hat 9.2.1-1)
REM options -cpp -mtune=generic -march=x86-64 -g -O0 -fpre-include=/usr/include/finclude/math-vector-fortran.h
REM seed 1103819851 1383423533 -1811532785 -769828721 1278615773 -1847048967 1225387850 -1657627464 1748161459 485117071 1428775069 -67472121 -1025624887 1293469368 -500052163 -924476228 -2105544368 800884290 572697252 1218263672 934981022 -1281120326 1208929303 833404281 1339115351 -1387977890 722006470 -877712361 1638498012 -1514626671 -1497775046 -1736170010 -761873426
REM
CELL 1.54180   50.00000   50.00000   50.00000   90.00000   90.00000   90.00000
LATT -1
SFAC C  
C      1  0.4258240000000  0.5361110000000  0.5165980000000 1.0
C      1  0.4609450000000  0.5305200000000  0.4385500000000 1.0
C      1  0.5511300000000  0.5301770000000  0.4472900000000 1.0
C      1  0.5701120000000  0.5356840000000  0.5267680000000 1.0
C      1  0.4921610000000  0.5312540000000  0.5715430000000 1.0
C      1  0.4774330000000  0.5213920000000  0.4896230000000 1.0
C      1  0.5025350000000  0.5166160000000  0.4795590000000 1.0
C      1  0.5215630000000  0.5185590000000  0.4992860000000 1.0
C      1  0.5084650000000  0.5182460000000  0.5257180000000 1.0
C      1  0.4791620000000  0.5206280000000  0.5196410000000 1.0
C      1  0.5513640000000  0.5254700000000  0.5009730000000 1.0
C      1  0.5203080000000  0.5259500000000  0.5564000000000 1.0
C      1  0.4512270000000  0.5289240000000  0.5372670000000 1.0
C      1  0.4530200000000  0.5225070000000  0.4689460000000 1.0
C      1  0.5210100000000  0.5263640000000  0.4403460000000 1.0
C      1  0.5077770000000  0.5019560000000  0.4530450000000 1.0
C      1  0.5525040000000  0.4935150000000  0.4984240000000 1.0
C      1  0.5242940000000  0.4956850000000  0.5441380000000 1.0
C      1  0.4585370000000  0.4962470000000  0.5313160000000 1.0
C      1  0.4530600000000  0.4925460000000  0.4772420000000 1.0
C      1  0.5246250000000  0.4309970000000  0.4531330000000 1.0
C      1  0.5508800000000  0.4272540000000  0.5075540000000 1.0
C      1  0.5079240000000  0.4335750000000  0.5533440000000 1.0
C      1  0.4550380000000  0.4267020000000  0.5241770000000 1.0
C      1  0.4618330000000  0.4373310000000  0.4618550000000 1.0
C      1  0.5482940000000  0.5563100000000  0.5121000000000 1.0
C      1  0.5011870000000  0.5518880000000  0.5460120000000 1.0
C      1  0.4541880000000  0.5548670000000  0.5154940000000 1.0
C      1  0.4715740000000  0.5503470000000  0.4627120000000 1.0
C      1  0.5276940000000  0.5533130000000  0.4574610000000 1.0
C      1  0.4484520000000  0.4567660000000  0.5103050000000 1.0
C      1  0.4817960000000  0.4601050000000  0.4474410000000 1.0
C      1  0.5385770000000  0.4599200000000  0.4643050000000 1.0
C      1  0.5473770000000  0.4578380000000  0.5215140000000 1.0
C      1  0.4885500000000  0.4610290000000  0.5513750000000 1.0
C      1  0.5272800000000  0.4419060000000  0.4909070000000 1.0
C      1  0.5174620000000  0.4416760000000  0.5234590000000 1.0
C      1  0.4834640000000  0.4422200000000  0.5234460000000 1.0
C      1  0.4720940000000  0.4413070000000  0.4913710000000 1.0
C      1  0.4996810000000  0.4434620000000  0.4711080000000 1.0
C      1  0.4995900000000  0.4793990000000  0.5273810000000 1.0
C      1  0.4744600000000  0.4777890000000  0.5075990000000 1.0
C      1  0.4823260000000  0.4792770000000  0.4752920000000 1.0
C      1  0.5162860000000  0.4793560000000  0.4769930000000 1.0
C      1  0.5248770000000  0.4788860000000  0.5079140000000 1.0
C      1  0.5573500000000  0.4851840000000  0.4705330000000 1.0
C      1  0.5510960000000  0.4848010000000  0.5374320000000 1.0
C      1  0.4709750000000  0.4865680000000  0.5583370000000 1.0
C      1  0.4362590000000  0.4835050000000  0.4977330000000 1.0
C      1  0.4858200000000  0.4897730000000  0.4369050000000 1.0
C      1  0.4846600000000  0.5684830000000  0.4789520000000 1.0
C      1  0.5145910000000  0.5689850000000  0.4777090000000 1.0
C      1  0.5244340000000  0.5696480000000  0.5058580000000 1.0
C      1  0.5009920000000  0.5693750000000  0.5244280000000 1.0
C      1  0.4761600000000  0.5701730000000  0.5076260000000 1.0
C      1  0.4769190000000  0.5076520000000  0.5749210000000 1.0
C      1  0.4278680000000  0.5050160000000  0.5156050000000 1.0
C      1  0.4705620000000  0.5083320000000  0.4240810000000 1.0
C      1  0.5642670000000  0.5059990000000  0.4539330000000 1.0
C      1  0.5701070000000  0.5046350000000  0.5290190000000 1.0
END
