TITL C-1154828-9214-345 0.00194926697476497 125000 -322.517335610608 0 0 60 (C1) n - 1
REM
REM in /home/nfs/bkarasulu/CARBON/AIRSS/Generating-Clusters/AIREBO/Higher-Symm/Only-C60
REM
REM
REM
REM
REM
REM ./C.cell (28575a23ae977d3b5fae324c64b13b57)
REM
REM compiler GCC version 9.2.1 20190827 (Red Hat 9.2.1-1)
REM options -cpp -mtune=generic -march=x86-64 -g -O0 -fpre-include=/usr/include/finclude/math-vector-fortran.h
REM seed 1474848892 1574559676 1459372670 1628257053 209779910 -988773698 -2061057717 705163705 1877879265 1898704390 89968271 2080783614 -246799664 1831498649 -1083740163 -1543626026 971751751 -579426288 -199251904 -1689208688 623797773 -135929571 1598392211 -1816220356 -1083231371 -481978840 -14847696 1112149838 173410295 -1418031159 -581751374 1079836489 -2143983627
REM
CELL 1.54180   50.00000   50.00000   50.00000   90.00000   90.00000   90.00000
LATT -1
SFAC C  
C      1  0.5203940000000  0.4116520000000  0.5386650000000 1.0
C      1  0.4823420000000  0.4258510000000  0.4553010000000 1.0
C      1  0.5056390000000  0.4221330000000  0.4643580000000 1.0
C      1  0.4954120000000  0.4093130000000  0.5341690000000 1.0
C      1  0.4357610000000  0.5589390000000  0.4795410000000 1.0
C      1  0.5497360000000  0.5523790000000  0.5036320000000 1.0
C      1  0.4452590000000  0.5482630000000  0.5098640000000 1.0
C      1  0.5583180000000  0.5491740000000  0.4716000000000 1.0
C      1  0.5516530000000  0.4921810000000  0.4774410000000 1.0
C      1  0.4551730000000  0.4938030000000  0.5337020000000 1.0
C      1  0.5492880000000  0.5059490000000  0.5332310000000 1.0
C      1  0.4395240000000  0.5057370000000  0.4697660000000 1.0
C      1  0.4414200000000  0.5237820000000  0.5284440000000 1.0
C      1  0.5660950000000  0.5166980000000  0.4649490000000 1.0
C      1  0.4312830000000  0.5321780000000  0.4589530000000 1.0
C      1  0.5553830000000  0.5367300000000  0.5282410000000 1.0
C      1  0.5189790000000  0.4437820000000  0.4816670000000 1.0
C      1  0.4805840000000  0.4372910000000  0.5306780000000 1.0
C      1  0.5312290000000  0.4416540000000  0.5369260000000 1.0
C      1  0.4710110000000  0.4536800000000  0.4548690000000 1.0
C      1  0.5166550000000  0.4996350000000  0.5403970000000 1.0
C      1  0.4740060000000  0.4709950000000  0.4825000000000 1.0
C      1  0.5090610000000  0.4742320000000  0.4931050000000 1.0
C      1  0.4839850000000  0.5074320000000  0.5351010000000 1.0
C      1  0.4821240000000  0.5002980000000  0.4791710000000 1.0
C      1  0.5186330000000  0.5215340000000  0.5128830000000 1.0
C      1  0.4792420000000  0.5194660000000  0.5071050000000 1.0
C      1  0.5126380000000  0.5059070000000  0.4867910000000 1.0
C      1  0.4552670000000  0.5515280000000  0.4533140000000 1.0
C      1  0.5465630000000  0.5495490000000  0.5540320000000 1.0
C      1  0.4517450000000  0.5247870000000  0.5587130000000 1.0
C      1  0.5482720000000  0.5323030000000  0.4445480000000 1.0
C      1  0.4722230000000  0.5642930000000  0.5123410000000 1.0
C      1  0.5351330000000  0.5740260000000  0.4741120000000 1.0
C      1  0.4559840000000  0.5823770000000  0.4937520000000 1.0
C      1  0.5215460000000  0.5642590000000  0.4995440000000 1.0
C      1  0.5330100000000  0.4679110000000  0.4618930000000 1.0
C      1  0.4607750000000  0.4617010000000  0.5403540000000 1.0
C      1  0.5493890000000  0.4603140000000  0.5577920000000 1.0
C      1  0.4556940000000  0.4835330000000  0.4493580000000 1.0
C      1  0.5172040000000  0.4693240000000  0.5508560000000 1.0
C      1  0.4862300000000  0.4753460000000  0.4359950000000 1.0
C      1  0.5137020000000  0.4739140000000  0.4378890000000 1.0
C      1  0.4893750000000  0.4587490000000  0.5556250000000 1.0
C      1  0.4401890000000  0.4701220000000  0.5167320000000 1.0
C      1  0.5578070000000  0.4595190000000  0.4835920000000 1.0
C      1  0.4274320000000  0.4746350000000  0.4660440000000 1.0
C      1  0.5511000000000  0.4756960000000  0.5307230000000 1.0
C      1  0.5243210000000  0.5449430000000  0.5653750000000 1.0
C      1  0.4804780000000  0.5446060000000  0.4509270000000 1.0
C      1  0.5234340000000  0.5240410000000  0.4393240000000 1.0
C      1  0.4739310000000  0.5243780000000  0.5698430000000 1.0
C      1  0.5038270000000  0.5234640000000  0.5609870000000 1.0
C      1  0.5000100000000  0.5222420000000  0.4597610000000 1.0
C      1  0.4485580000000  0.5105770000000  0.4979300000000 1.0
C      1  0.5492700000000  0.5127830000000  0.5010080000000 1.0
C      1  0.5392470000000  0.4668370000000  0.5069060000000 1.0
C      1  0.4449180000000  0.4684370000000  0.4903280000000 1.0
C      1  0.5093610000000  0.4401450000000  0.5128690000000 1.0
C      1  0.4971770000000  0.5473410000000  0.5072770000000 1.0
END
