TITL C-1154829-9094-687 1.7714948017959e-05 125000 -342.29762678896 0 0 60 (C1) n - 1
REM
REM in /home/nfs/bkarasulu/CARBON/AIRSS/Generating-Clusters/AIREBO/Higher-Symm/Only-C60
REM
REM
REM
REM
REM
REM ./C.cell (28575a23ae977d3b5fae324c64b13b57)
REM
REM compiler GCC version 9.2.1 20190827 (Red Hat 9.2.1-1)
REM options -cpp -mtune=generic -march=x86-64 -g -O0 -fpre-include=/usr/include/finclude/math-vector-fortran.h
REM seed 2013829212 -1141181099 -1717140311 -434410454 136719835 -1585504170 -508863377 -808169187 1732100620 -1926433903 135949658 1330072242 551206949 -854389959 -52136995 1096174383 -1252744467 840887957 -2002468840 361227834 1621589905 -1368158668 934033198 1503468278 33692948 -1479358352 -946546092 1796090839 -1261188254 1985151114 -1711838504 -216425086 -1962121504
REM
CELL 1.54180   50.00000   50.00000   50.00000   90.00000   90.00000   90.00000
LATT -1
SFAC C  
C      1  0.4292780000000  0.5132430000000  0.4879610000000 1.0
C      1  0.5248740000000  0.5139780000000  0.5670800000000 1.0
C      1  0.5458760000000  0.5137760000000  0.4444850000000 1.0
C      1  0.4290920000000  0.4859320000000  0.4880590000000 1.0
C      1  0.5249000000000  0.4866650000000  0.5674910000000 1.0
C      1  0.5455500000000  0.4864660000000  0.4449320000000 1.0
C      1  0.4804970000000  0.5144400000000  0.4779650000000 1.0
C      1  0.4922140000000  0.5167590000000  0.5265130000000 1.0
C      1  0.5280910000000  0.5158860000000  0.4934050000000 1.0
C      1  0.4805760000000  0.4831170000000  0.4799110000000 1.0
C      1  0.4907600000000  0.4854950000000  0.5281900000000 1.0
C      1  0.5276710000000  0.4843880000000  0.4939670000000 1.0
C      1  0.4330220000000  0.5246760000000  0.4618540000000 1.0
C      1  0.5004270000000  0.5251890000000  0.5770370000000 1.0
C      1  0.5669010000000  0.5250040000000  0.4605720000000 1.0
C      1  0.4325640000000  0.4747350000000  0.4618390000000 1.0
C      1  0.5004060000000  0.4753040000000  0.5774160000000 1.0
C      1  0.5663350000000  0.4751840000000  0.4611850000000 1.0
C      1  0.5099320000000  0.4719690000000  0.4740030000000 1.0
C      1  0.4726210000000  0.4711230000000  0.5056400000000 1.0
C      1  0.5172340000000  0.4716030000000  0.5220250000000 1.0
C      1  0.5094540000000  0.5287090000000  0.4736030000000 1.0
C      1  0.4725650000000  0.5282090000000  0.5036750000000 1.0
C      1  0.5183390000000  0.5284360000000  0.5211220000000 1.0
C      1  0.4916030000000  0.4447670000000  0.4825140000000 1.0
C      1  0.4893890000000  0.4435140000000  0.5162930000000 1.0
C      1  0.5192500000000  0.4446050000000  0.5014540000000 1.0
C      1  0.4915850000000  0.5562800000000  0.4825760000000 1.0
C      1  0.4892650000000  0.5551950000000  0.5158770000000 1.0
C      1  0.5196030000000  0.5556020000000  0.5012900000000 1.0
C      1  0.5616510000000  0.5360980000000  0.4864840000000 1.0
C      1  0.4577270000000  0.5366540000000  0.4540060000000 1.0
C      1  0.4805100000000  0.5359290000000  0.5593860000000 1.0
C      1  0.5609410000000  0.4636800000000  0.4867890000000 1.0
C      1  0.4578650000000  0.4641710000000  0.4533050000000 1.0
C      1  0.4811510000000  0.4634480000000  0.5599080000000 1.0
C      1  0.5547360000000  0.4824500000000  0.5144630000000 1.0
C      1  0.4844630000000  0.4841240000000  0.4461400000000 1.0
C      1  0.4596140000000  0.4822060000000  0.5414450000000 1.0
C      1  0.5554160000000  0.5165940000000  0.5136430000000 1.0
C      1  0.4846380000000  0.5182050000000  0.4444210000000 1.0
C      1  0.4608910000000  0.5162810000000  0.5397400000000 1.0
C      1  0.5411620000000  0.4714980000000  0.5439550000000 1.0
C      1  0.5164180000000  0.4718220000000  0.4425260000000 1.0
C      1  0.4415750000000  0.4710380000000  0.5144190000000 1.0
C      1  0.5418720000000  0.5285440000000  0.5429770000000 1.0
C      1  0.5171420000000  0.5289230000000  0.4421600000000 1.0
C      1  0.4418340000000  0.5281630000000  0.5137930000000 1.0
C      1  0.4639290000000  0.4450160000000  0.4731080000000 1.0
C      1  0.4952910000000  0.4445380000000  0.5449120000000 1.0
C      1  0.5410420000000  0.4444640000000  0.4818820000000 1.0
C      1  0.4636440000000  0.5555750000000  0.4737150000000 1.0
C      1  0.4948980000000  0.5552130000000  0.5445910000000 1.0
C      1  0.5414920000000  0.5551560000000  0.4819470000000 1.0
C      1  0.5222610000000  0.5553710000000  0.5503060000000 1.0
C      1  0.5324780000000  0.5560660000000  0.4557380000000 1.0
C      1  0.4454550000000  0.5561290000000  0.4947690000000 1.0
C      1  0.5224950000000  0.4437750000000  0.5502250000000 1.0
C      1  0.5319930000000  0.4444330000000  0.4553900000000 1.0
C      1  0.4455410000000  0.4441890000000  0.4939240000000 1.0
END
