TITL C-1154821-8623-377 0.000775237310909676 125000 -312.764327685706 0 0 60 (C1) n - 1
REM
REM in /home/nfs/bkarasulu/CARBON/AIRSS/Generating-Clusters/AIREBO/Higher-Symm/Only-C60
REM
REM
REM
REM
REM
REM ./C.cell (28575a23ae977d3b5fae324c64b13b57)
REM
REM compiler GCC version 9.2.1 20190827 (Red Hat 9.2.1-1)
REM options -cpp -mtune=generic -march=x86-64 -g -O0 -fpre-include=/usr/include/finclude/math-vector-fortran.h
REM seed 649228958 -1370064308 -335549391 41582605 -639422377 -429402549 -686096975 929180854 613979517 1729086827 1246290753 2121038097 156397720 -1155677225 -1388416060 1505073199 1798543878 1043937461 1249970669 1300750128 384175222 154201408 -294787332 -1648078122 467536292 -1349541860 158776846 1809375386 -1957485046 -1186738983 -1819695006 823600238 -1507295359
REM
CELL 1.54180   50.00000   50.00000   50.00000   90.00000   90.00000   90.00000
LATT -1
SFAC C  
C      1  0.4379050000000  0.5185890000000  0.5246640000000 1.0
C      1  0.5310090000000  0.4792270000000  0.5044120000000 1.0
C      1  0.4659800000000  0.4445080000000  0.5253480000000 1.0
C      1  0.4939110000000  0.5098480000000  0.4390670000000 1.0
C      1  0.4700670000000  0.4563580000000  0.4547320000000 1.0
C      1  0.4403070000000  0.5272400000000  0.4990940000000 1.0
C      1  0.5163090000000  0.4715150000000  0.4662510000000 1.0
C      1  0.5231110000000  0.5641550000000  0.5262830000000 1.0
C      1  0.5227180000000  0.4850680000000  0.5608120000000 1.0
C      1  0.5048130000000  0.4602480000000  0.4208680000000 1.0
C      1  0.5705260000000  0.4819520000000  0.5015110000000 1.0
C      1  0.5649050000000  0.4792820000000  0.4493480000000 1.0
C      1  0.5084520000000  0.4822650000000  0.4397190000000 1.0
C      1  0.5020070000000  0.4939570000000  0.5022440000000 1.0
C      1  0.5130920000000  0.5297040000000  0.4882910000000 1.0
C      1  0.4936870000000  0.4945590000000  0.5474880000000 1.0
C      1  0.5427980000000  0.5296350000000  0.5222140000000 1.0
C      1  0.5458010000000  0.4980020000000  0.5513020000000 1.0
C      1  0.5369550000000  0.5111160000000  0.4726080000000 1.0
C      1  0.4566210000000  0.4819590000000  0.5041690000000 1.0
C      1  0.5531930000000  0.5612460000000  0.4793580000000 1.0
C      1  0.4594650000000  0.4401280000000  0.5551210000000 1.0
C      1  0.4262640000000  0.4812370000000  0.5164110000000 1.0
C      1  0.5077120000000  0.4592820000000  0.5592310000000 1.0
C      1  0.4921290000000  0.4434680000000  0.5162970000000 1.0
C      1  0.4399870000000  0.5312310000000  0.4696730000000 1.0
C      1  0.5251240000000  0.5180810000000  0.4441370000000 1.0
C      1  0.4258480000000  0.4736590000000  0.5431770000000 1.0
C      1  0.4857500000000  0.5330880000000  0.5460750000000 1.0
C      1  0.4462900000000  0.4331340000000  0.4926620000000 1.0
C      1  0.5460260000000  0.5278490000000  0.5548300000000 1.0
C      1  0.4728020000000  0.5670700000000  0.5096610000000 1.0
C      1  0.5161670000000  0.5089870000000  0.5268510000000 1.0
C      1  0.5550670000000  0.4884660000000  0.5265950000000 1.0
C      1  0.4630310000000  0.4992530000000  0.4316270000000 1.0
C      1  0.5506200000000  0.5615740000000  0.5111470000000 1.0
C      1  0.5482500000000  0.4791370000000  0.4751010000000 1.0
C      1  0.4942650000000  0.4453630000000  0.4455300000000 1.0
C      1  0.4637540000000  0.5095060000000  0.5414240000000 1.0
C      1  0.4640370000000  0.4570750000000  0.4850900000000 1.0
C      1  0.5368570000000  0.4531250000000  0.5224520000000 1.0
C      1  0.4969360000000  0.4627000000000  0.4916250000000 1.0
C      1  0.5107410000000  0.5464580000000  0.4410740000000 1.0
C      1  0.5130970000000  0.4447920000000  0.5352890000000 1.0
C      1  0.4563110000000  0.4738420000000  0.4375790000000 1.0
C      1  0.5041490000000  0.5388000000000  0.5180230000000 1.0
C      1  0.4696660000000  0.5396840000000  0.4948460000000 1.0
C      1  0.4895600000000  0.5430760000000  0.4677100000000 1.0
C      1  0.4976150000000  0.5740800000000  0.4791300000000 1.0
C      1  0.5287060000000  0.5508280000000  0.4667030000000 1.0
C      1  0.5267910000000  0.5510010000000  0.5555830000000 1.0
C      1  0.5529410000000  0.5304210000000  0.4910130000000 1.0
C      1  0.5439880000000  0.4445000000000  0.4754130000000 1.0
C      1  0.4997120000000  0.5773550000000  0.5083400000000 1.0
C      1  0.4662210000000  0.5219560000000  0.4548290000000 1.0
C      1  0.4597500000000  0.4759640000000  0.5375020000000 1.0
C      1  0.5167760000000  0.4375450000000  0.4648520000000 1.0
C      1  0.4741820000000  0.5061270000000  0.4979610000000 1.0
C      1  0.5008420000000  0.5448180000000  0.5659560000000 1.0
C      1  0.4784000000000  0.4649070000000  0.5636990000000 1.0
END
