TITL C-1154829-9094-108 0.00311138903083415 125000 -326.726622863208 0 0 60 (C1) n - 1
REM
REM in /home/nfs/bkarasulu/CARBON/AIRSS/Generating-Clusters/AIREBO/Higher-Symm/Only-C60
REM
REM
REM
REM
REM
REM ./C.cell (28575a23ae977d3b5fae324c64b13b57)
REM
REM compiler GCC version 9.2.1 20190827 (Red Hat 9.2.1-1)
REM options -cpp -mtune=generic -march=x86-64 -g -O0 -fpre-include=/usr/include/finclude/math-vector-fortran.h
REM seed 235215028 -1128951555 -410144049 -1407625082 -620827905 493249721 825979322 -1801972727 946894517 -303491252 88777707 229570125 945954530 -811192042 302804108 -1539350287 -923865963 -480110536 -312057825 1548885193 194450439 -914283526 753823409 405422987 -1253018494 -1785454419 -2029047379 -568223207 28923261 -2050146641 -1390306044 1888738773 -1408261643
REM
CELL 1.54180   50.00000   50.00000   50.00000   90.00000   90.00000   90.00000
LATT -1
SFAC C  
C      1  0.5239440000000  0.4560490000000  0.4637250000000 1.0
C      1  0.5249160000000  0.4383770000000  0.5112870000000 1.0
C      1  0.5243840000000  0.4677180000000  0.5525350000000 1.0
C      1  0.5300570000000  0.5173220000000  0.5512850000000 1.0
C      1  0.5307190000000  0.5559170000000  0.5100060000000 1.0
C      1  0.5225830000000  0.5521490000000  0.4612210000000 1.0
C      1  0.5234930000000  0.5046120000000  0.4413880000000 1.0
C      1  0.4493600000000  0.5250890000000  0.4428390000000 1.0
C      1  0.4685370000000  0.4639850000000  0.4482470000000 1.0
C      1  0.4493570000000  0.4357970000000  0.4803790000000 1.0
C      1  0.4521080000000  0.4481500000000  0.5338000000000 1.0
C      1  0.4557780000000  0.5034030000000  0.5633720000000 1.0
C      1  0.4597280000000  0.5470960000000  0.5476350000000 1.0
C      1  0.4537190000000  0.5630910000000  0.5019840000000 1.0
C      1  0.4919820000000  0.5514120000000  0.4646260000000 1.0
C      1  0.4931920000000  0.5055560000000  0.4338760000000 1.0
C      1  0.4931840000000  0.4480570000000  0.4604470000000 1.0
C      1  0.4945800000000  0.4387050000000  0.5104680000000 1.0
C      1  0.4939510000000  0.4693620000000  0.5540810000000 1.0
C      1  0.5012160000000  0.5226970000000  0.5584280000000 1.0
C      1  0.4992380000000  0.5578420000000  0.5172310000000 1.0
C      1  0.4796990000000  0.4451680000000  0.5382680000000 1.0
C      1  0.4830610000000  0.4970830000000  0.5663890000000 1.0
C      1  0.4879240000000  0.5501390000000  0.5460170000000 1.0
C      1  0.4800460000000  0.5638920000000  0.4939330000000 1.0
C      1  0.4765420000000  0.5310760000000  0.4426140000000 1.0
C      1  0.4747840000000  0.4807750000000  0.4271570000000 1.0
C      1  0.4803200000000  0.4292100000000  0.4828400000000 1.0
C      1  0.4768820000000  0.4838100000000  0.5286420000000 1.0
C      1  0.4852090000000  0.5136130000000  0.5300890000000 1.0
C      1  0.5047690000000  0.5256780000000  0.5076880000000 1.0
C      1  0.4843920000000  0.5245240000000  0.4811990000000 1.0
C      1  0.4922830000000  0.5000910000000  0.4658580000000 1.0
C      1  0.4923920000000  0.4758880000000  0.4780430000000 1.0
C      1  0.4889170000000  0.4695630000000  0.5047920000000 1.0
C      1  0.4432470000000  0.5377620000000  0.5065770000000 1.0
C      1  0.4525540000000  0.5224530000000  0.4825410000000 1.0
C      1  0.4388450000000  0.5001040000000  0.4608870000000 1.0
C      1  0.4438460000000  0.4677720000000  0.4701790000000 1.0
C      1  0.4477160000000  0.4587610000000  0.5032650000000 1.0
C      1  0.4432250000000  0.4853200000000  0.5240440000000 1.0
C      1  0.4515460000000  0.5176240000000  0.5327740000000 1.0
C      1  0.5314960000000  0.4783920000000  0.4482120000000 1.0
C      1  0.5358770000000  0.4424210000000  0.4855000000000 1.0
C      1  0.5343830000000  0.4468600000000  0.5364090000000 1.0
C      1  0.5381360000000  0.4914890000000  0.5588990000000 1.0
C      1  0.5332840000000  0.5294690000000  0.5263710000000 1.0
C      1  0.5366110000000  0.5626970000000  0.4834200000000 1.0
C      1  0.5329810000000  0.5309360000000  0.4454490000000 1.0
C      1  0.5819680000000  0.4816440000000  0.4822300000000 1.0
C      1  0.5796170000000  0.4842880000000  0.5148550000000 1.0
C      1  0.5961220000000  0.4888710000000  0.5361340000000 1.0
C      1  0.6132830000000  0.5100660000000  0.5400930000000 1.0
C      1  0.6162570000000  0.5306620000000  0.5219210000000 1.0
C      1  0.6027140000000  0.5315740000000  0.4979300000000 1.0
C      1  0.5842620000000  0.5138150000000  0.4884430000000 1.0
C      1  0.4243720000000  0.4954940000000  0.4911310000000 1.0
C      1  0.5259400000000  0.5037040000000  0.4926840000000 1.0
C      1  0.4581320000000  0.4946010000000  0.4953150000000 1.0
C      1  0.5546330000000  0.4998850000000  0.4976150000000 1.0
END
