TITL C-1154801-8518-46 -0.000987336817101694 125000 -343.678820151725 0 0 60 (C1) n - 1
REM
REM in /home/nfs/bkarasulu/CARBON/AIRSS/Generating-Clusters/AIREBO/Higher-Symm/Only-C60
REM
REM
REM
REM
REM
REM ./C.cell (28575a23ae977d3b5fae324c64b13b57)
REM
REM compiler GCC version 9.2.1 20190827 (Red Hat 9.2.1-1)
REM options -cpp -mtune=generic -march=x86-64 -g -O0 -fpre-include=/usr/include/finclude/math-vector-fortran.h
REM seed 950811942 -1447468147 -1573086662 -1939536671 1254006261 779961773 -642361588 -1243677866 303752944 -32268545 -78834595 573695740 1309769648 1555683006 671522621 595237152 1920050294 1565720894 622514383 -1199141848 -1285465311 305779366 165886468 1860932429 -1338425869 1414163456 -1933968494 -214971606 1658758996 206318070 -1018963066 -1587220507 -2047337437
REM
CELL 1.54180   50.00000   50.00000   50.00000   90.00000   90.00000   90.00000
LATT -1
SFAC C  
C      1  0.4479230000000  0.4639670000000  0.4768700000000 1.0
C      1  0.5348930000000  0.4490630000000  0.4763850000000 1.0
C      1  0.5499270000000  0.5371370000000  0.4796400000000 1.0
C      1  0.4624870000000  0.5509690000000  0.4749210000000 1.0
C      1  0.4495290000000  0.4630180000000  0.5232470000000 1.0
C      1  0.5334800000000  0.4490910000000  0.5228870000000 1.0
C      1  0.5469400000000  0.5365390000000  0.5261090000000 1.0
C      1  0.4639850000000  0.5511250000000  0.5212020000000 1.0
C      1  0.4875800000000  0.4624590000000  0.4735070000000 1.0
C      1  0.5356540000000  0.4889640000000  0.4747420000000 1.0
C      1  0.5106750000000  0.5386380000000  0.4725590000000 1.0
C      1  0.4648410000000  0.5111300000000  0.4750370000000 1.0
C      1  0.4892700000000  0.4612010000000  0.5258520000000 1.0
C      1  0.5348100000000  0.4903670000000  0.5253040000000 1.0
C      1  0.5083770000000  0.5399500000000  0.5231580000000 1.0
C      1  0.4646130000000  0.5099230000000  0.5300170000000 1.0
C      1  0.5427700000000  0.5867760000000  0.4681270000000 1.0
C      1  0.4133630000000  0.5381370000000  0.4707120000000 1.0
C      1  0.4571930000000  0.4140190000000  0.4676560000000 1.0
C      1  0.5847480000000  0.4596000000000  0.4701430000000 1.0
C      1  0.5401600000000  0.5874860000000  0.5287420000000 1.0
C      1  0.4154520000000  0.5402360000000  0.5327790000000 1.0
C      1  0.4580360000000  0.4132160000000  0.5313300000000 1.0
C      1  0.5821170000000  0.4569850000000  0.5348630000000 1.0
C      1  0.5201660000000  0.4663850000000  0.5655010000000 1.0
C      1  0.5276400000000  0.4926810000000  0.5704730000000 1.0
C      1  0.5070360000000  0.5151260000000  0.5655610000000 1.0
C      1  0.4826270000000  0.5216890000000  0.5559600000000 1.0
C      1  0.4933850000000  0.4789280000000  0.4450330000000 1.0
C      1  0.5229650000000  0.4931990000000  0.4445730000000 1.0
C      1  0.5147610000000  0.5261230000000  0.4411500000000 1.0
C      1  0.4872870000000  0.5092930000000  0.4520100000000 1.0
C      1  0.4389220000000  0.5305020000000  0.5220850000000 1.0
C      1  0.4687330000000  0.4362470000000  0.5206190000000 1.0
C      1  0.5596930000000  0.4676050000000  0.5230650000000 1.0
C      1  0.5285690000000  0.5643100000000  0.5190600000000 1.0
C      1  0.4379030000000  0.5297070000000  0.4802240000000 1.0
C      1  0.4677190000000  0.4371150000000  0.4784840000000 1.0
C      1  0.5608730000000  0.4689890000000  0.4802840000000 1.0
C      1  0.5310870000000  0.5641500000000  0.4786280000000 1.0
C      1  0.4848610000000  0.5435640000000  0.5373380000000 1.0
C      1  0.4555100000000  0.4819550000000  0.5416190000000 1.0
C      1  0.5131170000000  0.4567280000000  0.5401680000000 1.0
C      1  0.5342770000000  0.5146450000000  0.5452150000000 1.0
C      1  0.4817830000000  0.5422650000000  0.4565070000000 1.0
C      1  0.4556620000000  0.4838790000000  0.4599200000000 1.0
C      1  0.5156060000000  0.4562970000000  0.4577240000000 1.0
C      1  0.5420170000000  0.5175750000000  0.4593750000000 1.0
C      1  0.4946350000000  0.4326000000000  0.4988390000000 1.0
C      1  0.5635490000000  0.4945190000000  0.5026330000000 1.0
C      1  0.5029610000000  0.5691370000000  0.4971030000000 1.0
C      1  0.4364220000000  0.5033620000000  0.5017310000000 1.0
C      1  0.5236450000000  0.4368150000000  0.4993760000000 1.0
C      1  0.4736410000000  0.5637950000000  0.4976090000000 1.0
C      1  0.4373590000000  0.4745290000000  0.5007230000000 1.0
C      1  0.5599420000000  0.5256660000000  0.5031790000000 1.0
C      1  0.4917170000000  0.4771730000000  0.5000570000000 1.0
C      1  0.5181600000000  0.4939000000000  0.4994550000000 1.0
C      1  0.5067210000000  0.5232530000000  0.4985430000000 1.0
C      1  0.4802260000000  0.5063010000000  0.5017510000000 1.0
END
