TITL C-1154824-75-715 0.000887915416104007 125000 -332.459906797375 0 0 60 (C1) n - 1
REM
REM in /home/nfs/bkarasulu/CARBON/AIRSS/Generating-Clusters/AIREBO/Higher-Symm/Only-C60
REM
REM
REM
REM
REM
REM ./C.cell (28575a23ae977d3b5fae324c64b13b57)
REM
REM compiler GCC version 9.2.1 20190827 (Red Hat 9.2.1-1)
REM options -cpp -mtune=generic -march=x86-64 -g -O0 -fpre-include=/usr/include/finclude/math-vector-fortran.h
REM seed -265456812 588926080 1677932667 2088182576 -1758098971 -241579741 -1841941380 -1391819549 -37323020 790670633 961585891 -869468190 -439974584 755470813 -1950089649 1246273052 -156521968 -169390940 -14607859 -163078153 404988251 541140258 1223707345 151836511 -642678827 -1747581341 1138825814 1268729588 -824296159 -642616472 1584502211 2129986709 786094938
REM
CELL 1.54180   50.00000   50.00000   50.00000   90.00000   90.00000   90.00000
LATT -1
SFAC C  
C      1  0.4635510000000  0.4782290000000  0.4669420000000 1.0
C      1  0.4630630000000  0.4704660000000  0.4997750000000 1.0
C      1  0.4569550000000  0.4715240000000  0.5320150000000 1.0
C      1  0.4581500000000  0.5017240000000  0.5475510000000 1.0
C      1  0.4629720000000  0.5352800000000  0.5105900000000 1.0
C      1  0.4646500000000  0.5390450000000  0.4767230000000 1.0
C      1  0.4575540000000  0.5104810000000  0.4596730000000 1.0
C      1  0.4232780000000  0.5106320000000  0.4641250000000 1.0
C      1  0.4311490000000  0.4825180000000  0.4705270000000 1.0
C      1  0.4187540000000  0.4701890000000  0.4928190000000 1.0
C      1  0.4262710000000  0.4768740000000  0.5188660000000 1.0
C      1  0.4329070000000  0.5034450000000  0.5310660000000 1.0
C      1  0.4302010000000  0.5271020000000  0.5145000000000 1.0
C      1  0.4333110000000  0.5302650000000  0.4843950000000 1.0
C      1  0.5142050000000  0.5309160000000  0.4747530000000 1.0
C      1  0.5057260000000  0.5027790000000  0.4625540000000 1.0
C      1  0.5152280000000  0.4744320000000  0.4751650000000 1.0
C      1  0.5149540000000  0.4613950000000  0.5056200000000 1.0
C      1  0.5094930000000  0.4759770000000  0.5322520000000 1.0
C      1  0.5119060000000  0.5096140000000  0.5332230000000 1.0
C      1  0.5161950000000  0.5407670000000  0.5223240000000 1.0
C      1  0.5755920000000  0.5235960000000  0.4750410000000 1.0
C      1  0.5765060000000  0.4977230000000  0.4617980000000 1.0
C      1  0.5723060000000  0.4761050000000  0.4857170000000 1.0
C      1  0.5635680000000  0.4689150000000  0.5117020000000 1.0
C      1  0.5600970000000  0.4872360000000  0.5336610000000 1.0
C      1  0.5663770000000  0.5152120000000  0.5318310000000 1.0
C      1  0.5769580000000  0.5261990000000  0.5060530000000 1.0
C      1  0.4891070000000  0.4362750000000  0.4662490000000 1.0
C      1  0.4846180000000  0.4344380000000  0.5555400000000 1.0
C      1  0.4966020000000  0.4835820000000  0.5716240000000 1.0
C      1  0.4967580000000  0.5382330000000  0.5566850000000 1.0
C      1  0.4931540000000  0.5774830000000  0.4858450000000 1.0
C      1  0.4869070000000  0.5328760000000  0.4239940000000 1.0
C      1  0.5030510000000  0.4817360000000  0.4289320000000 1.0
C      1  0.5473380000000  0.5348330000000  0.5463560000000 1.0
C      1  0.5465770000000  0.5450660000000  0.5142640000000 1.0
C      1  0.5454270000000  0.5356400000000  0.4841950000000 1.0
C      1  0.5512720000000  0.4902410000000  0.4401790000000 1.0
C      1  0.5458740000000  0.4730000000000  0.4667780000000 1.0
C      1  0.5426620000000  0.4487430000000  0.5107880000000 1.0
C      1  0.5377820000000  0.4805130000000  0.5494720000000 1.0
C      1  0.4855120000000  0.4114680000000  0.4567930000000 1.0
C      1  0.5458110000000  0.4223150000000  0.5169160000000 1.0
C      1  0.5235960000000  0.4811520000000  0.5747950000000 1.0
C      1  0.5241400000000  0.5407260000000  0.5614950000000 1.0
C      1  0.4871880000000  0.5791740000000  0.5103660000000 1.0
C      1  0.4908970000000  0.5542160000000  0.4372620000000 1.0
C      1  0.5295640000000  0.4846400000000  0.4225840000000 1.0
C      1  0.4832550000000  0.5063990000000  0.4401460000000 1.0
C      1  0.4895130000000  0.4669090000000  0.4557170000000 1.0
C      1  0.4875840000000  0.4515330000000  0.4925380000000 1.0
C      1  0.4835180000000  0.4639870000000  0.5481810000000 1.0
C      1  0.4862410000000  0.5083170000000  0.5555220000000 1.0
C      1  0.4862290000000  0.5530690000000  0.5279600000000 1.0
C      1  0.4916680000000  0.5514910000000  0.4683700000000 1.0
C      1  0.4628240000000  0.5017850000000  0.5046380000000 1.0
C      1  0.5183960000000  0.5083070000000  0.4998630000000 1.0
C      1  0.5420080000000  0.5028450000000  0.4805170000000 1.0
C      1  0.4891500000000  0.5145650000000  0.5011260000000 1.0
END
