TITL C-1154823-9327-134 -0.00147456562100673 125000 -330.780652749492 0 0 60 (C1) n - 1
REM
REM in /home/nfs/bkarasulu/CARBON/AIRSS/Generating-Clusters/AIREBO/Higher-Symm/Only-C60
REM
REM
REM
REM
REM
REM ./C.cell (28575a23ae977d3b5fae324c64b13b57)
REM
REM compiler GCC version 9.2.1 20190827 (Red Hat 9.2.1-1)
REM options -cpp -mtune=generic -march=x86-64 -g -O0 -fpre-include=/usr/include/finclude/math-vector-fortran.h
REM seed -840421296 13782231 -1493612737 1192133096 -78652788 1901983134 -1292922228 -2008105862 1949798118 -966912787 635141798 -42550798 20726964 -221261476 -2003015282 1431710999 -1985773425 1554711029 -1768137458 1924031774 1307087294 -2016620205 254991609 -1127905783 -1498671249 1214988843 804072857 -2101788804 1569166844 -1029794625 -1514592479 1552582684 1601918111
REM
CELL 1.54180   50.00000   50.00000   50.00000   90.00000   90.00000   90.00000
LATT -1
SFAC C  
C      1  0.5133090000000  0.5614540000000  0.5145290000000 1.0
C      1  0.4325470000000  0.4830460000000  0.5041530000000 1.0
C      1  0.5506090000000  0.4567580000000  0.5169280000000 1.0
C      1  0.5630210000000  0.4456890000000  0.5402130000000 1.0
C      1  0.5230460000000  0.5710710000000  0.5391760000000 1.0
C      1  0.4170250000000  0.4803520000000  0.5291830000000 1.0
C      1  0.5028830000000  0.5320920000000  0.5127870000000 1.0
C      1  0.4629870000000  0.4966300000000  0.5109030000000 1.0
C      1  0.5256270000000  0.4758070000000  0.5216960000000 1.0
C      1  0.5002540000000  0.4636540000000  0.5129550000000 1.0
C      1  0.5252790000000  0.5094120000000  0.5162320000000 1.0
C      1  0.4721600000000  0.5268060000000  0.5187200000000 1.0
C      1  0.5038570000000  0.5721440000000  0.4621560000000 1.0
C      1  0.4429820000000  0.4617640000000  0.4557320000000 1.0
C      1  0.5600810000000  0.4649990000000  0.4615670000000 1.0
C      1  0.4926080000000  0.4575030000000  0.4446370000000 1.0
C      1  0.5402660000000  0.5114570000000  0.4479280000000 1.0
C      1  0.4711350000000  0.5282990000000  0.4416780000000 1.0
C      1  0.4458120000000  0.4375610000000  0.5103610000000 1.0
C      1  0.5848780000000  0.4876440000000  0.5112540000000 1.0
C      1  0.4769450000000  0.5888030000000  0.5186450000000 1.0
C      1  0.5860740000000  0.4489890000000  0.4696670000000 1.0
C      1  0.4767770000000  0.5580250000000  0.4766440000000 1.0
C      1  0.4160580000000  0.4461270000000  0.4613230000000 1.0
C      1  0.5601350000000  0.4203730000000  0.5486030000000 1.0
C      1  0.5489590000000  0.5755960000000  0.5445540000000 1.0
C      1  0.3921210000000  0.4897930000000  0.5324200000000 1.0
C      1  0.5782030000000  0.4658710000000  0.5534330000000 1.0
C      1  0.5018350000000  0.5756240000000  0.5572210000000 1.0
C      1  0.4315820000000  0.4643950000000  0.5473600000000 1.0
C      1  0.4508240000000  0.5336860000000  0.4608920000000 1.0
C      1  0.4941960000000  0.4396140000000  0.4679420000000 1.0
C      1  0.5523510000000  0.5234310000000  0.4725160000000 1.0
C      1  0.4958750000000  0.5783780000000  0.4948190000000 1.0
C      1  0.4343810000000  0.4564390000000  0.4881400000000 1.0
C      1  0.5695610000000  0.4658560000000  0.4942060000000 1.0
C      1  0.5166150000000  0.4888860000000  0.4709180000000 1.0
C      1  0.5025040000000  0.5360420000000  0.4799500000000 1.0
C      1  0.4648130000000  0.4859320000000  0.4786700000000 1.0
C      1  0.4542550000000  0.4529340000000  0.5333570000000 1.0
C      1  0.5737860000000  0.4899250000000  0.5377910000000 1.0
C      1  0.4770540000000  0.5731350000000  0.5428340000000 1.0
C      1  0.5018090000000  0.4360900000000  0.4954650000000 1.0
C      1  0.5728980000000  0.5391490000000  0.4795810000000 1.0
C      1  0.4531130000000  0.5339230000000  0.4943910000000 1.0
C      1  0.5936180000000  0.4634040000000  0.5751400000000 1.0
C      1  0.5040290000000  0.5798420000000  0.5836000000000 1.0
C      1  0.4265660000000  0.4612910000000  0.5735080000000 1.0
C      1  0.5380360000000  0.4797030000000  0.4497320000000 1.0
C      1  0.4986910000000  0.5416580000000  0.4476830000000 1.0
C      1  0.4693470000000  0.4761990000000  0.4472940000000 1.0
C      1  0.5158840000000  0.4648960000000  0.4328010000000 1.0
C      1  0.5232680000000  0.5277430000000  0.4342420000000 1.0
C      1  0.4702950000000  0.5030910000000  0.4309870000000 1.0
C      1  0.4417430000000  0.5083580000000  0.4791990000000 1.0
C      1  0.4942470000000  0.4726480000000  0.4815960000000 1.0
C      1  0.5245270000000  0.5140740000000  0.4846020000000 1.0
C      1  0.4652810000000  0.5470760000000  0.5418830000000 1.0
C      1  0.4744390000000  0.4715640000000  0.5264130000000 1.0
C      1  0.5469400000000  0.4972980000000  0.5371850000000 1.0
END
