TITL C-1154821-8623-163 -0.000267308794558175 125000 -343.485940660784 0 0 60 (C1) n - 1
REM
REM in /home/nfs/bkarasulu/CARBON/AIRSS/Generating-Clusters/AIREBO/Higher-Symm/Only-C60
REM
REM
REM
REM
REM
REM ./C.cell (28575a23ae977d3b5fae324c64b13b57)
REM
REM compiler GCC version 9.2.1 20190827 (Red Hat 9.2.1-1)
REM options -cpp -mtune=generic -march=x86-64 -g -O0 -fpre-include=/usr/include/finclude/math-vector-fortran.h
REM seed 1723327804 -209293611 1290158786 -136683655 -951834613 -1319462982 -1922841253 -1707487339 -621548410 1939743921 998260986 605537208 87339102 -37218760 -736101800 617850298 995348882 -1571730920 -863865400 -1094635237 1034531629 1113236913 -869567732 -1908929711 1328059925 150606335 1072373409 530423706 -1344997428 -1414769177 1208438763 541889964 1796501534
REM
CELL 1.54180   50.00000   50.00000   50.00000   90.00000   90.00000   90.00000
LATT -1
SFAC C  
C      1  0.4575950000000  0.4856780000000  0.5511010000000 1.0
C      1  0.4572270000000  0.4559730000000  0.4591400000000 1.0
C      1  0.4688180000000  0.5548170000000  0.4739330000000 1.0
C      1  0.4577810000000  0.4868230000000  0.4459980000000 1.0
C      1  0.4556900000000  0.4572320000000  0.5390990000000 1.0
C      1  0.4597280000000  0.5538410000000  0.5248620000000 1.0
C      1  0.4863970000000  0.4287950000000  0.5127170000000 1.0
C      1  0.4871550000000  0.5234280000000  0.4303760000000 1.0
C      1  0.4864210000000  0.5481780000000  0.5613620000000 1.0
C      1  0.4884680000000  0.4271400000000  0.4853380000000 1.0
C      1  0.4865340000000  0.5224620000000  0.5710220000000 1.0
C      1  0.4902270000000  0.5485840000000  0.4407840000000 1.0
C      1  0.5220620000000  0.5302250000000  0.5171580000000 1.0
C      1  0.5182450000000  0.4739050000000  0.5137040000000 1.0
C      1  0.5195590000000  0.5009150000000  0.4692540000000 1.0
C      1  0.5222420000000  0.5271620000000  0.4832900000000 1.0
C      1  0.5220750000000  0.4719020000000  0.4848960000000 1.0
C      1  0.5204420000000  0.5031750000000  0.5310930000000 1.0
C      1  0.5508140000000  0.5420750000000  0.4920390000000 1.0
C      1  0.5471730000000  0.4952630000000  0.5487210000000 1.0
C      1  0.5462020000000  0.4578080000000  0.4662730000000 1.0
C      1  0.5532060000000  0.5483450000000  0.5204530000000 1.0
C      1  0.5442570000000  0.4858480000000  0.4549100000000 1.0
C      1  0.5446820000000  0.4714620000000  0.5309180000000 1.0
C      1  0.5072940000000  0.5541950000000  0.5363650000000 1.0
C      1  0.4933150000000  0.4577430000000  0.5240630000000 1.0
C      1  0.4946250000000  0.5009520000000  0.4519030000000 1.0
C      1  0.5088810000000  0.5513720000000  0.4633410000000 1.0
C      1  0.5077510000000  0.4453160000000  0.4725760000000 1.0
C      1  0.4939870000000  0.5018800000000  0.5479220000000 1.0
C      1  0.5205250000000  0.4713970000000  0.4167590000000 1.0
C      1  0.5301190000000  0.5903620000000  0.5121030000000 1.0
C      1  0.5270900000000  0.4427420000000  0.5637550000000 1.0
C      1  0.5233560000000  0.4700520000000  0.5810740000000 1.0
C      1  0.5193880000000  0.5817920000000  0.4869330000000 1.0
C      1  0.5166120000000  0.4435210000000  0.4316040000000 1.0
C      1  0.4663180000000  0.4755790000000  0.5135140000000 1.0
C      1  0.4676970000000  0.5046380000000  0.4712370000000 1.0
C      1  0.4574880000000  0.5287350000000  0.5120550000000 1.0
C      1  0.4590070000000  0.4772550000000  0.4843650000000 1.0
C      1  0.4675940000000  0.5048700000000  0.5266930000000 1.0
C      1  0.4614250000000  0.5298280000000  0.4847630000000 1.0
C      1  0.5475550000000  0.4462520000000  0.5439070000000 1.0
C      1  0.5431040000000  0.4862320000000  0.4263850000000 1.0
C      1  0.5340330000000  0.5684010000000  0.5299610000000 1.0
C      1  0.5385910000000  0.4370820000000  0.4485080000000 1.0
C      1  0.5439320000000  0.4894740000000  0.5762920000000 1.0
C      1  0.5380650000000  0.5623820000000  0.4734800000000 1.0
C      1  0.4909260000000  0.5699370000000  0.4894820000000 1.0
C      1  0.4961990000000  0.4785020000000  0.5685910000000 1.0
C      1  0.4873150000000  0.4506180000000  0.4474050000000 1.0
C      1  0.4846250000000  0.5658920000000  0.5176910000000 1.0
C      1  0.4955230000000  0.4770060000000  0.4328390000000 1.0
C      1  0.4996810000000  0.4529550000000  0.5539600000000 1.0
C      1  0.4641180000000  0.5014480000000  0.5745170000000 1.0
C      1  0.4645620000000  0.4263660000000  0.4695920000000 1.0
C      1  0.4651690000000  0.5641560000000  0.4456420000000 1.0
C      1  0.4656690000000  0.5021370000000  0.4241670000000 1.0
C      1  0.4654970000000  0.4309950000000  0.5345630000000 1.0
C      1  0.4599610000000  0.5569000000000  0.5535540000000 1.0
END
