TITL C-1154826-9507-39 0.00386758152616047 125000 -374.031779834881 0 0 60 (C1) n - 1
REM
REM in /home/nfs/bkarasulu/CARBON/AIRSS/Generating-Clusters/AIREBO/Higher-Symm/Only-C60
REM
REM
REM
REM
REM
REM ./C.cell (28575a23ae977d3b5fae324c64b13b57)
REM
REM compiler GCC version 9.2.1 20190827 (Red Hat 9.2.1-1)
REM options -cpp -mtune=generic -march=x86-64 -g -O0 -fpre-include=/usr/include/finclude/math-vector-fortran.h
REM seed 1930927601 1381954856 -39780293 -1867244962 397701875 747619045 -603818393 -302549081 -427440890 257326831 -205884695 -2099432507 -1443073026 -2007948373 2059022918 423265772 -2117983235 1465398521 1688509404 810877468 36077785 -269610999 -640918821 1477766401 1754613988 626585061 -1466008830 -37079676 26503321 -1428951179 -1908373505 -278828042 1736042417
REM
CELL 1.54180   50.00000   50.00000   50.00000   90.00000   90.00000   90.00000
LATT -1
SFAC C  
C      1  0.5002570000000  0.5130860000000  0.4138600000000 1.0
C      1  0.5002330000000  0.4325060000000  0.4452920000000 1.0
C      1  0.4992320000000  0.4203110000000  0.5310080000000 1.0
C      1  0.5011870000000  0.4863570000000  0.5869710000000 1.0
C      1  0.4994540000000  0.5656670000000  0.5548520000000 1.0
C      1  0.4978810000000  0.5780360000000  0.4705970000000 1.0
C      1  0.5004710000000  0.4850720000000  0.4166850000000 1.0
C      1  0.4990370000000  0.5627670000000  0.4469970000000 1.0
C      1  0.5004350000000  0.5795860000000  0.5304370000000 1.0
C      1  0.5021480000000  0.5144500000000  0.5858630000000 1.0
C      1  0.4995860000000  0.4368990000000  0.5537210000000 1.0
C      1  0.4997470000000  0.4216820000000  0.4712720000000 1.0
C      1  0.5246110000000  0.4729460000000  0.4252440000000 1.0
C      1  0.5239040000000  0.4222340000000  0.4860890000000 1.0
C      1  0.5243770000000  0.4487270000000  0.5607800000000 1.0
C      1  0.5260050000000  0.5265600000000  0.5766020000000 1.0
C      1  0.5242840000000  0.5777940000000  0.5153270000000 1.0
C      1  0.5238960000000  0.5509550000000  0.4402020000000 1.0
C      1  0.5239050000000  0.5269240000000  0.4209270000000 1.0
C      1  0.5220770000000  0.5807860000000  0.4849270000000 1.0
C      1  0.5237200000000  0.5544350000000  0.5639970000000 1.0
C      1  0.5247990000000  0.4724010000000  0.5802720000000 1.0
C      1  0.5233470000000  0.4180680000000  0.5164620000000 1.0
C      1  0.5243860000000  0.4444310000000  0.4367690000000 1.0
C      1  0.4561950000000  0.5418220000000  0.5384360000000 1.0
C      1  0.4537740000000  0.5539740000000  0.4835280000000 1.0
C      1  0.4554810000000  0.5147530000000  0.4400800000000 1.0
C      1  0.4582950000000  0.4598040000000  0.4565190000000 1.0
C      1  0.4592870000000  0.4471420000000  0.5130350000000 1.0
C      1  0.4599910000000  0.4875210000000  0.5554920000000 1.0
C      1  0.4573260000000  0.4616970000000  0.5365950000000 1.0
C      1  0.4560210000000  0.4476690000000  0.4813380000000 1.0
C      1  0.4548290000000  0.4870400000000  0.4411740000000 1.0
C      1  0.4569200000000  0.5380000000000  0.4613580000000 1.0
C      1  0.4579200000000  0.5560960000000  0.5146850000000 1.0
C      1  0.4605090000000  0.5153280000000  0.5556590000000 1.0
C      1  0.4766350000000  0.4743150000000  0.5795450000000 1.0
C      1  0.4756110000000  0.5517100000000  0.5610460000000 1.0
C      1  0.4738800000000  0.5780600000000  0.4856330000000 1.0
C      1  0.4756920000000  0.5266820000000  0.4182030000000 1.0
C      1  0.4763630000000  0.4441300000000  0.4357270000000 1.0
C      1  0.4753470000000  0.4198180000000  0.5159950000000 1.0
C      1  0.4778670000000  0.5274440000000  0.5794290000000 1.0
C      1  0.4759290000000  0.4513470000000  0.5595230000000 1.0
C      1  0.4753220000000  0.4232830000000  0.4855910000000 1.0
C      1  0.4760410000000  0.4723080000000  0.4232280000000 1.0
C      1  0.4757860000000  0.5488960000000  0.4393720000000 1.0
C      1  0.4761960000000  0.5818270000000  0.5161090000000 1.0
C      1  0.5411810000000  0.5155170000000  0.4449860000000 1.0
C      1  0.5415990000000  0.4596280000000  0.4586080000000 1.0
C      1  0.5413710000000  0.4441250000000  0.5142800000000 1.0
C      1  0.5422360000000  0.4839360000000  0.5563570000000 1.0
C      1  0.5416160000000  0.5397140000000  0.5424910000000 1.0
C      1  0.5405720000000  0.5551760000000  0.4869840000000 1.0
C      1  0.5441190000000  0.4879760000000  0.4448860000000 1.0
C      1  0.5435530000000  0.5414960000000  0.4630040000000 1.0
C      1  0.5440330000000  0.5534550000000  0.5184760000000 1.0
C      1  0.5451690000000  0.5115470000000  0.5565810000000 1.0
C      1  0.5443100000000  0.4579320000000  0.5381780000000 1.0
C      1  0.5440440000000  0.4461530000000  0.4827160000000 1.0
END
