TITL C-1154808-8168-269 -0.000990368743339307 125000 -317.473207541828 0 0 60 (C1) n - 1
REM
REM in /home/nfs/bkarasulu/CARBON/AIRSS/Generating-Clusters/AIREBO/Higher-Symm/Only-C60
REM
REM
REM
REM
REM
REM ./C.cell (28575a23ae977d3b5fae324c64b13b57)
REM
REM compiler GCC version 9.2.1 20190827 (Red Hat 9.2.1-1)
REM options -cpp -mtune=generic -march=x86-64 -g -O0 -fpre-include=/usr/include/finclude/math-vector-fortran.h
REM seed 437945292 1581557320 -97683833 -16195403 599373807 -838221140 1250689978 -1653849510 -2140679056 730757105 -477187057 940008071 -304673016 915893985 -1304371291 1076209926 -1813998725 270169009 -551878777 1701203037 34553225 -1511334790 2013479901 -567726613 -2094575514 2100208443 -1646328542 -591381702 686864333 -790981949 948926047 13158909 -227024306
REM
CELL 1.54180   50.00000   50.00000   50.00000   90.00000   90.00000   90.00000
LATT -1
SFAC C  
C      1  0.4553820000000  0.5495390000000  0.5377750000000 1.0
C      1  0.4552130000000  0.4499010000000  0.4625140000000 1.0
C      1  0.5363680000000  0.5559440000000  0.5458420000000 1.0
C      1  0.5330920000000  0.4458390000000  0.4485200000000 1.0
C      1  0.4875240000000  0.5618020000000  0.4526390000000 1.0
C      1  0.4871780000000  0.4381390000000  0.5470490000000 1.0
C      1  0.5162640000000  0.5557680000000  0.4554670000000 1.0
C      1  0.5159660000000  0.4442480000000  0.5446360000000 1.0
C      1  0.5163310000000  0.4420390000000  0.4770110000000 1.0
C      1  0.5172780000000  0.5575540000000  0.5234680000000 1.0
C      1  0.4866990000000  0.4486070000000  0.4752890000000 1.0
C      1  0.4873370000000  0.5509010000000  0.5257790000000 1.0
C      1  0.4632530000000  0.5703430000000  0.4634160000000 1.0
C      1  0.4628220000000  0.4296610000000  0.5363780000000 1.0
C      1  0.5401110000000  0.5663770000000  0.4652150000000 1.0
C      1  0.5401130000000  0.4338620000000  0.5353150000000 1.0
C      1  0.5552370000000  0.4934690000000  0.4753110000000 1.0
C      1  0.5545300000000  0.5068960000000  0.5251100000000 1.0
C      1  0.4449340000000  0.5012440000000  0.4855440000000 1.0
C      1  0.4450660000000  0.4982910000000  0.5142450000000 1.0
C      1  0.4867550000000  0.4707580000000  0.5489360000000 1.0
C      1  0.4871700000000  0.5291410000000  0.4511580000000 1.0
C      1  0.5180930000000  0.4771630000000  0.5442170000000 1.0
C      1  0.5184740000000  0.5227410000000  0.4557490000000 1.0
C      1  0.5464740000000  0.4769490000000  0.4470770000000 1.0
C      1  0.5451350000000  0.5238860000000  0.5530220000000 1.0
C      1  0.4498150000000  0.4830890000000  0.4580890000000 1.0
C      1  0.4492780000000  0.5163330000000  0.5418020000000 1.0
C      1  0.4730330000000  0.5166160000000  0.4761660000000 1.0
C      1  0.4733290000000  0.4837500000000  0.5239280000000 1.0
C      1  0.5277890000000  0.5089800000000  0.4855900000000 1.0
C      1  0.5276320000000  0.4905810000000  0.5143030000000 1.0
C      1  0.5119020000000  0.5258780000000  0.5506450000000 1.0
C      1  0.5126730000000  0.4727790000000  0.4497610000000 1.0
C      1  0.4794730000000  0.5295500000000  0.5510470000000 1.0
C      1  0.4799110000000  0.4692440000000  0.4491340000000 1.0
C      1  0.5703860000000  0.5298590000000  0.4691840000000 1.0
C      1  0.5698810000000  0.4708470000000  0.5320550000000 1.0
C      1  0.4327320000000  0.5319780000000  0.4631840000000 1.0
C      1  0.4320700000000  0.4679850000000  0.5368120000000 1.0
C      1  0.5356870000000  0.4878810000000  0.5675310000000 1.0
C      1  0.5367030000000  0.5128250000000  0.4325370000000 1.0
C      1  0.4643110000000  0.4797490000000  0.5686700000000 1.0
C      1  0.4648670000000  0.5198480000000  0.4314170000000 1.0
C      1  0.4488770000000  0.4499280000000  0.5221700000000 1.0
C      1  0.4495070000000  0.5500920000000  0.4778440000000 1.0
C      1  0.5533670000000  0.4529930000000  0.5191760000000 1.0
C      1  0.5532440000000  0.5474330000000  0.4815690000000 1.0
C      1  0.5644690000000  0.4956210000000  0.5547200000000 1.0
C      1  0.5652880000000  0.5055650000000  0.4460040000000 1.0
C      1  0.4425850000000  0.4884380000000  0.5539690000000 1.0
C      1  0.4431880000000  0.5112520000000  0.4462350000000 1.0
C      1  0.5334670000000  0.5367550000000  0.5032520000000 1.0
C      1  0.5338400000000  0.4628250000000  0.4965680000000 1.0
C      1  0.4670000000000  0.5385150000000  0.5014720000000 1.0
C      1  0.4661060000000  0.4619740000000  0.4988340000000 1.0
C      1  0.5102690000000  0.4813170000000  0.4794980000000 1.0
C      1  0.5103930000000  0.5184970000000  0.5202990000000 1.0
C      1  0.4820590000000  0.4869120000000  0.4851170000000 1.0
C      1  0.4820730000000  0.5130540000000  0.5147370000000 1.0
END
