TITL C-1154804-8633-457 0.00123881934378748 125000 -310.037132918079 0 0 60 (C1) n - 1
REM
REM in /home/nfs/bkarasulu/CARBON/AIRSS/Generating-Clusters/AIREBO/Higher-Symm/Only-C60
REM
REM
REM
REM
REM
REM ./C.cell (28575a23ae977d3b5fae324c64b13b57)
REM
REM compiler GCC version 9.2.1 20190827 (Red Hat 9.2.1-1)
REM options -cpp -mtune=generic -march=x86-64 -g -O0 -fpre-include=/usr/include/finclude/math-vector-fortran.h
REM seed -1397803181 -1980120127 -829136296 1649850675 857447114 1040276406 1207847887 -1266632630 2090442410 -399576140 745126322 5159355 -986076794 -1105023827 1730735104 1284957528 1187552123 -1629794916 -896971932 -30786898 950369267 -266423601 -1629378509 -1048791256 -452711500 -1102442927 1011260597 -1001455696 -1809812768 -785571837 1356166863 1823854758 245957857
REM
CELL 1.54180   50.00000   50.00000   50.00000   90.00000   90.00000   90.00000
LATT -1
SFAC C  
C      1  0.5661810000000  0.5268060000000  0.5272270000000 1.0
C      1  0.5728690000000  0.5063640000000  0.4640260000000 1.0
C      1  0.5725680000000  0.4696440000000  0.5102030000000 1.0
C      1  0.5289240000000  0.5515320000000  0.5422440000000 1.0
C      1  0.5242650000000  0.5105130000000  0.4408970000000 1.0
C      1  0.5166050000000  0.4382670000000  0.5199800000000 1.0
C      1  0.4339330000000  0.5445880000000  0.5193540000000 1.0
C      1  0.4404880000000  0.4992120000000  0.4604750000000 1.0
C      1  0.4372340000000  0.4471070000000  0.5275900000000 1.0
C      1  0.5114710000000  0.5155600000000  0.4926600000000 1.0
C      1  0.5096630000000  0.4817710000000  0.4909000000000 1.0
C      1  0.5088360000000  0.4949170000000  0.5194910000000 1.0
C      1  0.4935900000000  0.5754980000000  0.5146170000000 1.0
C      1  0.4909130000000  0.4731640000000  0.4311530000000 1.0
C      1  0.4934250000000  0.4523210000000  0.5648170000000 1.0
C      1  0.5147730000000  0.5498390000000  0.4660570000000 1.0
C      1  0.5152630000000  0.4477340000000  0.4706680000000 1.0
C      1  0.5182340000000  0.5025890000000  0.5624850000000 1.0
C      1  0.5050670000000  0.5456780000000  0.5045530000000 1.0
C      1  0.5006630000000  0.4855680000000  0.4612730000000 1.0
C      1  0.5074450000000  0.4712510000000  0.5406370000000 1.0
C      1  0.5672620000000  0.4720440000000  0.5348470000000 1.0
C      1  0.5591530000000  0.5491180000000  0.5162310000000 1.0
C      1  0.5621940000000  0.4885660000000  0.4495140000000 1.0
C      1  0.5260910000000  0.5225860000000  0.5291310000000 1.0
C      1  0.5338420000000  0.5132320000000  0.4694570000000 1.0
C      1  0.5303700000000  0.4622240000000  0.5093060000000 1.0
C      1  0.4327920000000  0.4710560000000  0.5410620000000 1.0
C      1  0.4381540000000  0.5446720000000  0.4911410000000 1.0
C      1  0.4248260000000  0.4718970000000  0.4581530000000 1.0
C      1  0.5579570000000  0.5202480000000  0.4887520000000 1.0
C      1  0.5492450000000  0.4788380000000  0.4889450000000 1.0
C      1  0.5480110000000  0.5008490000000  0.5148650000000 1.0
C      1  0.4754340000000  0.4801620000000  0.5634460000000 1.0
C      1  0.4777150000000  0.5833360000000  0.4887890000000 1.0
C      1  0.4737180000000  0.4529770000000  0.4498530000000 1.0
C      1  0.4703030000000  0.4933440000000  0.4187010000000 1.0
C      1  0.4751070000000  0.4294860000000  0.5506390000000 1.0
C      1  0.4716890000000  0.5695630000000  0.5369570000000 1.0
C      1  0.4591580000000  0.5454000000000  0.5325040000000 1.0
C      1  0.4580990000000  0.5081980000000  0.4382520000000 1.0
C      1  0.4646920000000  0.4401990000000  0.5273870000000 1.0
C      1  0.4850520000000  0.4630840000000  0.5163480000000 1.0
C      1  0.4818090000000  0.5247020000000  0.5178500000000 1.0
C      1  0.4783620000000  0.5109100000000  0.4654210000000 1.0
C      1  0.4609140000000  0.5640170000000  0.4803850000000 1.0
C      1  0.4539310000000  0.4623110000000  0.4659740000000 1.0
C      1  0.4568280000000  0.4858020000000  0.5439480000000 1.0
C      1  0.5328130000000  0.4746090000000  0.4594200000000 1.0
C      1  0.5389910000000  0.4839570000000  0.5429820000000 1.0
C      1  0.5363210000000  0.5467320000000  0.4911430000000 1.0
C      1  0.4996900000000  0.4431490000000  0.4929470000000 1.0
C      1  0.4976530000000  0.5204510000000  0.5476490000000 1.0
C      1  0.5027230000000  0.5299230000000  0.4512350000000 1.0
C      1  0.5222740000000  0.4829890000000  0.4281320000000 1.0
C      1  0.5146600000000  0.4325590000000  0.5471870000000 1.0
C      1  0.5206400000000  0.5726020000000  0.5314460000000 1.0
C      1  0.4690680000000  0.5323000000000  0.4872390000000 1.0
C      1  0.4610220000000  0.4888320000000  0.4855090000000 1.0
C      1  0.4690270000000  0.4931510000000  0.5159480000000 1.0
END
