TITL C-1154823-9327-455 -0.00140670851583787 125000 -349.779516176902 0 0 60 (C1) n - 1
REM
REM in /home/nfs/bkarasulu/CARBON/AIRSS/Generating-Clusters/AIREBO/Higher-Symm/Only-C60
REM
REM
REM
REM
REM
REM ./C.cell (28575a23ae977d3b5fae324c64b13b57)
REM
REM compiler GCC version 9.2.1 20190827 (Red Hat 9.2.1-1)
REM options -cpp -mtune=generic -march=x86-64 -g -O0 -fpre-include=/usr/include/finclude/math-vector-fortran.h
REM seed 2098911174 907747923 -1256315322 1143443916 -80470121 -856150407 -1094494723 -1291418578 80740040 -1184696710 1242539703 -680088138 -1709066766 588657563 764261998 1407889053 2006015541 386353726 2052991489 -407494476 -1409293433 -651394625 -892053158 511339567 1282212580 751840196 -406158261 -222307661 -1640918667 -1600923292 982484185 910103393 -19006157
REM
CELL 1.54180   50.00000   50.00000   50.00000   90.00000   90.00000   90.00000
LATT -1
SFAC C  
C      1  0.5130020000000  0.5410740000000  0.5651420000000 1.0
C      1  0.5157160000000  0.4555090000000  0.5564490000000 1.0
C      1  0.5076300000000  0.4404910000000  0.4750120000000 1.0
C      1  0.5155050000000  0.5043310000000  0.4283850000000 1.0
C      1  0.5157020000000  0.5652410000000  0.4823010000000 1.0
C      1  0.4825020000000  0.5434260000000  0.4430010000000 1.0
C      1  0.4861540000000  0.5619800000000  0.5221630000000 1.0
C      1  0.4872250000000  0.4985590000000  0.5528040000000 1.0
C      1  0.4817420000000  0.4287440000000  0.5291950000000 1.0
C      1  0.4849290000000  0.4685600000000  0.4532680000000 1.0
C      1  0.5411630000000  0.5209610000000  0.4399770000000 1.0
C      1  0.5437300000000  0.5635440000000  0.4989860000000 1.0
C      1  0.5405910000000  0.5237150000000  0.5586840000000 1.0
C      1  0.5392220000000  0.4481790000000  0.5360450000000 1.0
C      1  0.5383880000000  0.4479840000000  0.4659100000000 1.0
C      1  0.4314170000000  0.4548580000000  0.4991690000000 1.0
C      1  0.4291860000000  0.4825480000000  0.4580700000000 1.0
C      1  0.4298350000000  0.5343620000000  0.4752280000000 1.0
C      1  0.4291700000000  0.5362060000000  0.5283120000000 1.0
C      1  0.4341940000000  0.4888630000000  0.5401750000000 1.0
C      1  0.5219080000000  0.4738950000000  0.4215540000000 1.0
C      1  0.5081340000000  0.5652970000000  0.4499690000000 1.0
C      1  0.5089390000000  0.5683590000000  0.5466620000000 1.0
C      1  0.5191070000000  0.4782570000000  0.5782190000000 1.0
C      1  0.5008660000000  0.4235440000000  0.5022580000000 1.0
C      1  0.5139250000000  0.5381930000000  0.4311400000000 1.0
C      1  0.5162350000000  0.5738820000000  0.5144950000000 1.0
C      1  0.5134700000000  0.5075140000000  0.5672490000000 1.0
C      1  0.5143010000000  0.4275690000000  0.5332730000000 1.0
C      1  0.5135810000000  0.4552740000000  0.4452520000000 1.0
C      1  0.4778710000000  0.4274160000000  0.4773350000000 1.0
C      1  0.4869400000000  0.4960850000000  0.4384050000000 1.0
C      1  0.4845440000000  0.5580290000000  0.4737780000000 1.0
C      1  0.4820350000000  0.5476010000000  0.5529610000000 1.0
C      1  0.4870270000000  0.4677300000000  0.5545980000000 1.0
C      1  0.5728500000000  0.4802540000000  0.4864910000000 1.0
C      1  0.5742400000000  0.5073720000000  0.4770750000000 1.0
C      1  0.5759290000000  0.5245730000000  0.5000420000000 1.0
C      1  0.5745920000000  0.5082310000000  0.5236370000000 1.0
C      1  0.5731380000000  0.4807660000000  0.5152580000000 1.0
C      1  0.4659720000000  0.5220020000000  0.5549480000000 1.0
C      1  0.4694280000000  0.4511640000000  0.5401900000000 1.0
C      1  0.4626520000000  0.4478840000000  0.4633760000000 1.0
C      1  0.4692810000000  0.5165910000000  0.4420790000000 1.0
C      1  0.4678530000000  0.5616370000000  0.4988110000000 1.0
C      1  0.4669970000000  0.5052710000000  0.4801570000000 1.0
C      1  0.4682660000000  0.5201120000000  0.5034000000000 1.0
C      1  0.4798130000000  0.5029280000000  0.5227540000000 1.0
C      1  0.4752160000000  0.4771810000000  0.5104690000000 1.0
C      1  0.4784050000000  0.4795090000000  0.4820220000000 1.0
C      1  0.4384930000000  0.4593370000000  0.4719450000000 1.0
C      1  0.4436880000000  0.5103590000000  0.4594610000000 1.0
C      1  0.4448220000000  0.5414890000000  0.5022620000000 1.0
C      1  0.4406840000000  0.5162130000000  0.5448730000000 1.0
C      1  0.4478400000000  0.4660990000000  0.5230300000000 1.0
C      1  0.5627770000000  0.5160400000000  0.4533100000000 1.0
C      1  0.5660560000000  0.5504820000000  0.4993800000000 1.0
C      1  0.5629250000000  0.5180280000000  0.5468800000000 1.0
C      1  0.5615600000000  0.4597250000000  0.5291750000000 1.0
C      1  0.5606380000000  0.4589770000000  0.4735490000000 1.0
END
