TITL C-1154829-9094-265 0.00183749720874782 125000 -326.338120855025 0 0 60 (C1) n - 1
REM
REM in /home/nfs/bkarasulu/CARBON/AIRSS/Generating-Clusters/AIREBO/Higher-Symm/Only-C60
REM
REM
REM
REM
REM
REM ./C.cell (28575a23ae977d3b5fae324c64b13b57)
REM
REM compiler GCC version 9.2.1 20190827 (Red Hat 9.2.1-1)
REM options -cpp -mtune=generic -march=x86-64 -g -O0 -fpre-include=/usr/include/finclude/math-vector-fortran.h
REM seed 624360138 -457554381 -282492305 324120381 357605602 1013615351 135430499 -1907563719 -1125494463 -1619878371 -742767052 1912557931 -1651900200 -1458163543 -1766649121 -1141832626 -330909373 -280885075 1441014249 1652919959 -1725686790 1171122275 1647374110 -1446000677 -463946458 1394467941 -624675517 -1646847167 1983430324 -1103242079 -103543499 736523998 548131842
REM
CELL 1.54180   50.00000   50.00000   50.00000   90.00000   90.00000   90.00000
LATT -1
SFAC C  
C      1  0.4451290000000  0.4536430000000  0.4900560000000 1.0
C      1  0.4406540000000  0.4520260000000  0.5144390000000 1.0
C      1  0.4930830000000  0.5183000000000  0.4368910000000 1.0
C      1  0.4965840000000  0.5058830000000  0.5634130000000 1.0
C      1  0.4478980000000  0.4958800000000  0.5390690000000 1.0
C      1  0.4445510000000  0.4966840000000  0.4539790000000 1.0
C      1  0.4849640000000  0.4836920000000  0.5324640000000 1.0
C      1  0.4903460000000  0.4956780000000  0.4695450000000 1.0
C      1  0.5072380000000  0.4887010000000  0.4408320000000 1.0
C      1  0.4994140000000  0.4750870000000  0.5620640000000 1.0
C      1  0.5370810000000  0.4762370000000  0.4458440000000 1.0
C      1  0.5286160000000  0.4691260000000  0.5543410000000 1.0
C      1  0.4540780000000  0.5491990000000  0.4544240000000 1.0
C      1  0.4570890000000  0.5478230000000  0.5450420000000 1.0
C      1  0.4887220000000  0.4638060000000  0.4333490000000 1.0
C      1  0.4851400000000  0.4488730000000  0.5754210000000 1.0
C      1  0.4867370000000  0.5233180000000  0.4836950000000 1.0
C      1  0.4883700000000  0.5129910000000  0.5160520000000 1.0
C      1  0.4680100000000  0.5163610000000  0.5518910000000 1.0
C      1  0.4600170000000  0.5182800000000  0.4426630000000 1.0
C      1  0.5687190000000  0.4713550000000  0.5167320000000 1.0
C      1  0.5720140000000  0.4704880000000  0.4889330000000 1.0
C      1  0.5273160000000  0.4827040000000  0.4767450000000 1.0
C      1  0.5321820000000  0.4850330000000  0.5248940000000 1.0
C      1  0.5686990000000  0.5191170000000  0.4863260000000 1.0
C      1  0.5623910000000  0.5208060000000  0.5136270000000 1.0
C      1  0.5081180000000  0.5498100000000  0.5317080000000 1.0
C      1  0.5288360000000  0.5563460000000  0.4580110000000 1.0
C      1  0.5480140000000  0.5309420000000  0.4674920000000 1.0
C      1  0.5403440000000  0.5434010000000  0.5231480000000 1.0
C      1  0.5167510000000  0.5246710000000  0.4554360000000 1.0
C      1  0.5195190000000  0.5172940000000  0.5516960000000 1.0
C      1  0.5059240000000  0.4683570000000  0.5148140000000 1.0
C      1  0.5013950000000  0.4683470000000  0.4857880000000 1.0
C      1  0.5036820000000  0.5526410000000  0.4806670000000 1.0
C      1  0.4921710000000  0.5539280000000  0.5088520000000 1.0
C      1  0.4440470000000  0.4989520000000  0.4883380000000 1.0
C      1  0.4314750000000  0.5026910000000  0.5165900000000 1.0
C      1  0.4140920000000  0.5253080000000  0.5141590000000 1.0
C      1  0.4240240000000  0.5431500000000  0.4949130000000 1.0
C      1  0.5005200000000  0.4408240000000  0.5295800000000 1.0
C      1  0.4998780000000  0.4383780000000  0.4725580000000 1.0
C      1  0.5454070000000  0.4539740000000  0.5289450000000 1.0
C      1  0.5487830000000  0.4584050000000  0.4726390000000 1.0
C      1  0.5440830000000  0.5710080000000  0.5077970000000 1.0
C      1  0.5290600000000  0.5744390000000  0.4850200000000 1.0
C      1  0.4570700000000  0.4650010000000  0.5366910000000 1.0
C      1  0.4632040000000  0.4754680000000  0.4729000000000 1.0
C      1  0.4791310000000  0.4441240000000  0.5470380000000 1.0
C      1  0.4789380000000  0.4521090000000  0.4565690000000 1.0
C      1  0.4891290000000  0.5431600000000  0.5515300000000 1.0
C      1  0.4743250000000  0.5451700000000  0.4277180000000 1.0
C      1  0.5222570000000  0.5150910000000  0.5178680000000 1.0
C      1  0.5276670000000  0.5111550000000  0.4849130000000 1.0
C      1  0.4659300000000  0.5384800000000  0.5142560000000 1.0
C      1  0.4536550000000  0.5311840000000  0.4832930000000 1.0
C      1  0.5270280000000  0.4376730000000  0.4859180000000 1.0
C      1  0.5269960000000  0.4344660000000  0.5138560000000 1.0
C      1  0.5713580000000  0.4977870000000  0.5279950000000 1.0
C      1  0.5821450000000  0.4951750000000  0.4785750000000 1.0
END
