TITL C-1154810-7815-31 0.000103709523888792 125000 -339.101463585093 0 0 60 (C1) n - 1
REM
REM in /home/nfs/bkarasulu/CARBON/AIRSS/Generating-Clusters/AIREBO/Higher-Symm/Only-C60
REM
REM
REM
REM
REM
REM ./C.cell (28575a23ae977d3b5fae324c64b13b57)
REM
REM compiler GCC version 9.2.1 20190827 (Red Hat 9.2.1-1)
REM options -cpp -mtune=generic -march=x86-64 -g -O0 -fpre-include=/usr/include/finclude/math-vector-fortran.h
REM seed 698685725 520983432 -1512800836 -543729684 -17618154 343006723 -1820434323 1570190163 1551343301 920537837 1834022334 930003850 1538486489 1781880027 116996035 -1530766852 1649734623 -794006783 1799378761 1461184077 857292226 1417359583 755836574 -2132227035 496135612 1793071984 1474798712 1485565999 -547867707 -780069645 254811788 -389802159 1213735815
REM
CELL 1.54180   50.00000   50.00000   50.00000   90.00000   90.00000   90.00000
LATT -1
SFAC C  
C      1  0.5488650000000  0.5483620000000  0.4534980000000 1.0
C      1  0.4399260000000  0.5439260000000  0.5379980000000 1.0
C      1  0.5611070000000  0.5432050000000  0.5371610000000 1.0
C      1  0.4523090000000  0.5472020000000  0.4577110000000 1.0
C      1  0.4840550000000  0.4847930000000  0.5640520000000 1.0
C      1  0.5133860000000  0.4793400000000  0.4329490000000 1.0
C      1  0.4839730000000  0.4812330000000  0.4353250000000 1.0
C      1  0.5138570000000  0.4837620000000  0.5665600000000 1.0
C      1  0.4841920000000  0.5420740000000  0.4469970000000 1.0
C      1  0.5369160000000  0.5344280000000  0.5496560000000 1.0
C      1  0.4646090000000  0.5388720000000  0.5520510000000 1.0
C      1  0.5203460000000  0.5354280000000  0.4451050000000 1.0
C      1  0.5252640000000  0.5083270000000  0.5586540000000 1.0
C      1  0.4761560000000  0.5103520000000  0.4433440000000 1.0
C      1  0.5240150000000  0.5045130000000  0.4397160000000 1.0
C      1  0.4726480000000  0.5116430000000  0.5548460000000 1.0
C      1  0.4393670000000  0.4307050000000  0.5129320000000 1.0
C      1  0.5582430000000  0.4333970000000  0.4889960000000 1.0
C      1  0.4380320000000  0.4309130000000  0.4872690000000 1.0
C      1  0.5588010000000  0.4354670000000  0.5143590000000 1.0
C      1  0.5212670000000  0.5663010000000  0.4914700000000 1.0
C      1  0.4774960000000  0.5765180000000  0.5245260000000 1.0
C      1  0.5190280000000  0.5673840000000  0.5169370000000 1.0
C      1  0.4826200000000  0.5753010000000  0.4973960000000 1.0
C      1  0.5244090000000  0.4775210000000  0.5152600000000 1.0
C      1  0.4757440000000  0.4712150000000  0.4857540000000 1.0
C      1  0.5251080000000  0.4752550000000  0.4847450000000 1.0
C      1  0.4733240000000  0.4728570000000  0.5149880000000 1.0
C      1  0.5114310000000  0.5396910000000  0.4757640000000 1.0
C      1  0.4850070000000  0.5560220000000  0.5430000000000 1.0
C      1  0.5122540000000  0.5457270000000  0.5367530000000 1.0
C      1  0.4850570000000  0.5590140000000  0.4764940000000 1.0
C      1  0.4556720000000  0.5045490000000  0.4771930000000 1.0
C      1  0.5465970000000  0.5122740000000  0.5166370000000 1.0
C      1  0.4527480000000  0.5066310000000  0.5095900000000 1.0
C      1  0.5507320000000  0.5102470000000  0.4838610000000 1.0
C      1  0.5658960000000  0.5386020000000  0.5071170000000 1.0
C      1  0.4458260000000  0.5336460000000  0.4809850000000 1.0
C      1  0.5618850000000  0.5386010000000  0.4756670000000 1.0
C      1  0.4392550000000  0.5354440000000  0.5111470000000 1.0
C      1  0.5660920000000  0.4823950000000  0.4820850000000 1.0
C      1  0.4341350000000  0.4807590000000  0.5148050000000 1.0
C      1  0.5632740000000  0.4859470000000  0.5129140000000 1.0
C      1  0.4370040000000  0.4804980000000  0.4838900000000 1.0
C      1  0.5276230000000  0.4581590000000  0.4459680000000 1.0
C      1  0.4702980000000  0.4623170000000  0.5534090000000 1.0
C      1  0.5280480000000  0.4620780000000  0.5545100000000 1.0
C      1  0.4696370000000  0.4599340000000  0.4478750000000 1.0
C      1  0.4866060000000  0.4975840000000  0.4716890000000 1.0
C      1  0.5152850000000  0.5098500000000  0.5267570000000 1.0
C      1  0.4820760000000  0.5019220000000  0.5255640000000 1.0
C      1  0.5193820000000  0.5065670000000  0.4727740000000 1.0
C      1  0.4861940000000  0.4479580000000  0.5309790000000 1.0
C      1  0.5127570000000  0.4468660000000  0.4706830000000 1.0
C      1  0.4853110000000  0.4458770000000  0.4710110000000 1.0
C      1  0.5132600000000  0.4499310000000  0.5305520000000 1.0
C      1  0.5508920000000  0.4578330000000  0.4710330000000 1.0
C      1  0.4472210000000  0.4561910000000  0.5290250000000 1.0
C      1  0.5511440000000  0.4618520000000  0.5292670000000 1.0
C      1  0.4463390000000  0.4547420000000  0.4707450000000 1.0
END
