TITL C-1154816-9297-210 7.09721480911193e-05 125000 -328.648047605645 0 0 60 (C1) n - 1
REM
REM in /home/nfs/bkarasulu/CARBON/AIRSS/Generating-Clusters/AIREBO/Higher-Symm/Only-C60
REM
REM
REM
REM
REM
REM ./C.cell (28575a23ae977d3b5fae324c64b13b57)
REM
REM compiler GCC version 9.2.1 20190827 (Red Hat 9.2.1-1)
REM options -cpp -mtune=generic -march=x86-64 -g -O0 -fpre-include=/usr/include/finclude/math-vector-fortran.h
REM seed 642922495 1861003059 1443618402 56116247 1178442945 888541615 639137199 -152145229 497225248 1970387299 -1294719865 -651650652 980720814 1084055373 1519441114 1894303717 101583513 686438334 -528426917 1604342059 -563102783 1239219186 -778181376 -1032481519 1510391671 1513689182 1418842893 126407130 -1629788562 453541201 -1256810031 -1359988980 1057128424
REM
CELL 1.54180   50.00000   50.00000   50.00000   90.00000   90.00000   90.00000
LATT -1
SFAC C  
C      1  0.4354450000000  0.4648650000000  0.4688560000000 1.0
C      1  0.5039090000000  0.4377530000000  0.4796910000000 1.0
C      1  0.5660550000000  0.4909980000000  0.4707760000000 1.0
C      1  0.5228760000000  0.5497390000000  0.4815290000000 1.0
C      1  0.4550840000000  0.5838350000000  0.4716810000000 1.0
C      1  0.5665230000000  0.4629100000000  0.5352010000000 1.0
C      1  0.4978280000000  0.4350710000000  0.5195380000000 1.0
C      1  0.4406000000000  0.4949400000000  0.5331580000000 1.0
C      1  0.4734990000000  0.5577650000000  0.5149360000000 1.0
C      1  0.5450190000000  0.5820120000000  0.5196960000000 1.0
C      1  0.4712900000000  0.4573450000000  0.5518320000000 1.0
C      1  0.5293760000000  0.4533270000000  0.5690020000000 1.0
C      1  0.5489630000000  0.5106510000000  0.5584870000000 1.0
C      1  0.5019350000000  0.5453720000000  0.5617320000000 1.0
C      1  0.4556060000000  0.5108800000000  0.5561370000000 1.0
C      1  0.5299170000000  0.4600970000000  0.4496270000000 1.0
C      1  0.4709220000000  0.4558010000000  0.4326770000000 1.0
C      1  0.4497060000000  0.5124790000000  0.4409910000000 1.0
C      1  0.4978790000000  0.5499310000000  0.4322630000000 1.0
C      1  0.5423100000000  0.5185400000000  0.4416520000000 1.0
C      1  0.5316320000000  0.4570820000000  0.4834800000000 1.0
C      1  0.5418150000000  0.5112830000000  0.4721230000000 1.0
C      1  0.4969520000000  0.5556760000000  0.4630450000000 1.0
C      1  0.4419660000000  0.5139050000000  0.4741520000000 1.0
C      1  0.4643820000000  0.4582990000000  0.4623850000000 1.0
C      1  0.4714950000000  0.4565320000000  0.5178210000000 1.0
C      1  0.4560230000000  0.5234060000000  0.5244480000000 1.0
C      1  0.5019870000000  0.5532260000000  0.5296360000000 1.0
C      1  0.5563910000000  0.5102840000000  0.5252100000000 1.0
C      1  0.5374500000000  0.4552540000000  0.5393030000000 1.0
C      1  0.4827290000000  0.5073780000000  0.5269540000000 1.0
C      1  0.4901580000000  0.4810600000000  0.5257590000000 1.0
C      1  0.5176800000000  0.4786600000000  0.5289360000000 1.0
C      1  0.5260860000000  0.5052670000000  0.5266210000000 1.0
C      1  0.5054510000000  0.5224140000000  0.5292420000000 1.0
C      1  0.5076010000000  0.5141400000000  0.4902760000000 1.0
C      1  0.5180370000000  0.4872680000000  0.4761710000000 1.0
C      1  0.4845910000000  0.4822610000000  0.4726050000000 1.0
C      1  0.4722330000000  0.5071330000000  0.4730260000000 1.0
C      1  0.4900020000000  0.5281260000000  0.4746240000000 1.0
C      1  0.5682640000000  0.4818720000000  0.5157870000000 1.0
C      1  0.5284940000000  0.5577920000000  0.5129200000000 1.0
C      1  0.4543220000000  0.5373130000000  0.4955970000000 1.0
C      1  0.4435040000000  0.4756490000000  0.5135990000000 1.0
C      1  0.5246370000000  0.4426310000000  0.5134820000000 1.0
C      1  0.4345380000000  0.4845160000000  0.4878530000000 1.0
C      1  0.4678640000000  0.5613620000000  0.4761970000000 1.0
C      1  0.5435730000000  0.5299430000000  0.5005080000000 1.0
C      1  0.5616670000000  0.4720030000000  0.4900120000000 1.0
C      1  0.4780330000000  0.4453560000000  0.4863640000000 1.0
C      1  0.4846840000000  0.4751580000000  0.5717670000000 1.0
C      1  0.5138290000000  0.4752130000000  0.5777320000000 1.0
C      1  0.5252560000000  0.5030480000000  0.5756100000000 1.0
C      1  0.5009910000000  0.5204810000000  0.5754280000000 1.0
C      1  0.4765590000000  0.5035880000000  0.5729720000000 1.0
C      1  0.5156050000000  0.4782800000000  0.4301000000000 1.0
C      1  0.4861900000000  0.4776560000000  0.4236710000000 1.0
C      1  0.4738800000000  0.5051300000000  0.4251250000000 1.0
C      1  0.4972160000000  0.5228600000000  0.4235490000000 1.0
C      1  0.5214900000000  0.5071850000000  0.4264480000000 1.0
END
