TITL C-1154830-9999-626 -0.000313100545018151 125000 -339.006546961248 0 0 60 (C1) n - 1
REM
REM in /home/nfs/bkarasulu/CARBON/AIRSS/Generating-Clusters/AIREBO/Higher-Symm/Only-C60
REM
REM
REM
REM
REM
REM ./C.cell (28575a23ae977d3b5fae324c64b13b57)
REM
REM compiler GCC version 9.2.1 20190827 (Red Hat 9.2.1-1)
REM options -cpp -mtune=generic -march=x86-64 -g -O0 -fpre-include=/usr/include/finclude/math-vector-fortran.h
REM seed -1658030914 2122015306 369872243 -1499083883 -1289315622 -1019288447 1142264462 -2094213548 122660915 23797555 -391820520 268086015 -1945348581 -173550025 -1382469508 -307484346 -549812992 1960556306 -1755325871 -1665111859 513425467 -238364117 834658331 -359604208 833607729 1359873274 -616657664 -516916492 1936762161 -411818296 -460151164 1106738465 -1495991774
REM
CELL 1.54180   50.00000   50.00000   50.00000   90.00000   90.00000   90.00000
LATT -1
SFAC C  
C      1  0.5261150000000  0.5216350000000  0.5521960000000 1.0
C      1  0.5081110000000  0.5456700000000  0.5112880000000 1.0
C      1  0.5501480000000  0.5185030000000  0.5082520000000 1.0
C      1  0.5195220000000  0.5024700000000  0.4652690000000 1.0
C      1  0.4828880000000  0.5039600000000  0.4497370000000 1.0
C      1  0.4602080000000  0.4828550000000  0.5592370000000 1.0
C      1  0.4994350000000  0.4550660000000  0.4813870000000 1.0
C      1  0.4874680000000  0.5518710000000  0.4649790000000 1.0
C      1  0.4930200000000  0.4514900000000  0.5353040000000 1.0
C      1  0.5540680000000  0.4696570000000  0.4882430000000 1.0
C      1  0.4534780000000  0.5362720000000  0.4786130000000 1.0
C      1  0.4462200000000  0.4565190000000  0.5137950000000 1.0
C      1  0.5339240000000  0.5437110000000  0.4993380000000 1.0
C      1  0.5089530000000  0.5445510000000  0.5425800000000 1.0
C      1  0.5413390000000  0.5074270000000  0.5349130000000 1.0
C      1  0.5275100000000  0.4484030000000  0.4878260000000 1.0
C      1  0.4793290000000  0.4503110000000  0.5086250000000 1.0
C      1  0.4811860000000  0.5472500000000  0.4950090000000 1.0
C      1  0.4998650000000  0.4758870000000  0.4573330000000 1.0
C      1  0.4833880000000  0.4638020000000  0.5578230000000 1.0
C      1  0.5013650000000  0.5286060000000  0.4530220000000 1.0
C      1  0.5458450000000  0.4987430000000  0.4837070000000 1.0
C      1  0.4432270000000  0.4802300000000  0.5308460000000 1.0
C      1  0.4525690000000  0.5156070000000  0.4564420000000 1.0
C      1  0.4804000000000  0.5400330000000  0.5520050000000 1.0
C      1  0.5490080000000  0.5559570000000  0.4778960000000 1.0
C      1  0.5526850000000  0.4830650000000  0.5419190000000 1.0
C      1  0.4718460000000  0.4547130000000  0.4350020000000 1.0
C      1  0.5270850000000  0.5379860000000  0.4393980000000 1.0
C      1  0.5319180000000  0.4455460000000  0.5628830000000 1.0
C      1  0.5363850000000  0.4463910000000  0.5155130000000 1.0
C      1  0.4560300000000  0.5525610000000  0.5148750000000 1.0
C      1  0.4622420000000  0.4412040000000  0.4808470000000 1.0
C      1  0.5618950000000  0.5140430000000  0.4608740000000 1.0
C      1  0.4427180000000  0.4839330000000  0.4639450000000 1.0
C      1  0.4472590000000  0.5089200000000  0.5319650000000 1.0
C      1  0.4641260000000  0.5604940000000  0.5407730000000 1.0
C      1  0.5470210000000  0.4688710000000  0.5659300000000 1.0
C      1  0.5716790000000  0.5390180000000  0.4710100000000 1.0
C      1  0.4803840000000  0.4402680000000  0.4574230000000 1.0
C      1  0.5191650000000  0.4419630000000  0.5374940000000 1.0
C      1  0.5363010000000  0.5616410000000  0.4526630000000 1.0
C      1  0.5450790000000  0.5155330000000  0.4375320000000 1.0
C      1  0.4686440000000  0.5151420000000  0.5524080000000 1.0
C      1  0.4621470000000  0.4803990000000  0.4406140000000 1.0
C      1  0.5578350000000  0.4659930000000  0.5205510000000 1.0
C      1  0.4417360000000  0.4639460000000  0.4818570000000 1.0
C      1  0.4382910000000  0.5305570000000  0.5165370000000 1.0
C      1  0.4313910000000  0.5503670000000  0.4825230000000 1.0
C      1  0.4971180000000  0.4599540000000  0.5814970000000 1.0
C      1  0.5758790000000  0.4611110000000  0.4727250000000 1.0
C      1  0.4821170000000  0.5741550000000  0.4525270000000 1.0
C      1  0.5190670000000  0.5692650000000  0.5527250000000 1.0
C      1  0.4441400000000  0.4798270000000  0.5821600000000 1.0
C      1  0.5265430000000  0.5165600000000  0.5792280000000 1.0
C      1  0.5295110000000  0.4895730000000  0.4343440000000 1.0
C      1  0.4314030000000  0.4341410000000  0.5222790000000 1.0
C      1  0.5779140000000  0.5255730000000  0.5102120000000 1.0
C      1  0.4393640000000  0.5254960000000  0.4333710000000 1.0
C      1  0.5144980000000  0.4653060000000  0.4287300000000 1.0
END
