TITL C-1154825-9328-445 -0.00339226536232271 125000 -328.705976289658 0 0 60 (C1) n - 1
REM
REM in /home/nfs/bkarasulu/CARBON/AIRSS/Generating-Clusters/AIREBO/Higher-Symm/Only-C60
REM
REM
REM
REM
REM
REM ./C.cell (28575a23ae977d3b5fae324c64b13b57)
REM
REM compiler GCC version 9.2.1 20190827 (Red Hat 9.2.1-1)
REM options -cpp -mtune=generic -march=x86-64 -g -O0 -fpre-include=/usr/include/finclude/math-vector-fortran.h
REM seed -1934052470 -1340508228 557129591 1141205611 1191905438 1682674191 808141795 1632620301 929423413 -1163604968 1737417766 79907207 1960476679 -393625968 786656301 -1040724219 -1400371611 -1232459788 334710161 -935021315 -787459412 302112085 595592731 -140152787 -2072776434 -1719984006 -808872048 -1971208799 1896618045 -1714921944 1719634306 -1227932453 629144822
REM
CELL 1.54180   50.00000   50.00000   50.00000   90.00000   90.00000   90.00000
LATT -1
SFAC C  
C      1  0.4828310000000  0.5151170000000  0.5301250000000 1.0
C      1  0.4605450000000  0.5084860000000  0.4799220000000 1.0
C      1  0.5109760000000  0.5239410000000  0.4630320000000 1.0
C      1  0.5319640000000  0.5127460000000  0.5104760000000 1.0
C      1  0.4842560000000  0.5113550000000  0.4611880000000 1.0
C      1  0.4641340000000  0.5218680000000  0.5089110000000 1.0
C      1  0.5126890000000  0.5148330000000  0.5343540000000 1.0
C      1  0.5321170000000  0.5141120000000  0.4799870000000 1.0
C      1  0.5554740000000  0.4573430000000  0.5305760000000 1.0
C      1  0.4793220000000  0.4640520000000  0.5586210000000 1.0
C      1  0.4417400000000  0.4494870000000  0.4713070000000 1.0
C      1  0.5275880000000  0.4466330000000  0.4411200000000 1.0
C      1  0.5537360000000  0.4696210000000  0.4834820000000 1.0
C      1  0.4840360000000  0.4599190000000  0.4373240000000 1.0
C      1  0.4382910000000  0.4617090000000  0.5194270000000 1.0
C      1  0.5188010000000  0.4611820000000  0.5616730000000 1.0
C      1  0.5503410000000  0.4869370000000  0.5190110000000 1.0
C      1  0.4890440000000  0.4827170000000  0.5319420000000 1.0
C      1  0.4573790000000  0.4768400000000  0.4807730000000 1.0
C      1  0.5160610000000  0.4760580000000  0.4524810000000 1.0
C      1  0.5377130000000  0.4874180000000  0.4685110000000 1.0
C      1  0.4844880000000  0.4805380000000  0.4643560000000 1.0
C      1  0.4608680000000  0.4863750000000  0.5132220000000 1.0
C      1  0.5229920000000  0.4843970000000  0.5371960000000 1.0
C      1  0.5118760000000  0.4445300000000  0.5363860000000 1.0
C      1  0.4640820000000  0.4449100000000  0.5127870000000 1.0
C      1  0.4893430000000  0.4410670000000  0.4651650000000 1.0
C      1  0.5372360000000  0.4459570000000  0.4901790000000 1.0
C      1  0.5184960000000  0.4384300000000  0.4694800000000 1.0
C      1  0.4674820000000  0.4384270000000  0.4841930000000 1.0
C      1  0.4826070000000  0.4433710000000  0.5338860000000 1.0
C      1  0.5342670000000  0.4415310000000  0.5187680000000 1.0
C      1  0.5794230000000  0.5141850000000  0.5217280000000 1.0
C      1  0.4790850000000  0.5139610000000  0.5776270000000 1.0
C      1  0.4226640000000  0.5165770000000  0.4895310000000 1.0
C      1  0.5180040000000  0.5172730000000  0.4242490000000 1.0
C      1  0.5799350000000  0.5186550000000  0.4820870000000 1.0
C      1  0.4783180000000  0.5183250000000  0.4224060000000 1.0
C      1  0.4216660000000  0.5240490000000  0.5285780000000 1.0
C      1  0.5186740000000  0.5149740000000  0.5805150000000 1.0
C      1  0.5220140000000  0.5320790000000  0.5588610000000 1.0
C      1  0.4422610000000  0.5405740000000  0.5206060000000 1.0
C      1  0.4784580000000  0.5379360000000  0.4446100000000 1.0
C      1  0.5570340000000  0.5331070000000  0.4778370000000 1.0
C      1  0.5177550000000  0.5437380000000  0.4402660000000 1.0
C      1  0.4425240000000  0.5365180000000  0.4792640000000 1.0
C      1  0.4769610000000  0.5313650000000  0.5564360000000 1.0
C      1  0.5572070000000  0.5297960000000  0.5221020000000 1.0
C      1  0.4665140000000  0.5609720000000  0.5161550000000 1.0
C      1  0.4834610000000  0.5590550000000  0.4641560000000 1.0
C      1  0.5357350000000  0.5544930000000  0.4873970000000 1.0
C      1  0.5164340000000  0.5544120000000  0.5376710000000 1.0
C      1  0.4628070000000  0.5576900000000  0.4854070000000 1.0
C      1  0.4867580000000  0.5543620000000  0.5364630000000 1.0
C      1  0.5360790000000  0.5520570000000  0.5165230000000 1.0
C      1  0.5152060000000  0.5630160000000  0.4681610000000 1.0
C      1  0.5002250000000  0.4884790000000  0.5698030000000 1.0
C      1  0.4971970000000  0.4906360000000  0.4282180000000 1.0
C      1  0.5770340000000  0.4891630000000  0.4988170000000 1.0
C      1  0.4277940000000  0.4942140000000  0.5146640000000 1.0
END
