TITL C-1154829-9094-451 0.00358618256206474 125000 -327.316713477483 0 0 60 (C1) n - 1
REM
REM in /home/nfs/bkarasulu/CARBON/AIRSS/Generating-Clusters/AIREBO/Higher-Symm/Only-C60
REM
REM
REM
REM
REM
REM ./C.cell (28575a23ae977d3b5fae324c64b13b57)
REM
REM compiler GCC version 9.2.1 20190827 (Red Hat 9.2.1-1)
REM options -cpp -mtune=generic -march=x86-64 -g -O0 -fpre-include=/usr/include/finclude/math-vector-fortran.h
REM seed 1984142738 259477556 465498996 -1754617578 -1953357250 -1821977938 1776805313 -930137773 758691478 1608986183 -1039999170 1570351089 1458966953 644662293 262611790 1417839863 2013260839 507498552 150483071 -1093878784 -877591343 60929874 1452368926 485261956 -1831962938 1354092584 1138108701 -1582315396 -207087741 -1352426784 -752844863 2053544765 -1669893851
REM
CELL 1.54180   50.00000   50.00000   50.00000   90.00000   90.00000   90.00000
LATT -1
SFAC C  
C      1  0.5543150000000  0.4811020000000  0.4984930000000 1.0
C      1  0.5482690000000  0.5008570000000  0.4743010000000 1.0
C      1  0.5686020000000  0.5231080000000  0.4801150000000 1.0
C      1  0.5712720000000  0.5235250000000  0.5088240000000 1.0
C      1  0.5665240000000  0.4968010000000  0.5194060000000 1.0
C      1  0.5336950000000  0.4931530000000  0.5698850000000 1.0
C      1  0.5117050000000  0.4445310000000  0.5343650000000 1.0
C      1  0.5047130000000  0.4886910000000  0.4569110000000 1.0
C      1  0.5476640000000  0.5521770000000  0.4472220000000 1.0
C      1  0.5267000000000  0.5472690000000  0.5207850000000 1.0
C      1  0.4129220000000  0.5446690000000  0.4830080000000 1.0
C      1  0.4109640000000  0.4809060000000  0.5179660000000 1.0
C      1  0.4091560000000  0.4851050000000  0.4503800000000 1.0
C      1  0.4073680000000  0.5116810000000  0.4416850000000 1.0
C      1  0.4227470000000  0.5309900000000  0.4561160000000 1.0
C      1  0.4993410000000  0.4180090000000  0.5858350000000 1.0
C      1  0.4800730000000  0.4470640000000  0.4578900000000 1.0
C      1  0.4994000000000  0.5513070000000  0.4527300000000 1.0
C      1  0.4928120000000  0.5776330000000  0.4950740000000 1.0
C      1  0.4985220000000  0.4736900000000  0.6008350000000 1.0
C      1  0.4706320000000  0.5940870000000  0.4989870000000 1.0
C      1  0.4780030000000  0.4711950000000  0.6186510000000 1.0
C      1  0.4923550000000  0.3957660000000  0.5986140000000 1.0
C      1  0.4652660000000  0.4284360000000  0.4437360000000 1.0
C      1  0.4754620000000  0.5436820000000  0.4431210000000 1.0
C      1  0.5168150000000  0.5172410000000  0.5186350000000 1.0
C      1  0.5177140000000  0.5010780000000  0.5409670000000 1.0
C      1  0.5290280000000  0.4703520000000  0.5375980000000 1.0
C      1  0.5179930000000  0.4738960000000  0.4835830000000 1.0
C      1  0.5211080000000  0.5046560000000  0.4944050000000 1.0
C      1  0.5227390000000  0.5922950000000  0.4564730000000 1.0
C      1  0.4770290000000  0.5200160000000  0.5148040000000 1.0
C      1  0.5582620000000  0.4610240000000  0.6016810000000 1.0
C      1  0.4831930000000  0.4414480000000  0.4893510000000 1.0
C      1  0.4750820000000  0.4783910000000  0.4179490000000 1.0
C      1  0.5125080000000  0.4961820000000  0.5941730000000 1.0
C      1  0.5059380000000  0.4323220000000  0.5587670000000 1.0
C      1  0.5299040000000  0.4373110000000  0.4490330000000 1.0
C      1  0.5235340000000  0.5365050000000  0.4485160000000 1.0
C      1  0.5177350000000  0.5797800000000  0.5181240000000 1.0
C      1  0.5030350000000  0.5753770000000  0.4672120000000 1.0
C      1  0.4940240000000  0.5492890000000  0.5115940000000 1.0
C      1  0.5110790000000  0.4488960000000  0.5875310000000 1.0
C      1  0.5117180000000  0.4500110000000  0.4627400000000 1.0
C      1  0.4777780000000  0.4773050000000  0.4485790000000 1.0
C      1  0.5330630000000  0.4582660000000  0.5075990000000 1.0
C      1  0.5245280000000  0.5094160000000  0.4549270000000 1.0
C      1  0.5708410000000  0.5410380000000  0.4589380000000 1.0
C      1  0.5577860000000  0.5449120000000  0.5219110000000 1.0
C      1  0.5554890000000  0.4896400000000  0.5440050000000 1.0
C      1  0.4553380000000  0.4909110000000  0.4623280000000 1.0
C      1  0.4504260000000  0.5192020000000  0.4676400000000 1.0
C      1  0.4308900000000  0.5207460000000  0.4937310000000 1.0
C      1  0.4224390000000  0.4925030000000  0.4968110000000 1.0
C      1  0.4290570000000  0.4803470000000  0.4705940000000 1.0
C      1  0.5373180000000  0.4657600000000  0.5868430000000 1.0
C      1  0.4960230000000  0.4372230000000  0.5098770000000 1.0
C      1  0.4708860000000  0.4781100000000  0.3927770000000 1.0
C      1  0.5441330000000  0.5800720000000  0.4437510000000 1.0
C      1  0.4670880000000  0.5430440000000  0.5316200000000 1.0
END
