TITL C-1154821-8623-440 -0.000114472686395796 125000 -305.789067754353 0 0 60 (C1) n - 1
REM
REM in /home/nfs/bkarasulu/CARBON/AIRSS/Generating-Clusters/AIREBO/Higher-Symm/Only-C60
REM
REM
REM
REM
REM
REM ./C.cell (28575a23ae977d3b5fae324c64b13b57)
REM
REM compiler GCC version 9.2.1 20190827 (Red Hat 9.2.1-1)
REM options -cpp -mtune=generic -march=x86-64 -g -O0 -fpre-include=/usr/include/finclude/math-vector-fortran.h
REM seed 1961341931 1566018766 -469923049 2018546438 1646210489 2030427185 -579191102 813115423 1521870356 -1089972166 -1608720364 -1038711406 -795476815 1158953420 1035012559 -422672493 -947133855 -417921485 -1571584360 941212454 408366186 -14315101 169947178 -1193724561 49297186 917221591 1750599341 -2054332065 -1747955799 -1230719664 -873993529 1128080192 -1279187854
REM
CELL 1.54180   50.00000   50.00000   50.00000   90.00000   90.00000   90.00000
LATT -1
SFAC C  
C      1  0.4337060000000  0.4563210000000  0.5270010000000 1.0
C      1  0.4584080000000  0.4473020000000  0.4701480000000 1.0
C      1  0.5009980000000  0.4445450000000  0.4307700000000 1.0
C      1  0.5502970000000  0.4495540000000  0.4509010000000 1.0
C      1  0.5534460000000  0.4501610000000  0.5040580000000 1.0
C      1  0.5276770000000  0.4493090000000  0.5475610000000 1.0
C      1  0.4701820000000  0.4600600000000  0.5642840000000 1.0
C      1  0.5337980000000  0.5451500000000  0.4962630000000 1.0
C      1  0.5307480000000  0.5605600000000  0.5246820000000 1.0
C      1  0.5026780000000  0.5601470000000  0.5389430000000 1.0
C      1  0.4710320000000  0.5605760000000  0.5255400000000 1.0
C      1  0.4619790000000  0.5464170000000  0.4968670000000 1.0
C      1  0.4833070000000  0.5508290000000  0.4711670000000 1.0
C      1  0.5137330000000  0.5524510000000  0.4698030000000 1.0
C      1  0.4792440000000  0.4467130000000  0.4456710000000 1.0
C      1  0.5267130000000  0.4633700000000  0.4362680000000 1.0
C      1  0.5626040000000  0.4569960000000  0.4738390000000 1.0
C      1  0.5481100000000  0.4400240000000  0.5300580000000 1.0
C      1  0.5038460000000  0.4568220000000  0.5677830000000 1.0
C      1  0.4433480000000  0.4677750000000  0.5551900000000 1.0
C      1  0.4450780000000  0.4615540000000  0.4962870000000 1.0
C      1  0.4307790000000  0.5373940000000  0.4887250000000 1.0
C      1  0.4705070000000  0.5537900000000  0.4406630000000 1.0
C      1  0.5297330000000  0.5525770000000  0.4398000000000 1.0
C      1  0.5645030000000  0.5479740000000  0.4809670000000 1.0
C      1  0.5571450000000  0.5547500000000  0.5455010000000 1.0
C      1  0.5028920000000  0.5480860000000  0.5710670000000 1.0
C      1  0.4443310000000  0.5572860000000  0.5459450000000 1.0
C      1  0.5404500000000  0.5244940000000  0.4295330000000 1.0
C      1  0.5786630000000  0.5206610000000  0.4833600000000 1.0
C      1  0.5554720000000  0.5238710000000  0.5538830000000 1.0
C      1  0.4923290000000  0.5158760000000  0.5709250000000 1.0
C      1  0.4364170000000  0.5311450000000  0.5415290000000 1.0
C      1  0.4237870000000  0.5118230000000  0.4768420000000 1.0
C      1  0.4747900000000  0.5314650000000  0.4242920000000 1.0
C      1  0.4387430000000  0.4815050000000  0.4722700000000 1.0
C      1  0.4869270000000  0.5083280000000  0.4387180000000 1.0
C      1  0.5337780000000  0.4958240000000  0.4325270000000 1.0
C      1  0.5642410000000  0.4899640000000  0.4795690000000 1.0
C      1  0.5364010000000  0.4995320000000  0.5412580000000 1.0
C      1  0.4955710000000  0.4897970000000  0.5674410000000 1.0
C      1  0.4400790000000  0.4978410000000  0.5392680000000 1.0
C      1  0.5298950000000  0.5288570000000  0.5335830000000 1.0
C      1  0.4790760000000  0.5382890000000  0.5499260000000 1.0
C      1  0.4530820000000  0.5205130000000  0.5170310000000 1.0
C      1  0.4549830000000  0.5096340000000  0.4731570000000 1.0
C      1  0.4758990000000  0.5209980000000  0.4628340000000 1.0
C      1  0.5281080000000  0.5228540000000  0.4611720000000 1.0
C      1  0.5494580000000  0.5149830000000  0.4972270000000 1.0
C      1  0.4997500000000  0.4809800000000  0.4472010000000 1.0
C      1  0.5266790000000  0.4901160000000  0.4658500000000 1.0
C      1  0.5361270000000  0.4779180000000  0.4944310000000 1.0
C      1  0.5181560000000  0.4774890000000  0.5369260000000 1.0
C      1  0.4852030000000  0.4754160000000  0.5379290000000 1.0
C      1  0.4603600000000  0.4781890000000  0.5207570000000 1.0
C      1  0.4665460000000  0.4765690000000  0.4532450000000 1.0
C      1  0.5056330000000  0.5003790000000  0.5069380000000 1.0
C      1  0.5012140000000  0.4386120000000  0.5030430000000 1.0
C      1  0.5084500000000  0.5234920000000  0.5002560000000 1.0
C      1  0.5078870000000  0.4675040000000  0.5060910000000 1.0
END
