TITL C-1154823-9327-638 -0.0014981505473936 125000 -322.29015873841 0 0 60 (C1) n - 1
REM
REM in /home/nfs/bkarasulu/CARBON/AIRSS/Generating-Clusters/AIREBO/Higher-Symm/Only-C60
REM
REM
REM
REM
REM
REM ./C.cell (28575a23ae977d3b5fae324c64b13b57)
REM
REM compiler GCC version 9.2.1 20190827 (Red Hat 9.2.1-1)
REM options -cpp -mtune=generic -march=x86-64 -g -O0 -fpre-include=/usr/include/finclude/math-vector-fortran.h
REM seed -1099207763 -153812596 -883919062 387149061 778794740 1345956412 -2020799935 -207382175 -192705908 2086886921 -471964801 -65380830 951090209 -2092800460 270153634 -1977472898 -1726226538 -6359226 -1424742806 -1643211451 -937825803 258005789 -2008786306 -1400622220 -1227840410 -561027465 -516113330 -2101053857 944673198 -1317614186 1803665257 -1014698800 -1779919354
REM
CELL 1.54180   50.00000   50.00000   50.00000   90.00000   90.00000   90.00000
LATT -1
SFAC C  
C      1  0.4473130000000  0.4646260000000  0.5240750000000 1.0
C      1  0.4967530000000  0.4845080000000  0.4374650000000 1.0
C      1  0.5237680000000  0.4414830000000  0.5547150000000 1.0
C      1  0.5227860000000  0.5515280000000  0.4702030000000 1.0
C      1  0.4665020000000  0.5066690000000  0.5207630000000 1.0
C      1  0.5310480000000  0.4389810000000  0.4869300000000 1.0
C      1  0.5002020000000  0.5027500000000  0.5231020000000 1.0
C      1  0.4741790000000  0.4713270000000  0.5393170000000 1.0
C      1  0.4505800000000  0.4843570000000  0.4487870000000 1.0
C      1  0.4357150000000  0.5240220000000  0.4725320000000 1.0
C      1  0.4454950000000  0.4359030000000  0.5057690000000 1.0
C      1  0.5718360000000  0.5090790000000  0.5090100000000 1.0
C      1  0.5270830000000  0.5355480000000  0.4404870000000 1.0
C      1  0.5565300000000  0.5327200000000  0.5233750000000 1.0
C      1  0.4634240000000  0.5145910000000  0.5598230000000 1.0
C      1  0.4966280000000  0.5373540000000  0.4435190000000 1.0
C      1  0.5504810000000  0.4582940000000  0.5501170000000 1.0
C      1  0.5240140000000  0.4230300000000  0.5093640000000 1.0
C      1  0.5242660000000  0.4727790000000  0.5630660000000 1.0
C      1  0.5341470000000  0.5202760000000  0.5010050000000 1.0
C      1  0.4806130000000  0.5657550000000  0.5062610000000 1.0
C      1  0.5065740000000  0.4487110000000  0.4729590000000 1.0
C      1  0.5650800000000  0.5067010000000  0.4797180000000 1.0
C      1  0.5256820000000  0.4802500000000  0.5239210000000 1.0
C      1  0.5554150000000  0.4648830000000  0.5179230000000 1.0
C      1  0.4407640000000  0.4686740000000  0.4709150000000 1.0
C      1  0.5122320000000  0.4481810000000  0.4434590000000 1.0
C      1  0.5103990000000  0.4361910000000  0.5303300000000 1.0
C      1  0.5537970000000  0.5375540000000  0.4707880000000 1.0
C      1  0.4531310000000  0.5727610000000  0.5090970000000 1.0
C      1  0.5537390000000  0.4945090000000  0.5340350000000 1.0
C      1  0.5510030000000  0.5228570000000  0.5508590000000 1.0
C      1  0.4888430000000  0.4694490000000  0.4918000000000 1.0
C      1  0.5531000000000  0.4562390000000  0.4896940000000 1.0
C      1  0.5164410000000  0.5819850000000  0.4548970000000 1.0
C      1  0.4890810000000  0.5521580000000  0.5293060000000 1.0
C      1  0.4512210000000  0.4379070000000  0.4762020000000 1.0
C      1  0.4906690000000  0.5656520000000  0.4512510000000 1.0
C      1  0.4490110000000  0.5259360000000  0.5014710000000 1.0
C      1  0.4749310000000  0.5233910000000  0.4795970000000 1.0
C      1  0.4959390000000  0.5003000000000  0.4894390000000 1.0
C      1  0.5094700000000  0.4988600000000  0.5556100000000 1.0
C      1  0.5277520000000  0.5222650000000  0.5651440000000 1.0
C      1  0.5316920000000  0.5541270000000  0.5029180000000 1.0
C      1  0.4393400000000  0.5283210000000  0.5402040000000 1.0
C      1  0.4546850000000  0.5114170000000  0.4546760000000 1.0
C      1  0.4794420000000  0.4929980000000  0.5559840000000 1.0
C      1  0.5323750000000  0.5042150000000  0.4742110000000 1.0
C      1  0.5038590000000  0.5075870000000  0.4571670000000 1.0
C      1  0.4737230000000  0.4688810000000  0.4422770000000 1.0
C      1  0.5409760000000  0.5117310000000  0.4430800000000 1.0
C      1  0.4386220000000  0.4945950000000  0.5357530000000 1.0
C      1  0.4697040000000  0.5426550000000  0.5462600000000 1.0
C      1  0.4382790000000  0.5509600000000  0.5159550000000 1.0
C      1  0.4904340000000  0.5505160000000  0.4806770000000 1.0
C      1  0.4763560000000  0.4471080000000  0.4607990000000 1.0
C      1  0.5119650000000  0.5346490000000  0.5226040000000 1.0
C      1  0.4580870000000  0.4721410000000  0.4951620000000 1.0
C      1  0.5651310000000  0.4742360000000  0.4726200000000 1.0
C      1  0.4976900000000  0.4628640000000  0.5215530000000 1.0
END
