TITL C-1154826-9507-526 0.000424673055790738 125000 -339.814697232228 0 0 60 (C1) n - 1
REM
REM in /home/nfs/bkarasulu/CARBON/AIRSS/Generating-Clusters/AIREBO/Higher-Symm/Only-C60
REM
REM
REM
REM
REM
REM ./C.cell (28575a23ae977d3b5fae324c64b13b57)
REM
REM compiler GCC version 9.2.1 20190827 (Red Hat 9.2.1-1)
REM options -cpp -mtune=generic -march=x86-64 -g -O0 -fpre-include=/usr/include/finclude/math-vector-fortran.h
REM seed 491508376 -873529644 1012135041 -1064625880 -514204550 1462981184 1476328279 -35019682 -413090065 -2100509375 -1809895096 463315075 753796731 1129002209 -1802216800 -1183112863 -1997872479 -461441730 277179739 926865377 -399937232 -1174418766 1141369278 -1784740499 2053069391 497270260 -2122669042 -2135006054 678783885 1674507581 654708756 1929969489 1575066956
REM
CELL 1.54180   50.00000   50.00000   50.00000   90.00000   90.00000   90.00000
LATT -1
SFAC C  
C      1  0.5192240000000  0.4399970000000  0.5611410000000 1.0
C      1  0.5582640000000  0.4735550000000  0.5676830000000 1.0
C      1  0.5428950000000  0.5367240000000  0.5396470000000 1.0
C      1  0.5135800000000  0.5704350000000  0.5452640000000 1.0
C      1  0.4588970000000  0.5578290000000  0.5619150000000 1.0
C      1  0.4397560000000  0.4866540000000  0.5619520000000 1.0
C      1  0.4419450000000  0.4313330000000  0.5580680000000 1.0
C      1  0.5375260000000  0.5198950000000  0.4911500000000 1.0
C      1  0.4952350000000  0.5328330000000  0.5013540000000 1.0
C      1  0.4619010000000  0.5227690000000  0.4920630000000 1.0
C      1  0.4677770000000  0.4908310000000  0.5021490000000 1.0
C      1  0.4704890000000  0.4620820000000  0.4981090000000 1.0
C      1  0.5221700000000  0.4645930000000  0.4936850000000 1.0
C      1  0.5154390000000  0.4954540000000  0.4956710000000 1.0
C      1  0.4691250000000  0.5393360000000  0.4678440000000 1.0
C      1  0.4389800000000  0.4882820000000  0.4646320000000 1.0
C      1  0.4666080000000  0.4517960000000  0.4579950000000 1.0
C      1  0.5137070000000  0.4506460000000  0.4644560000000 1.0
C      1  0.5575780000000  0.4811910000000  0.4611740000000 1.0
C      1  0.5554670000000  0.5280970000000  0.4563910000000 1.0
C      1  0.5128070000000  0.5650070000000  0.4679590000000 1.0
C      1  0.4408680000000  0.4442800000000  0.5295440000000 1.0
C      1  0.5010120000000  0.4464210000000  0.5377530000000 1.0
C      1  0.5456510000000  0.4621260000000  0.5414900000000 1.0
C      1  0.5611150000000  0.5146930000000  0.5309580000000 1.0
C      1  0.5313350000000  0.5594100000000  0.5268680000000 1.0
C      1  0.4758320000000  0.5616900000000  0.5360750000000 1.0
C      1  0.4440080000000  0.5075970000000  0.5452860000000 1.0
C      1  0.5197210000000  0.5544460000000  0.5000610000000 1.0
C      1  0.4794780000000  0.5615520000000  0.5091740000000 1.0
C      1  0.4402730000000  0.5029510000000  0.5183520000000 1.0
C      1  0.4416840000000  0.4507750000000  0.5031740000000 1.0
C      1  0.4985360000000  0.4477780000000  0.5092710000000 1.0
C      1  0.5491790000000  0.4616760000000  0.5155700000000 1.0
C      1  0.5645730000000  0.5115240000000  0.5037420000000 1.0
C      1  0.4826390000000  0.5622460000000  0.4777020000000 1.0
C      1  0.4343920000000  0.5056850000000  0.4865060000000 1.0
C      1  0.4415710000000  0.4595280000000  0.4709060000000 1.0
C      1  0.4871640000000  0.4397550000000  0.4783410000000 1.0
C      1  0.5539860000000  0.4622480000000  0.4819150000000 1.0
C      1  0.5688930000000  0.5066950000000  0.4706910000000 1.0
C      1  0.5415620000000  0.5491230000000  0.4749630000000 1.0
C      1  0.4678150000000  0.5262900000000  0.5528680000000 1.0
C      1  0.4563090000000  0.4619840000000  0.5548590000000 1.0
C      1  0.4859680000000  0.4703970000000  0.5526450000000 1.0
C      1  0.5193440000000  0.4739700000000  0.5594900000000 1.0
C      1  0.5409640000000  0.4996760000000  0.5541880000000 1.0
C      1  0.5228510000000  0.5272690000000  0.5608530000000 1.0
C      1  0.4961450000000  0.5445420000000  0.5573830000000 1.0
C      1  0.4731150000000  0.5224500000000  0.4455170000000 1.0
C      1  0.4610740000000  0.4965590000000  0.4460330000000 1.0
C      1  0.4797670000000  0.4734450000000  0.4422530000000 1.0
C      1  0.5104330000000  0.4697780000000  0.4434640000000 1.0
C      1  0.5348790000000  0.4859830000000  0.4418660000000 1.0
C      1  0.5343850000000  0.5174310000000  0.4339720000000 1.0
C      1  0.5201950000000  0.5478990000000  0.4413340000000 1.0
C      1  0.4924940000000  0.5037970000000  0.5137810000000 1.0
C      1  0.4880370000000  0.5016060000000  0.5433870000000 1.0
C      1  0.5018270000000  0.5202630000000  0.4416370000000 1.0
C      1  0.5149970000000  0.5139270000000  0.4687140000000 1.0
END
