TITL C-1154810-7815-396 -0.00100334878146379 125000 -325.8391318323 0 0 60 (C1) n - 1
REM
REM in /home/nfs/bkarasulu/CARBON/AIRSS/Generating-Clusters/AIREBO/Higher-Symm/Only-C60
REM
REM
REM
REM
REM
REM ./C.cell (28575a23ae977d3b5fae324c64b13b57)
REM
REM compiler GCC version 9.2.1 20190827 (Red Hat 9.2.1-1)
REM options -cpp -mtune=generic -march=x86-64 -g -O0 -fpre-include=/usr/include/finclude/math-vector-fortran.h
REM seed 308996288 -1697162128 -1754934191 1212176415 -1076936767 207626124 -2049554544 -45263977 -1431713451 -2112497318 926049712 331849529 288009874 -407747688 1698757528 -792764362 -1415026110 -153261599 -735161019 -772605559 835448321 -1945410494 -1692276759 1251126142 136535871 -2026464173 955383497 2050383832 549002499 574871912 -1189162319 1827541721 838757121
REM
CELL 1.54180   50.00000   50.00000   50.00000   90.00000   90.00000   90.00000
LATT -1
SFAC C  
C      1  0.4207720000000  0.5000610000000  0.4848890000000 1.0
C      1  0.4289610000000  0.5114700000000  0.4638380000000 1.0
C      1  0.5551480000000  0.5019800000000  0.5496250000000 1.0
C      1  0.5019950000000  0.5747320000000  0.5244870000000 1.0
C      1  0.5126300000000  0.5312400000000  0.4824700000000 1.0
C      1  0.5600140000000  0.4874740000000  0.4921180000000 1.0
C      1  0.4392670000000  0.4602780000000  0.5092810000000 1.0
C      1  0.5689330000000  0.5378720000000  0.5080930000000 1.0
C      1  0.5102680000000  0.4331840000000  0.5051720000000 1.0
C      1  0.4633000000000  0.4962260000000  0.4803870000000 1.0
C      1  0.4837880000000  0.4681910000000  0.5426880000000 1.0
C      1  0.5266600000000  0.4383740000000  0.5345130000000 1.0
C      1  0.4895130000000  0.5682930000000  0.4709510000000 1.0
C      1  0.4509830000000  0.4262570000000  0.4489640000000 1.0
C      1  0.5141150000000  0.5589380000000  0.4820490000000 1.0
C      1  0.5389890000000  0.5488960000000  0.5467940000000 1.0
C      1  0.5449220000000  0.4688090000000  0.4458970000000 1.0
C      1  0.5461860000000  0.5595830000000  0.5189620000000 1.0
C      1  0.4912460000000  0.5204400000000  0.4652130000000 1.0
C      1  0.5087900000000  0.5125660000000  0.5746560000000 1.0
C      1  0.5908290000000  0.5463150000000  0.4942200000000 1.0
C      1  0.4797130000000  0.5473090000000  0.4493250000000 1.0
C      1  0.5486500000000  0.4435580000000  0.5085160000000 1.0
C      1  0.4960430000000  0.4999650000000  0.5186050000000 1.0
C      1  0.4971350000000  0.5344290000000  0.5697800000000 1.0
C      1  0.4443090000000  0.4930920000000  0.5084180000000 1.0
C      1  0.5521830000000  0.5117380000000  0.5012770000000 1.0
C      1  0.5137500000000  0.4698160000000  0.5394510000000 1.0
C      1  0.4955750000000  0.5488520000000  0.5418530000000 1.0
C      1  0.5248990000000  0.4943580000000  0.5528220000000 1.0
C      1  0.4822780000000  0.4464680000000  0.4909000000000 1.0
C      1  0.4150920000000  0.5452290000000  0.5316940000000 1.0
C      1  0.5222570000000  0.4649660000000  0.5074020000000 1.0
C      1  0.4939460000000  0.4909870000000  0.4557740000000 1.0
C      1  0.5585790000000  0.5266480000000  0.5377670000000 1.0
C      1  0.4718180000000  0.4493860000000  0.5563940000000 1.0
C      1  0.5386810000000  0.4918640000000  0.4331900000000 1.0
C      1  0.5030960000000  0.5330210000000  0.4292180000000 1.0
C      1  0.5339460000000  0.4306060000000  0.4809760000000 1.0
C      1  0.5226530000000  0.5169950000000  0.5059990000000 1.0
C      1  0.4519770000000  0.4414880000000  0.4944690000000 1.0
C      1  0.5186090000000  0.5241490000000  0.5376920000000 1.0
C      1  0.4456850000000  0.5519020000000  0.5241480000000 1.0
C      1  0.4727730000000  0.4436670000000  0.4450290000000 1.0
C      1  0.4580250000000  0.5239480000000  0.4612680000000 1.0
C      1  0.5745680000000  0.4852170000000  0.5590430000000 1.0
C      1  0.4729550000000  0.5778950000000  0.4904630000000 1.0
C      1  0.5209620000000  0.4503270000000  0.4528210000000 1.0
C      1  0.4417160000000  0.4237030000000  0.4750950000000 1.0
C      1  0.4946950000000  0.4891310000000  0.4897210000000 1.0
C      1  0.4348110000000  0.5221180000000  0.5209640000000 1.0
C      1  0.5095750000000  0.4621090000000  0.4780060000000 1.0
C      1  0.4721250000000  0.4668150000000  0.4655620000000 1.0
C      1  0.4680800000000  0.4934830000000  0.5327770000000 1.0
C      1  0.4984480000000  0.4395340000000  0.4359490000000 1.0
C      1  0.4710020000000  0.5635540000000  0.5190530000000 1.0
C      1  0.5496410000000  0.4606760000000  0.4785790000000 1.0
C      1  0.5234510000000  0.5706240000000  0.5063790000000 1.0
C      1  0.5208040000000  0.5124930000000  0.4324970000000 1.0
C      1  0.4581870000000  0.5067040000000  0.5558550000000 1.0
END
