TITL C-1154826-9507-93 0.00208683815206378 125000 -335.229838514031 0 0 60 (C1) n - 1
REM
REM in /home/nfs/bkarasulu/CARBON/AIRSS/Generating-Clusters/AIREBO/Higher-Symm/Only-C60
REM
REM
REM
REM
REM
REM ./C.cell (28575a23ae977d3b5fae324c64b13b57)
REM
REM compiler GCC version 9.2.1 20190827 (Red Hat 9.2.1-1)
REM options -cpp -mtune=generic -march=x86-64 -g -O0 -fpre-include=/usr/include/finclude/math-vector-fortran.h
REM seed 1237387838 -888587416 -642760437 -1889146503 -1254398904 902750066 668447881 1460054558 1223395989 -1326077483 1735409432 881244286 -2089467290 -18393027 1515604718 1277048231 -1660030218 164907806 -995520107 -1990537834 1951857024 1044131634 -703046393 -2086657617 -971742309 -539222170 974410865 -988050927 323216783 -1920424020 -1019478136 -889842461 888789617
REM
CELL 1.54180   50.00000   50.00000   50.00000   90.00000   90.00000   90.00000
LATT -1
SFAC C  
C      1  0.5443060000000  0.5256880000000  0.4819160000000 1.0
C      1  0.5231700000000  0.4606050000000  0.4850140000000 1.0
C      1  0.4359940000000  0.4781300000000  0.4886570000000 1.0
C      1  0.4804740000000  0.5579540000000  0.4752500000000 1.0
C      1  0.5616500000000  0.4827260000000  0.5155000000000 1.0
C      1  0.5162750000000  0.5468200000000  0.5233140000000 1.0
C      1  0.4494180000000  0.5283060000000  0.5093640000000 1.0
C      1  0.4763860000000  0.4455040000000  0.5193010000000 1.0
C      1  0.5094750000000  0.5148070000000  0.4335790000000 1.0
C      1  0.5381220000000  0.5019590000000  0.4306000000000 1.0
C      1  0.4853580000000  0.4681060000000  0.4457480000000 1.0
C      1  0.4804400000000  0.4994080000000  0.4372870000000 1.0
C      1  0.5134950000000  0.4742910000000  0.5460010000000 1.0
C      1  0.5305760000000  0.4971920000000  0.5598960000000 1.0
C      1  0.4835840000000  0.5209260000000  0.5612980000000 1.0
C      1  0.4675000000000  0.4913290000000  0.5576940000000 1.0
C      1  0.4467360000000  0.4848060000000  0.5339120000000 1.0
C      1  0.4723330000000  0.5431300000000  0.5474960000000 1.0
C      1  0.5499820000000  0.5139480000000  0.5374190000000 1.0
C      1  0.5348310000000  0.4509710000000  0.5395430000000 1.0
C      1  0.4606560000000  0.5183100000000  0.4561760000000 1.0
C      1  0.4726950000000  0.4602040000000  0.4730340000000 1.0
C      1  0.5471220000000  0.4809420000000  0.4476170000000 1.0
C      1  0.5164160000000  0.5385010000000  0.4569700000000 1.0
C      1  0.5338410000000  0.4851940000000  0.5020390000000 1.0
C      1  0.4832260000000  0.4803350000000  0.4964270000000 1.0
C      1  0.4790740000000  0.5058080000000  0.4806610000000 1.0
C      1  0.5108950000000  0.5284110000000  0.4882250000000 1.0
C      1  0.5243760000000  0.5149900000000  0.5144990000000 1.0
C      1  0.4783510000000  0.5331780000000  0.4970160000000 1.0
C      1  0.4568180000000  0.4683580000000  0.5100760000000 1.0
C      1  0.5061140000000  0.4798800000000  0.5156080000000 1.0
C      1  0.5082410000000  0.4551520000000  0.4402900000000 1.0
C      1  0.4499110000000  0.4844290000000  0.4379790000000 1.0
C      1  0.4895370000000  0.5417560000000  0.4278790000000 1.0
C      1  0.5565630000000  0.5243640000000  0.4318240000000 1.0
C      1  0.5103760000000  0.5211750000000  0.5674540000000 1.0
C      1  0.4439980000000  0.5158750000000  0.5587850000000 1.0
C      1  0.4870240000000  0.4677940000000  0.5588530000000 1.0
C      1  0.5594290000000  0.4813260000000  0.5626670000000 1.0
C      1  0.4310070000000  0.5199410000000  0.4643700000000 1.0
C      1  0.5166200000000  0.5692180000000  0.4715450000000 1.0
C      1  0.5702540000000  0.4868030000000  0.4630290000000 1.0
C      1  0.4795240000000  0.4310260000000  0.4826340000000 1.0
C      1  0.4254950000000  0.5007480000000  0.5255970000000 1.0
C      1  0.5250330000000  0.4310860000000  0.5240370000000 1.0
C      1  0.5766840000000  0.5121070000000  0.5199460000000 1.0
C      1  0.4874320000000  0.5600400000000  0.5311870000000 1.0
C      1  0.5497140000000  0.5400460000000  0.4548420000000 1.0
C      1  0.5294330000000  0.4612540000000  0.4575360000000 1.0
C      1  0.4454300000000  0.4715290000000  0.4617940000000 1.0
C      1  0.4731420000000  0.5456620000000  0.4499770000000 1.0
C      1  0.5600720000000  0.4649330000000  0.5393400000000 1.0
C      1  0.5293360000000  0.5352720000000  0.5485790000000 1.0
C      1  0.4465780000000  0.5351750000000  0.5361250000000 1.0
C      1  0.4777360000000  0.4446360000000  0.5468850000000 1.0
C      1  0.5050090000000  0.4400840000000  0.5017390000000 1.0
C      1  0.4283690000000  0.5091680000000  0.4935330000000 1.0
C      1  0.5017500000000  0.5651970000000  0.5007760000000 1.0
C      1  0.5666150000000  0.5034880000000  0.4886350000000 1.0
END
