TITL C-1154827-9204-535 -12.864928333988 125000 -319.78535576066 0 0 60 (C1) n - 1
REM
REM in /home/nfs/bkarasulu/CARBON/AIRSS/Generating-Clusters/AIREBO/Higher-Symm/Only-C60
REM
REM
REM
REM
REM
REM ./C.cell (28575a23ae977d3b5fae324c64b13b57)
REM
REM compiler GCC version 9.2.1 20190827 (Red Hat 9.2.1-1)
REM options -cpp -mtune=generic -march=x86-64 -g -O0 -fpre-include=/usr/include/finclude/math-vector-fortran.h
REM seed -1789443945 -1070161602 -261630895 -1141598106 2072975780 212410208 1294796763 894215081 578798897 1576733237 -1712707344 -1790194816 -1350434830 -1792379438 -387620156 240713 -1227948245 198555470 2094026686 -1841723121 385571344 1565283836 -2034501879 1269657214 646745011 -1469663113 -670694494 1823498154 -614024542 -1197251498 622107060 861915017 436936231
REM
CELL 1.54180   50.00000   50.00000   50.00000   90.00000   90.00000   90.00000
LATT -1
SFAC C  
C      1  0.4674530000000  0.4921420000000  0.4396170000000 1.0
C      1  0.4765110000000  0.5388480000000  0.4373920000000 1.0
C      1  0.5223140000000  0.5318300000000  0.4321500000000 1.0
C      1  0.5172630000000  0.4846290000000  0.4336320000000 1.0
C      1  0.4898650000000  0.4713820000000  0.4371370000000 1.0
C      1  0.5709930000000  0.5036380000000  0.5454610000000 1.0
C      1  0.5393090000000  0.4475540000000  0.5404910000000 1.0
C      1  0.4499650000000  0.4492450000000  0.5438120000000 1.0
C      1  0.4450490000000  0.5264660000000  0.5436420000000 1.0
C      1  0.5242750000000  0.5748580000000  0.5320830000000 1.0
C      1  0.4707660000000  0.4594600000000  0.5112540000000 1.0
C      1  0.4597690000000  0.5217350000000  0.5064470000000 1.0
C      1  0.5106840000000  0.5464970000000  0.5056920000000 1.0
C      1  0.5509690000000  0.5077660000000  0.4952430000000 1.0
C      1  0.5265870000000  0.4554490000000  0.5003830000000 1.0
C      1  0.4821070000000  0.4521070000000  0.5424590000000 1.0
C      1  0.4712090000000  0.5049760000000  0.5404000000000 1.0
C      1  0.5029160000000  0.5547910000000  0.5407530000000 1.0
C      1  0.5445830000000  0.5206100000000  0.5380460000000 1.0
C      1  0.5273480000000  0.4781140000000  0.5333310000000 1.0
C      1  0.5297030000000  0.4754830000000  0.5671490000000 1.0
C      1  0.4972880000000  0.4685130000000  0.5613120000000 1.0
C      1  0.4769760000000  0.5225680000000  0.5669580000000 1.0
C      1  0.5028280000000  0.5358500000000  0.5628090000000 1.0
C      1  0.5459650000000  0.5048570000000  0.5669120000000 1.0
C      1  0.4506070000000  0.5495570000000  0.5333110000000 1.0
C      1  0.5434150000000  0.5660760000000  0.5174920000000 1.0
C      1  0.5757700000000  0.4831420000000  0.5279960000000 1.0
C      1  0.5251890000000  0.4288820000000  0.5301940000000 1.0
C      1  0.4370070000000  0.4671970000000  0.5311260000000 1.0
C      1  0.4728910000000  0.4713840000000  0.4820920000000 1.0
C      1  0.4577960000000  0.5220880000000  0.4782360000000 1.0
C      1  0.5066010000000  0.5451800000000  0.4760460000000 1.0
C      1  0.5448570000000  0.5080960000000  0.4678210000000 1.0
C      1  0.5168140000000  0.4652950000000  0.4760700000000 1.0
C      1  0.4556690000000  0.4896020000000  0.5168180000000 1.0
C      1  0.4794230000000  0.5465380000000  0.5190950000000 1.0
C      1  0.5420210000000  0.5344870000000  0.5114850000000 1.0
C      1  0.5500220000000  0.4781220000000  0.5100640000000 1.0
C      1  0.4997790000000  0.4417220000000  0.5161780000000 1.0
C      1  0.4569700000000  0.4931100000000  0.4666690000000 1.0
C      1  0.4742070000000  0.5430520000000  0.4653070000000 1.0
C      1  0.5334130000000  0.5338280000000  0.4581760000000 1.0
C      1  0.5337650000000  0.4818000000000  0.4570210000000 1.0
C      1  0.4904780000000  0.4552510000000  0.4625080000000 1.0
C      1  0.5018210000000  0.4985740000000  0.5267150000000 1.0
C      1  0.4938730000000  0.5079280000000  0.4026920000000 1.0
C      1  0.4910600000000  0.4926160000000  0.2981440000000 1.0
C      1  0.4923860000000  0.5056650000000  0.3764410000000 1.0
C      1  0.4923230000000  0.4907010000000  0.5856030000000 1.0
C      1  0.4556490000000  0.5108340000000  0.6821320000000 1.0
C      1  0.4909230000000  0.5008030000000  0.3502940000000 1.0
C      1  0.5110490000000  0.5029720000000  0.5598630000000 1.0
C      1  0.4958660000000  0.5109010000000  0.4365080000000 1.0
C      1  0.5003330000000  0.4976720000000  0.4926860000000 1.0
C      1  0.4844570000000  0.4942960000000  0.6100360000000 1.0
C      1  0.4659600000000  0.5046720000000  0.6588350000000 1.0
C      1  0.4740880000000  0.4988570000000  0.6341440000000 1.0
C      1  0.4911390000000  0.4979420000000  0.3238090000000 1.0
C      1  0.5010410000000  0.5142250000000  0.4699740000000 1.0
END
