TITL C-1154802-8274-49 0.000639296982351782 125000 -347.409313527955 0 0 60 (C1) n - 1
REM
REM in /home/nfs/bkarasulu/CARBON/AIRSS/Generating-Clusters/AIREBO/Higher-Symm/Only-C60
REM
REM
REM
REM
REM
REM ./C.cell (28575a23ae977d3b5fae324c64b13b57)
REM
REM compiler GCC version 9.2.1 20190827 (Red Hat 9.2.1-1)
REM options -cpp -mtune=generic -march=x86-64 -g -O0 -fpre-include=/usr/include/finclude/math-vector-fortran.h
REM seed 1579379117 -1948467867 -1851872341 -1519979395 -695444158 1545669261 674934352 -168195732 1605659431 1540812859 -223318689 586012727 1581119673 -1369414123 532713298 -709786648 1152668109 -84213287 -16819272 -146662518 1546819202 -714381798 -1149661403 -585224716 661950602 -1014277728 809618383 1486709404 1538246065 831330516 155277381 1452894663 -1595577078
REM
CELL 1.54180   50.00000   50.00000   50.00000   90.00000   90.00000   90.00000
LATT -1
SFAC C  
C      1  0.5052380000000  0.4847020000000  0.4264950000000 1.0
C      1  0.5021710000000  0.4278310000000  0.4737600000000 1.0
C      1  0.4947080000000  0.4451420000000  0.5515250000000 1.0
C      1  0.5005300000000  0.5090930000000  0.5792980000000 1.0
C      1  0.5046990000000  0.5670470000000  0.5257360000000 1.0
C      1  0.4992180000000  0.5641590000000  0.4478800000000 1.0
C      1  0.4580830000000  0.4780650000000  0.5557940000000 1.0
C      1  0.5312060000000  0.5247580000000  0.5406360000000 1.0
C      1  0.4694450000000  0.5445960000000  0.4945980000000 1.0
C      1  0.5280060000000  0.5237360000000  0.4521470000000 1.0
C      1  0.4677740000000  0.4709440000000  0.4610900000000 1.0
C      1  0.5305400000000  0.4538400000000  0.5061960000000 1.0
C      1  0.4415580000000  0.5174490000000  0.5326730000000 1.0
C      1  0.5556200000000  0.5281380000000  0.4909520000000 1.0
C      1  0.4413080000000  0.5172810000000  0.4661590000000 1.0
C      1  0.5548270000000  0.4978490000000  0.4752640000000 1.0
C      1  0.4411650000000  0.4645020000000  0.5014880000000 1.0
C      1  0.5592960000000  0.4815570000000  0.5335830000000 1.0
C      1  0.5351220000000  0.4709650000000  0.4703990000000 1.0
C      1  0.4674200000000  0.4541650000000  0.5119350000000 1.0
C      1  0.5327410000000  0.4853760000000  0.5473370000000 1.0
C      1  0.4694830000000  0.5288480000000  0.5351200000000 1.0
C      1  0.5301050000000  0.5463350000000  0.4846260000000 1.0
C      1  0.4680390000000  0.5131130000000  0.4523390000000 1.0
C      1  0.5350240000000  0.4855790000000  0.4428740000000 1.0
C      1  0.4767210000000  0.4322600000000  0.4931700000000 1.0
C      1  0.5227790000000  0.4586280000000  0.5560230000000 1.0
C      1  0.4779450000000  0.5243980000000  0.5632980000000 1.0
C      1  0.5336360000000  0.5542550000000  0.5138070000000 1.0
C      1  0.4777140000000  0.5405500000000  0.4446390000000 1.0
C      1  0.4768230000000  0.4426830000000  0.4627660000000 1.0
C      1  0.5190950000000  0.4402650000000  0.5304820000000 1.0
C      1  0.4721260000000  0.4945620000000  0.5739360000000 1.0
C      1  0.5250660000000  0.5554830000000  0.5465330000000 1.0
C      1  0.4777760000000  0.5595810000000  0.4704300000000 1.0
C      1  0.5234360000000  0.5105170000000  0.4225200000000 1.0
C      1  0.4423780000000  0.5330520000000  0.4886230000000 1.0
C      1  0.5582410000000  0.5110330000000  0.4441110000000 1.0
C      1  0.4410560000000  0.4722270000000  0.4752320000000 1.0
C      1  0.5576370000000  0.4651510000000  0.5115300000000 1.0
C      1  0.4374060000000  0.4909540000000  0.5406780000000 1.0
C      1  0.5565630000000  0.5264740000000  0.5226240000000 1.0
C      1  0.5262400000000  0.4399780000000  0.4774440000000 1.0
C      1  0.4704640000000  0.4558230000000  0.5434800000000 1.0
C      1  0.5256240000000  0.5083300000000  0.5685690000000 1.0
C      1  0.4790710000000  0.5583360000000  0.5229000000000 1.0
C      1  0.5248990000000  0.5559710000000  0.4540110000000 1.0
C      1  0.4786620000000  0.4869920000000  0.4340100000000 1.0
C      1  0.4245960000000  0.4741750000000  0.5218460000000 1.0
C      1  0.5738220000000  0.5047280000000  0.5307660000000 1.0
C      1  0.4271700000000  0.5290450000000  0.5116760000000 1.0
C      1  0.5744540000000  0.5304180000000  0.4644790000000 1.0
C      1  0.4258980000000  0.4940180000000  0.4666550000000 1.0
C      1  0.5702380000000  0.4741180000000  0.4892830000000 1.0
C      1  0.5077270000000  0.5212270000000  0.4796050000000 1.0
C      1  0.4897380000000  0.4948170000000  0.4713640000000 1.0
C      1  0.5088620000000  0.4745090000000  0.4896990000000 1.0
C      1  0.4919910000000  0.4757780000000  0.5164660000000 1.0
C      1  0.5095900000000  0.5016150000000  0.5281240000000 1.0
C      1  0.4912280000000  0.5229790000000  0.5093160000000 1.0
END
