TITL C-1154824-75-524 0.000404997530551669 125000 -325.982942396526 0 0 60 (C1) n - 1
REM
REM in /home/nfs/bkarasulu/CARBON/AIRSS/Generating-Clusters/AIREBO/Higher-Symm/Only-C60
REM
REM
REM
REM
REM
REM ./C.cell (28575a23ae977d3b5fae324c64b13b57)
REM
REM compiler GCC version 9.2.1 20190827 (Red Hat 9.2.1-1)
REM options -cpp -mtune=generic -march=x86-64 -g -O0 -fpre-include=/usr/include/finclude/math-vector-fortran.h
REM seed 1690638525 1471878738 439049061 786528256 1863322001 -1635063903 2035651439 -731897033 -197681098 -1362772921 -1209379133 340436222 -459169488 -710102844 -1317816362 1979709394 2126655311 1238017197 -460351814 1413964855 1935743963 139224131 1864159894 68939574 336955018 -1383763099 3006601 -764748845 -866456625 -871988729 -874605460 -374928572 -1823641145
REM
CELL 1.54180   50.00000   50.00000   50.00000   90.00000   90.00000   90.00000
LATT -1
SFAC C  
C      1  0.5424870000000  0.4805410000000  0.4705860000000 1.0
C      1  0.4977820000000  0.4505610000000  0.4618060000000 1.0
C      1  0.4779410000000  0.4845680000000  0.4558170000000 1.0
C      1  0.4655670000000  0.5162500000000  0.4534540000000 1.0
C      1  0.4840190000000  0.5406500000000  0.4640560000000 1.0
C      1  0.5138910000000  0.5410820000000  0.4542740000000 1.0
C      1  0.5359780000000  0.5129350000000  0.4625360000000 1.0
C      1  0.5000280000000  0.4605450000000  0.4942420000000 1.0
C      1  0.4686530000000  0.4693310000000  0.4844540000000 1.0
C      1  0.4627030000000  0.5010900000000  0.4950390000000 1.0
C      1  0.4850210000000  0.5268710000000  0.4951230000000 1.0
C      1  0.5142050000000  0.5435630000000  0.5002290000000 1.0
C      1  0.5404470000000  0.5244150000000  0.4915780000000 1.0
C      1  0.5299340000000  0.4750210000000  0.5017040000000 1.0
C      1  0.4482100000000  0.5279220000000  0.4800020000000 1.0
C      1  0.4760870000000  0.5648570000000  0.4855040000000 1.0
C      1  0.5303410000000  0.5588600000000  0.4745030000000 1.0
C      1  0.5666150000000  0.5099080000000  0.5020650000000 1.0
C      1  0.5546660000000  0.4515840000000  0.4778500000000 1.0
C      1  0.4780080000000  0.4308040000000  0.4793970000000 1.0
C      1  0.4346030000000  0.4655490000000  0.4811510000000 1.0
C      1  0.4553050000000  0.4999120000000  0.5497460000000 1.0
C      1  0.4753760000000  0.5477030000000  0.5525370000000 1.0
C      1  0.5227240000000  0.5458740000000  0.5430080000000 1.0
C      1  0.5346300000000  0.5197660000000  0.5247630000000 1.0
C      1  0.5305680000000  0.4879300000000  0.5331660000000 1.0
C      1  0.5110600000000  0.4455780000000  0.5207850000000 1.0
C      1  0.4716950000000  0.4702900000000  0.5452060000000 1.0
C      1  0.5288320000000  0.4887910000000  0.5671390000000 1.0
C      1  0.5080950000000  0.4737370000000  0.5790640000000 1.0
C      1  0.4814760000000  0.4807580000000  0.5731000000000 1.0
C      1  0.4731170000000  0.5087230000000  0.5773620000000 1.0
C      1  0.4876670000000  0.5326800000000  0.5737410000000 1.0
C      1  0.5162250000000  0.5348640000000  0.5710100000000 1.0
C      1  0.5332220000000  0.5140040000000  0.5789130000000 1.0
C      1  0.4727630000000  0.5073700000000  0.4236830000000 1.0
C      1  0.4936310000000  0.5229240000000  0.4124840000000 1.0
C      1  0.5171260000000  0.5256000000000  0.4282160000000 1.0
C      1  0.5319720000000  0.5003990000000  0.4325120000000 1.0
C      1  0.5230670000000  0.4749640000000  0.4245210000000 1.0
C      1  0.4987210000000  0.4613490000000  0.4308810000000 1.0
C      1  0.4740000000000  0.4768410000000  0.4229410000000 1.0
C      1  0.4374410000000  0.4846150000000  0.5041470000000 1.0
C      1  0.4567850000000  0.5369030000000  0.5111980000000 1.0
C      1  0.4915540000000  0.5639460000000  0.5084510000000 1.0
C      1  0.5488920000000  0.5631330000000  0.4968630000000 1.0
C      1  0.5617620000000  0.4840560000000  0.5086060000000 1.0
C      1  0.5475610000000  0.4308520000000  0.4941040000000 1.0
C      1  0.4650720000000  0.4414520000000  0.5036030000000 1.0
C      1  0.4954000000000  0.5598180000000  0.5363810000000 1.0
C      1  0.5473230000000  0.5512870000000  0.5210670000000 1.0
C      1  0.5623600000000  0.4745190000000  0.5369020000000 1.0
C      1  0.5319360000000  0.4292960000000  0.5168440000000 1.0
C      1  0.4612870000000  0.4449750000000  0.5300480000000 1.0
C      1  0.4324260000000  0.4871000000000  0.5306180000000 1.0
C      1  0.4567870000000  0.5319010000000  0.5383070000000 1.0
C      1  0.4972550000000  0.5003220000000  0.5149520000000 1.0
C      1  0.4994020000000  0.4743710000000  0.5320120000000 1.0
C      1  0.5111630000000  0.4818160000000  0.4626100000000 1.0
C      1  0.5014440000000  0.4991760000000  0.4845730000000 1.0
END
