TITL C-1154828-9214-595 0.00208765330199856 125000 -383.838115509929 0 0 60 (Ci) n - 1
REM
REM in /home/nfs/bkarasulu/CARBON/AIRSS/Generating-Clusters/AIREBO/Higher-Symm/Only-C60
REM
REM
REM
REM
REM
REM ./C.cell (28575a23ae977d3b5fae324c64b13b57)
REM
REM compiler GCC version 9.2.1 20190827 (Red Hat 9.2.1-1)
REM options -cpp -mtune=generic -march=x86-64 -g -O0 -fpre-include=/usr/include/finclude/math-vector-fortran.h
REM seed -126098289 1650221662 1107678555 -564744208 -287327300 -1735137656 -1903784066 1555914930 -548199274 -476272494 -822542422 596418477 1439266898 717612426 -1592682455 1714641011 1568863433 1900326754 -1309066586 -1484923066 110090876 1927091565 -1044608635 931183345 -1404445743 -2112544770 -377156813 322700429 1599947225 -1202727904 1762128255 1812912918 -775357093
REM
CELL 1.54180   50.00000   50.00000   50.00000   90.00000   90.00000   90.00000
LATT -1
SFAC C  
C      1  0.5489500000000  0.5289090000000  0.4835100000000 1.0
C      1  0.5259260000000  0.5630700000000  0.5098750000000 1.0
C      1  0.4852410000000  0.5543320000000  0.4845010000000 1.0
C      1  0.4433430000000  0.5470750000000  0.5116130000000 1.0
C      1  0.4276750000000  0.5068810000000  0.4897570000000 1.0
C      1  0.4510500000000  0.4710910000000  0.5164900000000 1.0
C      1  0.4740740000000  0.4369300000000  0.4901250000000 1.0
C      1  0.5147590000000  0.4456680000000  0.5154990000000 1.0
C      1  0.5566570000000  0.4529250000000  0.4883870000000 1.0
C      1  0.5723250000000  0.4931190000000  0.5102430000000 1.0
C      1  0.5685320000000  0.4897270000000  0.4600700000000 1.0
C      1  0.5508560000000  0.5273990000000  0.5328330000000 1.0
C      1  0.5282360000000  0.5641100000000  0.4584150000000 1.0
C      1  0.4863980000000  0.5566030000000  0.5337380000000 1.0
C      1  0.4479110000000  0.5438000000000  0.4614380000000 1.0
C      1  0.4314680000000  0.5102730000000  0.5399300000000 1.0
C      1  0.4491440000000  0.4726010000000  0.4671670000000 1.0
C      1  0.4717640000000  0.4358900000000  0.5415850000000 1.0
C      1  0.5136020000000  0.4433970000000  0.4662620000000 1.0
C      1  0.5520890000000  0.4562000000000  0.5385620000000 1.0
C      1  0.4980290000000  0.4830170000000  0.4427530000000 1.0
C      1  0.5044470000000  0.4730970000000  0.5336810000000 1.0
C      1  0.5241250000000  0.4918700000000  0.4460310000000 1.0
C      1  0.5200690000000  0.4962660000000  0.5512390000000 1.0
C      1  0.5251560000000  0.5182270000000  0.4610940000000 1.0
C      1  0.5019710000000  0.5169830000000  0.5572470000000 1.0
C      1  0.4955530000000  0.5269030000000  0.4663190000000 1.0
C      1  0.4758750000000  0.5081300000000  0.5539690000000 1.0
C      1  0.4799310000000  0.5037340000000  0.4487610000000 1.0
C      1  0.4748440000000  0.4817730000000  0.5389060000000 1.0
C      1  0.4364130000000  0.5177050000000  0.4636170000000 1.0
C      1  0.4350290000000  0.4821440000000  0.5422010000000 1.0
C      1  0.4674420000000  0.4514550000000  0.4656530000000 1.0
C      1  0.5001440000000  0.4349070000000  0.5438330000000 1.0
C      1  0.5406180000000  0.4513310000000  0.4644470000000 1.0
C      1  0.5635870000000  0.4822950000000  0.5363830000000 1.0
C      1  0.5649710000000  0.5178560000000  0.4577990000000 1.0
C      1  0.5325580000000  0.5485450000000  0.5343470000000 1.0
C      1  0.4998560000000  0.5650930000000  0.4561670000000 1.0
C      1  0.4593820000000  0.5486690000000  0.5355530000000 1.0
C      1  0.5728090000000  0.4771930000000  0.4868340000000 1.0
C      1  0.5624730000000  0.5199280000000  0.5082910000000 1.0
C      1  0.5387130000000  0.5576730000000  0.4855710000000 1.0
C      1  0.4976360000000  0.5649060000000  0.5090530000000 1.0
C      1  0.4545720000000  0.5548710000000  0.4873330000000 1.0
C      1  0.4271910000000  0.5228070000000  0.5131660000000 1.0
C      1  0.4375270000000  0.4800720000000  0.4917090000000 1.0
C      1  0.4612870000000  0.4423270000000  0.5144290000000 1.0
C      1  0.5023640000000  0.4350940000000  0.4909470000000 1.0
C      1  0.5454280000000  0.4451290000000  0.5126670000000 1.0
C      1  0.5459860000000  0.4751140000000  0.4489490000000 1.0
C      1  0.5467550000000  0.5031150000000  0.5476720000000 1.0
C      1  0.5445130000000  0.5410090000000  0.4457320000000 1.0
C      1  0.5075420000000  0.5434500000000  0.5486580000000 1.0
C      1  0.4738860000000  0.5451230000000  0.4474800000000 1.0
C      1  0.4540140000000  0.5248860000000  0.5510510000000 1.0
C      1  0.4532450000000  0.4968850000000  0.4523280000000 1.0
C      1  0.4554870000000  0.4589910000000  0.5542680000000 1.0
C      1  0.4924580000000  0.4565500000000  0.4513420000000 1.0
C      1  0.5261140000000  0.4548770000000  0.5525200000000 1.0
END
