TITL C-1154826-9507-590 0.021631543069008 125000 -307.686130344247 0 0 60 (C1) n - 1
REM
REM in /home/nfs/bkarasulu/CARBON/AIRSS/Generating-Clusters/AIREBO/Higher-Symm/Only-C60
REM
REM
REM
REM
REM
REM ./C.cell (28575a23ae977d3b5fae324c64b13b57)
REM
REM compiler GCC version 9.2.1 20190827 (Red Hat 9.2.1-1)
REM options -cpp -mtune=generic -march=x86-64 -g -O0 -fpre-include=/usr/include/finclude/math-vector-fortran.h
REM seed -23126084 -1929161619 111945634 146314917 -1596111268 137524166 -1955993768 -470941767 2023662254 684368947 991295860 1584404590 257743324 929250829 898577177 -1763087190 1402820193 1715027783 1868984855 233180277 262216895 -1428274468 734750250 -178446766 1076698213 -1608497567 -1467926238 -1577181519 826845660 -353339898 -2094223105 1205680655 1255387363
REM
CELL 1.54180   50.00000   50.00000   50.00000   90.00000   90.00000   90.00000
LATT -1
SFAC C  
C      1  0.5126450000000  0.4873280000000  0.4241670000000 1.0
C      1  0.5161410000000  0.5750800000000  0.5303830000000 1.0
C      1  0.5091430000000  0.4448920000000  0.5476850000000 1.0
C      1  0.4852200000000  0.4866400000000  0.4235690000000 1.0
C      1  0.4890480000000  0.5802220000000  0.5304470000000 1.0
C      1  0.4810670000000  0.4414420000000  0.5475880000000 1.0
C      1  0.5186310000000  0.4210200000000  0.4869520000000 1.0
C      1  0.5078710000000  0.5516140000000  0.4428470000000 1.0
C      1  0.5197570000000  0.5312910000000  0.5772970000000 1.0
C      1  0.4953080000000  0.4075410000000  0.4963000000000 1.0
C      1  0.4786570000000  0.5560720000000  0.4397480000000 1.0
C      1  0.4936840000000  0.5420850000000  0.5820190000000 1.0
C      1  0.4545100000000  0.5211690000000  0.4969190000000 1.0
C      1  0.4551150000000  0.4963690000000  0.5201280000000 1.0
C      1  0.4462840000000  0.4657090000000  0.4656520000000 1.0
C      1  0.5492770000000  0.5216160000000  0.5032250000000 1.0
C      1  0.5521110000000  0.4993600000000  0.5284370000000 1.0
C      1  0.5413900000000  0.4739700000000  0.4729250000000 1.0
C      1  0.4751060000000  0.4251720000000  0.5008320000000 1.0
C      1  0.4624130000000  0.5344650000000  0.4275710000000 1.0
C      1  0.4763580000000  0.5356580000000  0.5622920000000 1.0
C      1  0.5418910000000  0.4105020000000  0.4776050000000 1.0
C      1  0.5248600000000  0.5301170000000  0.4315140000000 1.0
C      1  0.5414680000000  0.5304320000000  0.5935960000000 1.0
C      1  0.4859860000000  0.5333970000000  0.4984810000000 1.0
C      1  0.4868950000000  0.4852950000000  0.5253220000000 1.0
C      1  0.4764960000000  0.4812120000000  0.4674050000000 1.0
C      1  0.5182330000000  0.5332100000000  0.4997780000000 1.0
C      1  0.5194700000000  0.4910790000000  0.5334170000000 1.0
C      1  0.5089850000000  0.4783710000000  0.4715080000000 1.0
C      1  0.4802400000000  0.5336070000000  0.4652310000000 1.0
C      1  0.4867730000000  0.5111820000000  0.5433000000000 1.0
C      1  0.4800370000000  0.4540780000000  0.4836180000000 1.0
C      1  0.5133770000000  0.5314180000000  0.4696410000000 1.0
C      1  0.5187320000000  0.5216350000000  0.5483140000000 1.0
C      1  0.5129540000000  0.4512680000000  0.4916600000000 1.0
C      1  0.5629090000000  0.5154860000000  0.4787110000000 1.0
C      1  0.5712350000000  0.5218620000000  0.5361790000000 1.0
C      1  0.5537530000000  0.4626000000000  0.4945150000000 1.0
C      1  0.4414300000000  0.5159220000000  0.4726140000000 1.0
C      1  0.4378370000000  0.5191800000000  0.5325670000000 1.0
C      1  0.4333820000000  0.4585100000000  0.4897510000000 1.0
C      1  0.4450350000000  0.5485500000000  0.5191590000000 1.0
C      1  0.4435250000000  0.4649880000000  0.5188960000000 1.0
C      1  0.4391420000000  0.4938170000000  0.4487550000000 1.0
C      1  0.5590410000000  0.5481550000000  0.5266680000000 1.0
C      1  0.5510870000000  0.4679340000000  0.5261850000000 1.0
C      1  0.5555070000000  0.4953510000000  0.4539440000000 1.0
C      1  0.4703910000000  0.5071480000000  0.4462850000000 1.0
C      1  0.4735050000000  0.5366460000000  0.5283610000000 1.0
C      1  0.4761990000000  0.4557110000000  0.5173710000000 1.0
C      1  0.5225030000000  0.5033180000000  0.4528130000000 1.0
C      1  0.5265220000000  0.5428700000000  0.5280710000000 1.0
C      1  0.5187860000000  0.4604460000000  0.5190350000000 1.0
C      1  0.5392220000000  0.4467070000000  0.5499930000000 1.0
C      1  0.5434840000000  0.4868500000000  0.4232940000000 1.0
C      1  0.5458750000000  0.5775310000000  0.5280450000000 1.0
C      1  0.4512710000000  0.4480320000000  0.5474680000000 1.0
C      1  0.4588020000000  0.4720370000000  0.4315630000000 1.0
C      1  0.4634280000000  0.5748310000000  0.5223840000000 1.0
END
