TITL C-1154804-8633-394 242.676751734052 125000 -336.176668052956 0 0 60 (C1) n - 1
REM
REM in /home/nfs/bkarasulu/CARBON/AIRSS/Generating-Clusters/AIREBO/Higher-Symm/Only-C60
REM
REM
REM
REM
REM
REM ./C.cell (28575a23ae977d3b5fae324c64b13b57)
REM
REM compiler GCC version 9.2.1 20190827 (Red Hat 9.2.1-1)
REM options -cpp -mtune=generic -march=x86-64 -g -O0 -fpre-include=/usr/include/finclude/math-vector-fortran.h
REM seed -1243517245 453116835 670684448 -1293885255 -1995643019 -756883476 -1316062832 -449612674 -250327649 1794086913 -1370527482 820484494 1951626234 -423260801 1016457758 245496023 1844419325 -506405884 573470426 -62031466 -1350082914 93453736 -1524397237 794167986 1096548183 1591533594 983423790 1255199489 -1343193664 -1907160874 1437688742 -573605715 1705552231
REM
CELL 1.54180   50.00000   50.00000   50.00000   90.00000   90.00000   90.00000
LATT -1
SFAC C  
C      1  0.5802630000000  0.5058200000000  0.5177710000000 1.0
C      1  0.5067940000000  0.5100240000000  0.5741390000000 1.0
C      1  0.4241770000000  0.5087990000000  0.5317690000000 1.0
C      1  0.4429670000000  0.5082000000000  0.4427010000000 1.0
C      1  0.5361480000000  0.5133360000000  0.4333610000000 1.0
C      1  0.5762680000000  0.4825460000000  0.5025820000000 1.0
C      1  0.5160940000000  0.4830960000000  0.5707300000000 1.0
C      1  0.4436550000000  0.4888020000000  0.5425190000000 1.0
C      1  0.4364930000000  0.4857530000000  0.4621230000000 1.0
C      1  0.5264920000000  0.4863920000000  0.4317820000000 1.0
C      1  0.4483570000000  0.5516140000000  0.4661220000000 1.0
C      1  0.5127060000000  0.5596190000000  0.4482530000000 1.0
C      1  0.5547090000000  0.5476550000000  0.5019900000000 1.0
C      1  0.5212050000000  0.5554890000000  0.5501830000000 1.0
C      1  0.4447460000000  0.5519140000000  0.5374230000000 1.0
C      1  0.4732740000000  0.4514070000000  0.4612720000000 1.0
C      1  0.5446370000000  0.4527140000000  0.4618890000000 1.0
C      1  0.5488470000000  0.4462230000000  0.5166390000000 1.0
C      1  0.4880830000000  0.4497340000000  0.5513580000000 1.0
C      1  0.4574610000000  0.4512270000000  0.5126190000000 1.0
C      1  0.4151880000000  0.4936230000000  0.4846550000000 1.0
C      1  0.4762330000000  0.4788980000000  0.4223630000000 1.0
C      1  0.5733780000000  0.4883950000000  0.4525470000000 1.0
C      1  0.5677170000000  0.4762850000000  0.5549800000000 1.0
C      1  0.4598010000000  0.4998720000000  0.5673450000000 1.0
C      1  0.4248880000000  0.5100510000000  0.5040140000000 1.0
C      1  0.4685890000000  0.5054530000000  0.4327920000000 1.0
C      1  0.5564770000000  0.5138100000000  0.4530220000000 1.0
C      1  0.5682130000000  0.5032160000000  0.5427610000000 1.0
C      1  0.4819110000000  0.5143730000000  0.5622240000000 1.0
C      1  0.5553690000000  0.4858360000000  0.4814410000000 1.0
C      1  0.5351250000000  0.4811920000000  0.5461710000000 1.0
C      1  0.4746820000000  0.4925940000000  0.5295780000000 1.0
C      1  0.4565140000000  0.4932990000000  0.4863360000000 1.0
C      1  0.4995910000000  0.4842450000000  0.4460780000000 1.0
C      1  0.5442040000000  0.5162750000000  0.4802530000000 1.0
C      1  0.5393010000000  0.5135490000000  0.5415290000000 1.0
C      1  0.4863780000000  0.5224710000000  0.5314540000000 1.0
C      1  0.4519640000000  0.5232560000000  0.4947960000000 1.0
C      1  0.4920380000000  0.5165300000000  0.4515040000000 1.0
C      1  0.5000190000000  0.4674780000000  0.4732570000000 1.0
C      1  0.5287650000000  0.4669920000000  0.4873690000000 1.0
C      1  0.5230370000000  0.4665880000000  0.5204140000000 1.0
C      1  0.4923030000000  0.4663300000000  0.5249130000000 1.0
C      1  0.4762390000000  0.4718530000000  0.4954520000000 1.0
C      1  0.4732560000000  0.5479550000000  0.4863430000000 1.0
C      1  0.5001710000000  0.5406940000000  0.4740130000000 1.0
C      1  0.5237290000000  0.5355770000000  0.4948230000000 1.0
C      1  0.5155150000000  0.5318370000000  0.5259260000000 1.0
C      1  0.4663700000000  0.5406740000000  0.5183770000000 1.0
C      1  0.5255310000000  0.5294930000000  0.5645220000000 1.0
C      1  0.4245150000000  0.5342390000000  0.5445150000000 1.0
C      1  0.4354380000000  0.5343030000000  0.4495530000000 1.0
C      1  0.5156530000000  0.5321310000000  0.4382230000000 1.0
C      1  0.5768750000000  0.5316930000000  0.5064110000000 1.0
C      1  0.5002940000000  0.4599700000000  0.5740220000000 1.0
C      1  0.4436070000000  0.4589370000000  0.5322350000000 1.0
C      1  0.4499350000000  0.4582910000000  0.4554630000000 1.0
C      1  0.5435460000000  0.4644490000000  0.4368540000000 1.0
C      1  0.5742650000000  0.4569270000000  0.5142430000000 1.0
END
