TITL C-1154823-9327-692 0.00206019390003296 125000 -316.302707793275 0 0 60 (C1) n - 1
REM
REM in /home/nfs/bkarasulu/CARBON/AIRSS/Generating-Clusters/AIREBO/Higher-Symm/Only-C60
REM
REM
REM
REM
REM
REM ./C.cell (28575a23ae977d3b5fae324c64b13b57)
REM
REM compiler GCC version 9.2.1 20190827 (Red Hat 9.2.1-1)
REM options -cpp -mtune=generic -march=x86-64 -g -O0 -fpre-include=/usr/include/finclude/math-vector-fortran.h
REM seed -793039028 1287405648 554608197 684137692 476977129 208782461 927896673 2046733101 -1662207461 241085950 1399145469 -170531047 1528515741 -530848645 1920957461 1670809358 -1333283567 -362979527 305435659 1402653705 -1546789408 -952664661 1201011479 426068995 -1846431678 1766664690 -1911008312 -552717375 -965460257 -2088714129 89953181 337103720 848484380
REM
CELL 1.54180   50.00000   50.00000   50.00000   90.00000   90.00000   90.00000
LATT -1
SFAC C  
C      1  0.4912120000000  0.4273540000000  0.4615510000000 1.0
C      1  0.4987830000000  0.4944390000000  0.4172250000000 1.0
C      1  0.5053520000000  0.5583340000000  0.4502740000000 1.0
C      1  0.5030970000000  0.5767680000000  0.5306960000000 1.0
C      1  0.4848090000000  0.5014020000000  0.5885390000000 1.0
C      1  0.5058030000000  0.4357740000000  0.5544250000000 1.0
C      1  0.4468090000000  0.5239950000000  0.5189370000000 1.0
C      1  0.5544120000000  0.5022190000000  0.5248630000000 1.0
C      1  0.4591210000000  0.4759630000000  0.5131450000000 1.0
C      1  0.5512010000000  0.4784430000000  0.4772930000000 1.0
C      1  0.4468860000000  0.5035630000000  0.4660700000000 1.0
C      1  0.5440820000000  0.5274540000000  0.4701050000000 1.0
C      1  0.5409130000000  0.4457850000000  0.4978070000000 1.0
C      1  0.4588180000000  0.4768260000000  0.4482090000000 1.0
C      1  0.5384610000000  0.5264260000000  0.4366630000000 1.0
C      1  0.4639840000000  0.5541120000000  0.4990370000000 1.0
C      1  0.5326270000000  0.5256190000000  0.5576010000000 1.0
C      1  0.4558220000000  0.4649600000000  0.5508880000000 1.0
C      1  0.4903110000000  0.5218460000000  0.4233890000000 1.0
C      1  0.5157040000000  0.5670210000000  0.4766480000000 1.0
C      1  0.5049300000000  0.5701820000000  0.5576800000000 1.0
C      1  0.4849700000000  0.4764230000000  0.5925490000000 1.0
C      1  0.5141850000000  0.4181940000000  0.5361050000000 1.0
C      1  0.4884090000000  0.4379430000000  0.4387230000000 1.0
C      1  0.5386630000000  0.4761000000000  0.5402660000000 1.0
C      1  0.4692820000000  0.4479280000000  0.4967360000000 1.0
C      1  0.5442050000000  0.4699430000000  0.4442220000000 1.0
C      1  0.4577570000000  0.5408460000000  0.4603540000000 1.0
C      1  0.5314770000000  0.5449000000000  0.5141220000000 1.0
C      1  0.4644490000000  0.5199360000000  0.5486370000000 1.0
C      1  0.5090860000000  0.5431420000000  0.5636890000000 1.0
C      1  0.4842190000000  0.4587000000000  0.5679220000000 1.0
C      1  0.5205800000000  0.4275690000000  0.5108570000000 1.0
C      1  0.4846800000000  0.4685460000000  0.4341780000000 1.0
C      1  0.5132940000000  0.5386570000000  0.4304870000000 1.0
C      1  0.4929060000000  0.5719630000000  0.4978660000000 1.0
C      1  0.4948550000000  0.4746650000000  0.4723680000000 1.0
C      1  0.5190150000000  0.5080380000000  0.4661760000000 1.0
C      1  0.4973680000000  0.5186340000000  0.4795580000000 1.0
C      1  0.4958530000000  0.5172930000000  0.5069420000000 1.0
C      1  0.4947890000000  0.4962020000000  0.5291610000000 1.0
C      1  0.5009470000000  0.4752640000000  0.5043870000000 1.0
C      1  0.5131170000000  0.4826890000000  0.4463480000000 1.0
C      1  0.4862960000000  0.5418270000000  0.4667060000000 1.0
C      1  0.4977690000000  0.5454440000000  0.5185840000000 1.0
C      1  0.4949160000000  0.5125870000000  0.5589680000000 1.0
C      1  0.5058010000000  0.4679140000000  0.5433000000000 1.0
C      1  0.5021200000000  0.4453260000000  0.4882780000000 1.0
C      1  0.4665070000000  0.5481670000000  0.5320200000000 1.0
C      1  0.5258870000000  0.4966320000000  0.5625730000000 1.0
C      1  0.4787640000000  0.4530430000000  0.5288040000000 1.0
C      1  0.5289640000000  0.4540040000000  0.4692780000000 1.0
C      1  0.4697770000000  0.5140790000000  0.4431480000000 1.0
C      1  0.5366830000000  0.5509220000000  0.4871170000000 1.0
C      1  0.5445980000000  0.5274310000000  0.5317400000000 1.0
C      1  0.4471640000000  0.4944250000000  0.5361060000000 1.0
C      1  0.5539560000000  0.4725600000000  0.5100990000000 1.0
C      1  0.4540110000000  0.4736690000000  0.4806220000000 1.0
C      1  0.5555490000000  0.5010270000000  0.4520470000000 1.0
C      1  0.4439950000000  0.5288840000000  0.4879140000000 1.0
END
