TITL C-1154803-8277-610 -0.00295662824345424 125000 -314.968833160053 0 0 60 (C1) n - 1
REM
REM in /home/nfs/bkarasulu/CARBON/AIRSS/Generating-Clusters/AIREBO/Higher-Symm/Only-C60
REM
REM
REM
REM
REM
REM ./C.cell (28575a23ae977d3b5fae324c64b13b57)
REM
REM compiler GCC version 9.2.1 20190827 (Red Hat 9.2.1-1)
REM options -cpp -mtune=generic -march=x86-64 -g -O0 -fpre-include=/usr/include/finclude/math-vector-fortran.h
REM seed 1685586289 -128054767 1096900645 -1845995686 1102444669 1598510099 1275603493 -1783112239 -351675739 1402189974 1126493997 253080403 136306853 1902327162 -899006140 -1351588452 -322790889 1940431122 -1354370357 -1296178265 -599579988 423009136 261813283 -238864624 -1133762179 -1663455047 1191218036 1234192148 -1370639919 -161819018 -1209884012 527993289 356300762
REM
CELL 1.54180   50.00000   50.00000   50.00000   90.00000   90.00000   90.00000
LATT -1
SFAC C  
C      1  0.4430690000000  0.4763080000000  0.4873830000000 1.0
C      1  0.4548250000000  0.5000460000000  0.4660370000000 1.0
C      1  0.4578380000000  0.5277760000000  0.4772890000000 1.0
C      1  0.4536940000000  0.5390470000000  0.5048030000000 1.0
C      1  0.4514800000000  0.5280230000000  0.5317800000000 1.0
C      1  0.4505160000000  0.4945060000000  0.5374940000000 1.0
C      1  0.4473500000000  0.4653280000000  0.5202910000000 1.0
C      1  0.5380890000000  0.5659720000000  0.5063160000000 1.0
C      1  0.5471130000000  0.5358750000000  0.5543530000000 1.0
C      1  0.5474600000000  0.4827280000000  0.5661080000000 1.0
C      1  0.5569520000000  0.4418710000000  0.5228540000000 1.0
C      1  0.5499850000000  0.4429360000000  0.4664550000000 1.0
C      1  0.5436770000000  0.4846960000000  0.4331760000000 1.0
C      1  0.5527810000000  0.5385290000000  0.4567020000000 1.0
C      1  0.5030020000000  0.4994010000000  0.5285720000000 1.0
C      1  0.4977290000000  0.4545750000000  0.5109280000000 1.0
C      1  0.4744540000000  0.4658430000000  0.4896670000000 1.0
C      1  0.5094620000000  0.4891010000000  0.4543000000000 1.0
C      1  0.5024850000000  0.5094560000000  0.4794720000000 1.0
C      1  0.5122310000000  0.5369470000000  0.4969710000000 1.0
C      1  0.4968870000000  0.5329190000000  0.5270610000000 1.0
C      1  0.4803180000000  0.4964460000000  0.5511270000000 1.0
C      1  0.4674950000000  0.4471890000000  0.5246140000000 1.0
C      1  0.4906030000000  0.4449370000000  0.4728970000000 1.0
C      1  0.4761790000000  0.4936420000000  0.4488630000000 1.0
C      1  0.4845390000000  0.5340220000000  0.4691030000000 1.0
C      1  0.4674470000000  0.5645130000000  0.5077660000000 1.0
C      1  0.4651910000000  0.5420830000000  0.5508600000000 1.0
C      1  0.4978160000000  0.4224720000000  0.4870970000000 1.0
C      1  0.4887200000000  0.4526710000000  0.4245420000000 1.0
C      1  0.4919880000000  0.5243030000000  0.4083020000000 1.0
C      1  0.4987930000000  0.5831960000000  0.4702600000000 1.0
C      1  0.4833610000000  0.5784520000000  0.5529090000000 1.0
C      1  0.4848120000000  0.5144080000000  0.5718850000000 1.0
C      1  0.4890440000000  0.4339750000000  0.5430890000000 1.0
C      1  0.5538680000000  0.5150330000000  0.4774230000000 1.0
C      1  0.5433560000000  0.5346630000000  0.5024100000000 1.0
C      1  0.5510980000000  0.5199540000000  0.5298800000000 1.0
C      1  0.5339830000000  0.4875980000000  0.5325700000000 1.0
C      1  0.5534760000000  0.4700960000000  0.5108910000000 1.0
C      1  0.5512720000000  0.4659130000000  0.4803980000000 1.0
C      1  0.5419170000000  0.4894950000000  0.4647300000000 1.0
C      1  0.5316730000000  0.5510550000000  0.4516320000000 1.0
C      1  0.5199010000000  0.5769220000000  0.5193920000000 1.0
C      1  0.5275150000000  0.5464040000000  0.5659260000000 1.0
C      1  0.5321130000000  0.4607660000000  0.5620770000000 1.0
C      1  0.5402130000000  0.4231780000000  0.5220780000000 1.0
C      1  0.5317570000000  0.4413840000000  0.4461340000000 1.0
C      1  0.5244160000000  0.4869510000000  0.4173110000000 1.0
C      1  0.4921080000000  0.5665430000000  0.5288450000000 1.0
C      1  0.4979110000000  0.5419280000000  0.5598320000000 1.0
C      1  0.5125630000000  0.4617680000000  0.5381180000000 1.0
C      1  0.5114000000000  0.4238240000000  0.5157610000000 1.0
C      1  0.5040780000000  0.4560680000000  0.4481440000000 1.0
C      1  0.4990150000000  0.5043810000000  0.4257530000000 1.0
C      1  0.5068760000000  0.5566230000000  0.4695960000000 1.0
C      1  0.5622980000000  0.5005180000000  0.5070060000000 1.0
C      1  0.4271190000000  0.5024270000000  0.5127460000000 1.0
C      1  0.4904900000000  0.4927160000000  0.5013080000000 1.0
C      1  0.4601880000000  0.4995950000000  0.5052990000000 1.0
END
