TITL C-1154810-7815-248 0.00140849437887535 125000 -336.470866925007 0 0 60 (C1) n - 1
REM
REM in /home/nfs/bkarasulu/CARBON/AIRSS/Generating-Clusters/AIREBO/Higher-Symm/Only-C60
REM
REM
REM
REM
REM
REM ./C.cell (28575a23ae977d3b5fae324c64b13b57)
REM
REM compiler GCC version 9.2.1 20190827 (Red Hat 9.2.1-1)
REM options -cpp -mtune=generic -march=x86-64 -g -O0 -fpre-include=/usr/include/finclude/math-vector-fortran.h
REM seed 1552709756 1235452196 494228057 1075558422 -1337515668 640891111 454431816 -1123385101 939423620 -1915491909 511990352 -111496566 -509071161 342289585 -878305651 706100759 739121084 846469569 972756661 1986686422 1312456200 -907669946 -808608560 1803813846 -1678191448 993035702 210292156 -1421228065 1674472313 1305049865 687384266 2021897101 1626473926
REM
CELL 1.54180   50.00000   50.00000   50.00000   90.00000   90.00000   90.00000
LATT -1
SFAC C  
C      1  0.4965090000000  0.5432020000000  0.5210250000000 1.0
C      1  0.5016760000000  0.4633320000000  0.5295240000000 1.0
C      1  0.4996260000000  0.4941520000000  0.4542520000000 1.0
C      1  0.5001710000000  0.5388100000000  0.4812830000000 1.0
C      1  0.4953270000000  0.4554550000000  0.4780930000000 1.0
C      1  0.4943720000000  0.4974260000000  0.5488560000000 1.0
C      1  0.4188320000000  0.4346330000000  0.4857790000000 1.0
C      1  0.4312130000000  0.5419840000000  0.4428750000000 1.0
C      1  0.4200320000000  0.5247210000000  0.5620800000000 1.0
C      1  0.4256760000000  0.4366150000000  0.5158420000000 1.0
C      1  0.4210750000000  0.5505220000000  0.5453690000000 1.0
C      1  0.4295810000000  0.5130350000000  0.4322170000000 1.0
C      1  0.5089300000000  0.4803970000000  0.4281900000000 1.0
C      1  0.5084740000000  0.5718350000000  0.5184550000000 1.0
C      1  0.5138520000000  0.4496720000000  0.5546980000000 1.0
C      1  0.5098580000000  0.4787480000000  0.5677480000000 1.0
C      1  0.5080570000000  0.5672370000000  0.4869950000000 1.0
C      1  0.5113800000000  0.4563950000000  0.4481050000000 1.0
C      1  0.5260660000000  0.5217980000000  0.4853220000000 1.0
C      1  0.5186990000000  0.5000530000000  0.5305100000000 1.0
C      1  0.5221070000000  0.4706730000000  0.4850550000000 1.0
C      1  0.5189590000000  0.5246990000000  0.5158130000000 1.0
C      1  0.5256550000000  0.4976710000000  0.4698110000000 1.0
C      1  0.5258220000000  0.4741810000000  0.5134100000000 1.0
C      1  0.5435480000000  0.5176700000000  0.4402550000000 1.0
C      1  0.5440130000000  0.5410390000000  0.5421770000000 1.0
C      1  0.5476290000000  0.4407860000000  0.5130260000000 1.0
C      1  0.5444270000000  0.5155260000000  0.5567310000000 1.0
C      1  0.5441760000000  0.5423390000000  0.4563000000000 1.0
C      1  0.5480440000000  0.4404040000000  0.4833910000000 1.0
C      1  0.5245860000000  0.4312990000000  0.4667050000000 1.0
C      1  0.5217810000000  0.5612920000000  0.4564610000000 1.0
C      1  0.5226930000000  0.5081500000000  0.5748920000000 1.0
C      1  0.5247090000000  0.4307960000000  0.5285750000000 1.0
C      1  0.5221190000000  0.5598500000000  0.5466570000000 1.0
C      1  0.5199660000000  0.5113090000000  0.4245350000000 1.0
C      1  0.4499620000000  0.5095680000000  0.4560670000000 1.0
C      1  0.4444630000000  0.5339220000000  0.5321400000000 1.0
C      1  0.4499580000000  0.4551980000000  0.5169390000000 1.0
C      1  0.4392320000000  0.5055960000000  0.5477990000000 1.0
C      1  0.4471080000000  0.5391350000000  0.4690090000000 1.0
C      1  0.4426880000000  0.4550770000000  0.4850750000000 1.0
C      1  0.5092960000000  0.5557270000000  0.5718260000000 1.0
C      1  0.5063380000000  0.4156440000000  0.5125610000000 1.0
C      1  0.5049050000000  0.5346750000000  0.4179750000000 1.0
C      1  0.5058290000000  0.5584620000000  0.4327700000000 1.0
C      1  0.5010010000000  0.4237440000000  0.4860030000000 1.0
C      1  0.5093110000000  0.5311480000000  0.5852570000000 1.0
C      1  0.5501970000000  0.4911480000000  0.5399270000000 1.0
C      1  0.5517420000000  0.4676400000000  0.4686340000000 1.0
C      1  0.5557260000000  0.5383500000000  0.4838630000000 1.0
C      1  0.5552880000000  0.4930410000000  0.4537920000000 1.0
C      1  0.5571540000000  0.4671100000000  0.5245620000000 1.0
C      1  0.5496310000000  0.5390290000000  0.5125230000000 1.0
C      1  0.4748660000000  0.4739960000000  0.5210550000000 1.0
C      1  0.4743690000000  0.4959000000000  0.4703920000000 1.0
C      1  0.4705560000000  0.5294470000000  0.5150820000000 1.0
C      1  0.4709960000000  0.4709510000000  0.4872940000000 1.0
C      1  0.4676630000000  0.5016910000000  0.5337370000000 1.0
C      1  0.4720800000000  0.5260960000000  0.4847060000000 1.0
END
