TITL C-1154802-8274-335 -0.00016060835412654 125000 -331.050244367159 0 0 60 (C1) n - 1
REM
REM in /home/nfs/bkarasulu/CARBON/AIRSS/Generating-Clusters/AIREBO/Higher-Symm/Only-C60
REM
REM
REM
REM
REM
REM ./C.cell (28575a23ae977d3b5fae324c64b13b57)
REM
REM compiler GCC version 9.2.1 20190827 (Red Hat 9.2.1-1)
REM options -cpp -mtune=generic -march=x86-64 -g -O0 -fpre-include=/usr/include/finclude/math-vector-fortran.h
REM seed -1445637332 425425192 767721558 -1481463838 1378723282 56443591 333318625 -488733298 1392778318 2046829669 -1455656962 -1787381201 663351211 1543626946 -625508729 1289815517 398702642 1980684772 -173057168 -2017193430 -736481275 1355305522 1295657293 -772416511 -705504889 -1579430680 -271693267 -1166280775 1921656644 1628648446 876230411 520796358 1228773892
REM
CELL 1.54180   50.00000   50.00000   50.00000   90.00000   90.00000   90.00000
LATT -1
SFAC C  
C      1  0.4423520000000  0.5069180000000  0.4534770000000 1.0
C      1  0.5560680000000  0.5041590000000  0.4538250000000 1.0
C      1  0.5185210000000  0.4469180000000  0.5182100000000 1.0
C      1  0.4855990000000  0.4447070000000  0.5235790000000 1.0
C      1  0.5664360000000  0.5397970000000  0.4823460000000 1.0
C      1  0.4343760000000  0.5380150000000  0.4887320000000 1.0
C      1  0.5162290000000  0.4954330000000  0.5112700000000 1.0
C      1  0.4855560000000  0.4994360000000  0.5127040000000 1.0
C      1  0.5160080000000  0.4781930000000  0.4686040000000 1.0
C      1  0.4852350000000  0.4753530000000  0.4703690000000 1.0
C      1  0.4644950000000  0.4993500000000  0.4366180000000 1.0
C      1  0.5335470000000  0.4968740000000  0.4378900000000 1.0
C      1  0.4538430000000  0.4555810000000  0.5290760000000 1.0
C      1  0.5439830000000  0.4585840000000  0.5306230000000 1.0
C      1  0.4496950000000  0.4609390000000  0.5574430000000 1.0
C      1  0.5485870000000  0.4595210000000  0.5592600000000 1.0
C      1  0.4728310000000  0.5412870000000  0.4536300000000 1.0
C      1  0.5292960000000  0.5408940000000  0.4479760000000 1.0
C      1  0.5280080000000  0.4973940000000  0.5395940000000 1.0
C      1  0.4671590000000  0.4919570000000  0.5387370000000 1.0
C      1  0.5140400000000  0.5193590000000  0.4349380000000 1.0
C      1  0.4850970000000  0.5209550000000  0.4362550000000 1.0
C      1  0.5354250000000  0.4822100000000  0.5757880000000 1.0
C      1  0.4583010000000  0.4805800000000  0.5758660000000 1.0
C      1  0.5255580000000  0.4690950000000  0.4400910000000 1.0
C      1  0.4739530000000  0.4733760000000  0.4424040000000 1.0
C      1  0.5778320000000  0.4670790000000  0.4750970000000 1.0
C      1  0.4190700000000  0.4673210000000  0.4697350000000 1.0
C      1  0.5305060000000  0.5050220000000  0.4845630000000 1.0
C      1  0.4678710000000  0.5005520000000  0.4841840000000 1.0
C      1  0.5810510000000  0.5165460000000  0.4925240000000 1.0
C      1  0.4189410000000  0.5149240000000  0.4931670000000 1.0
C      1  0.5578090000000  0.5330360000000  0.4559020000000 1.0
C      1  0.4424940000000  0.5360020000000  0.4605170000000 1.0
C      1  0.5441040000000  0.5353370000000  0.5067960000000 1.0
C      1  0.4580590000000  0.5434820000000  0.5125880000000 1.0
C      1  0.5595260000000  0.5034010000000  0.5363120000000 1.0
C      1  0.4382750000000  0.5005090000000  0.5299600000000 1.0
C      1  0.5628380000000  0.5306650000000  0.5323280000000 1.0
C      1  0.4345100000000  0.5271760000000  0.5278110000000 1.0
C      1  0.4912590000000  0.5268850000000  0.5575990000000 1.0
C      1  0.5201660000000  0.5270720000000  0.5652060000000 1.0
C      1  0.5121160000000  0.4752670000000  0.5562150000000 1.0
C      1  0.4873620000000  0.4683670000000  0.5463350000000 1.0
C      1  0.5611280000000  0.4902100000000  0.4844320000000 1.0
C      1  0.4362440000000  0.4883750000000  0.4813340000000 1.0
C      1  0.5100280000000  0.5641560000000  0.4862370000000 1.0
C      1  0.4853490000000  0.5611490000000  0.4898150000000 1.0
C      1  0.4418150000000  0.4758080000000  0.5124630000000 1.0
C      1  0.5562680000000  0.4806560000000  0.5168180000000 1.0
C      1  0.5265460000000  0.5385440000000  0.4800440000000 1.0
C      1  0.4734700000000  0.5310210000000  0.4849690000000 1.0
C      1  0.5210950000000  0.5296390000000  0.5313030000000 1.0
C      1  0.4874630000000  0.5312600000000  0.5245200000000 1.0
C      1  0.4838520000000  0.4525660000000  0.4266030000000 1.0
C      1  0.5113860000000  0.4498710000000  0.4260680000000 1.0
C      1  0.5338050000000  0.5097820000000  0.5829010000000 1.0
C      1  0.4738100000000  0.5060740000000  0.5668140000000 1.0
C      1  0.4805010000000  0.4673340000000  0.5017480000000 1.0
C      1  0.5232540000000  0.4680260000000  0.4977890000000 1.0
END
