TITL C-1154816-9297-170 -0.00290475873715363 125000 -325.094396231171 0 0 60 (C1) n - 1
REM
REM in /home/nfs/bkarasulu/CARBON/AIRSS/Generating-Clusters/AIREBO/Higher-Symm/Only-C60
REM
REM
REM
REM
REM
REM ./C.cell (28575a23ae977d3b5fae324c64b13b57)
REM
REM compiler GCC version 9.2.1 20190827 (Red Hat 9.2.1-1)
REM options -cpp -mtune=generic -march=x86-64 -g -O0 -fpre-include=/usr/include/finclude/math-vector-fortran.h
REM seed -2144632845 -1438923631 512706250 1558397256 1491370826 -175529759 573306358 -542608529 1390653609 -1830412919 -1529648719 1925011726 480912540 -592903457 695442112 -272477656 -1601620961 413328458 373524069 -279666474 -331917671 -2058704193 -217770650 176873754 -827510467 -310473820 1742624220 -1539772965 1261749417 1292490252 -226295751 -1658137993 597429521
REM
CELL 1.54180   50.00000   50.00000   50.00000   90.00000   90.00000   90.00000
LATT -1
SFAC C  
C      1  0.4705260000000  0.4981480000000  0.4141130000000 1.0
C      1  0.5218210000000  0.5173390000000  0.4267620000000 1.0
C      1  0.4509080000000  0.4689470000000  0.4441730000000 1.0
C      1  0.5584410000000  0.5243660000000  0.4530840000000 1.0
C      1  0.4429720000000  0.5030490000000  0.5274330000000 1.0
C      1  0.5558200000000  0.4961580000000  0.5249820000000 1.0
C      1  0.4594620000000  0.5638780000000  0.5254670000000 1.0
C      1  0.5398220000000  0.4349420000000  0.5263720000000 1.0
C      1  0.4466290000000  0.5414640000000  0.4664670000000 1.0
C      1  0.5553630000000  0.4507160000000  0.4684580000000 1.0
C      1  0.4987370000000  0.4752480000000  0.4528650000000 1.0
C      1  0.4997970000000  0.5272680000000  0.4544350000000 1.0
C      1  0.4601350000000  0.5578030000000  0.4920590000000 1.0
C      1  0.5421400000000  0.4426440000000  0.4956300000000 1.0
C      1  0.4885260000000  0.4790230000000  0.4848410000000 1.0
C      1  0.5105220000000  0.5175520000000  0.4832080000000 1.0
C      1  0.5669250000000  0.4916470000000  0.4957300000000 1.0
C      1  0.4308940000000  0.5099430000000  0.4995850000000 1.0
C      1  0.4913190000000  0.4406880000000  0.5296740000000 1.0
C      1  0.5076080000000  0.5585590000000  0.5272520000000 1.0
C      1  0.4426630000000  0.5131880000000  0.4691210000000 1.0
C      1  0.5610180000000  0.4778890000000  0.4657290000000 1.0
C      1  0.4870520000000  0.5722180000000  0.5074290000000 1.0
C      1  0.5116510000000  0.4277610000000  0.5109330000000 1.0
C      1  0.5087200000000  0.4685510000000  0.5351160000000 1.0
C      1  0.4917890000000  0.5304550000000  0.5343580000000 1.0
C      1  0.4524210000000  0.5049100000000  0.5725300000000 1.0
C      1  0.5500370000000  0.4960190000000  0.5708050000000 1.0
C      1  0.4881290000000  0.5114430000000  0.5081610000000 1.0
C      1  0.5115810000000  0.4868070000000  0.5087060000000 1.0
C      1  0.4983980000000  0.4449340000000  0.4626630000000 1.0
C      1  0.4931970000000  0.5559410000000  0.4575170000000 1.0
C      1  0.4680910000000  0.4772020000000  0.5693880000000 1.0
C      1  0.5343130000000  0.5240250000000  0.5681580000000 1.0
C      1  0.4582650000000  0.4872340000000  0.5987940000000 1.0
C      1  0.5463390000000  0.5146560000000  0.5968420000000 1.0
C      1  0.4774930000000  0.4686150000000  0.5433840000000 1.0
C      1  0.5229650000000  0.5324490000000  0.5429860000000 1.0
C      1  0.5473340000000  0.5298820000000  0.4277920000000 1.0
C      1  0.4526770000000  0.4768170000000  0.4173510000000 1.0
C      1  0.5532430000000  0.4804810000000  0.5480390000000 1.0
C      1  0.4474680000000  0.5195690000000  0.5495690000000 1.0
C      1  0.5621660000000  0.5401590000000  0.4896230000000 1.0
C      1  0.4350710000000  0.4622130000000  0.4876160000000 1.0
C      1  0.4837910000000  0.5037390000000  0.4418490000000 1.0
C      1  0.5221430000000  0.4938440000000  0.4442880000000 1.0
C      1  0.5383420000000  0.4731850000000  0.4977230000000 1.0
C      1  0.4602030000000  0.5275010000000  0.5013220000000 1.0
C      1  0.4643280000000  0.5411080000000  0.5424780000000 1.0
C      1  0.5363530000000  0.4582430000000  0.5431150000000 1.0
C      1  0.5055020000000  0.4293690000000  0.4812480000000 1.0
C      1  0.4930490000000  0.5732310000000  0.4755520000000 1.0
C      1  0.4681410000000  0.4863300000000  0.5194230000000 1.0
C      1  0.5302020000000  0.5133910000000  0.5188790000000 1.0
C      1  0.5798470000000  0.5190550000000  0.4874460000000 1.0
C      1  0.4182390000000  0.4840280000000  0.4859380000000 1.0
C      1  0.5384530000000  0.5029670000000  0.4701630000000 1.0
C      1  0.4639680000000  0.4909320000000  0.4643820000000 1.0
C      1  0.4601790000000  0.4664720000000  0.4956800000000 1.0
C      1  0.5368130000000  0.5338080000000  0.4953160000000 1.0
END
