TITL C-1154803-8277-253 -0.00087851132112668 125000 -316.014473678887 0 0 60 (C1) n - 1
REM
REM in /home/nfs/bkarasulu/CARBON/AIRSS/Generating-Clusters/AIREBO/Higher-Symm/Only-C60
REM
REM
REM
REM
REM
REM ./C.cell (28575a23ae977d3b5fae324c64b13b57)
REM
REM compiler GCC version 9.2.1 20190827 (Red Hat 9.2.1-1)
REM options -cpp -mtune=generic -march=x86-64 -g -O0 -fpre-include=/usr/include/finclude/math-vector-fortran.h
REM seed -272107682 -833301549 1979029500 -1845239916 739103083 1177533937 1888742571 -698976230 -207079081 596252705 1809448698 -781507721 4997011 -1304432396 -964677945 -1911853426 281791080 -1900803600 -1897924594 1391740971 -716647312 1970923024 -1365134298 1145363908 2077183006 1907070775 348538703 1885927222 -1714636552 -1856777693 -1309955381 -753457986 -469707426
REM
CELL 1.54180   50.00000   50.00000   50.00000   90.00000   90.00000   90.00000
LATT -1
SFAC C  
C      1  0.4901330000000  0.5223700000000  0.4987570000000 1.0
C      1  0.5172620000000  0.5077580000000  0.5058850000000 1.0
C      1  0.5125990000000  0.4778620000000  0.4955760000000 1.0
C      1  0.4819510000000  0.4896880000000  0.5014800000000 1.0
C      1  0.5029500000000  0.5620450000000  0.4977730000000 1.0
C      1  0.5649940000000  0.5020540000000  0.4957450000000 1.0
C      1  0.5050260000000  0.4310530000000  0.5103970000000 1.0
C      1  0.4332160000000  0.4967430000000  0.4934450000000 1.0
C      1  0.4528390000000  0.4668350000000  0.5478400000000 1.0
C      1  0.4639490000000  0.5474460000000  0.4505540000000 1.0
C      1  0.5471080000000  0.5324080000000  0.5512840000000 1.0
C      1  0.5342930000000  0.4543220000000  0.4480710000000 1.0
C      1  0.5370140000000  0.4846950000000  0.5456690000000 1.0
C      1  0.4877220000000  0.4604920000000  0.4587390000000 1.0
C      1  0.4634350000000  0.5148040000000  0.5421990000000 1.0
C      1  0.5066260000000  0.5437680000000  0.4693150000000 1.0
C      1  0.4805130000000  0.5433920000000  0.5466850000000 1.0
C      1  0.5450450000000  0.5200890000000  0.4502300000000 1.0
C      1  0.5196870000000  0.4562750000000  0.5473830000000 1.0
C      1  0.4530080000000  0.4813900000000  0.4546990000000 1.0
C      1  0.4856570000000  0.4952380000000  0.5312490000000 1.0
C      1  0.4918720000000  0.5134310000000  0.4689810000000 1.0
C      1  0.5155290000000  0.5040890000000  0.5352200000000 1.0
C      1  0.5036000000000  0.4857960000000  0.4676120000000 1.0
C      1  0.4202320000000  0.4949040000000  0.5217560000000 1.0
C      1  0.4947720000000  0.5817620000000  0.4711430000000 1.0
C      1  0.5790190000000  0.5041390000000  0.5236290000000 1.0
C      1  0.5121990000000  0.4221560000000  0.4810150000000 1.0
C      1  0.5220370000000  0.5546120000000  0.5233430000000 1.0
C      1  0.5558560000000  0.4812120000000  0.4761260000000 1.0
C      1  0.4818140000000  0.4413410000000  0.5218530000000 1.0
C      1  0.4400200000000  0.5197900000000  0.4792560000000 1.0
C      1  0.5599860000000  0.5034720000000  0.5497600000000 1.0
C      1  0.5065930000000  0.4401040000000  0.4547920000000 1.0
C      1  0.4405920000000  0.4960300000000  0.5467850000000 1.0
C      1  0.4927360000000  0.5610880000000  0.4449680000000 1.0
C      1  0.4751770000000  0.5473430000000  0.5035460000000 1.0
C      1  0.5414740000000  0.5215770000000  0.4979440000000 1.0
C      1  0.5259820000000  0.4529430000000  0.5020570000000 1.0
C      1  0.4567600000000  0.4770180000000  0.4944270000000 1.0
C      1  0.4691620000000  0.5631900000000  0.4766760000000 1.0
C      1  0.5601250000000  0.5315520000000  0.5222330000000 1.0
C      1  0.5405140000000  0.4393510000000  0.4750450000000 1.0
C      1  0.4387810000000  0.4674260000000  0.5198220000000 1.0
C      1  0.4626340000000  0.5140010000000  0.4541840000000 1.0
C      1  0.5132110000000  0.5344430000000  0.5494360000000 1.0
C      1  0.5333610000000  0.4881650000000  0.4513340000000 1.0
C      1  0.4867510000000  0.4647810000000  0.5463220000000 1.0
C      1  0.4366000000000  0.5417630000000  0.4958920000000 1.0
C      1  0.5425570000000  0.5610510000000  0.5007770000000 1.0
C      1  0.5643790000000  0.4621560000000  0.4973150000000 1.0
C      1  0.4611510000000  0.4385840000000  0.5036480000000 1.0
C      1  0.4927570000000  0.4884680000000  0.5699990000000 1.0
C      1  0.4856400000000  0.5074650000000  0.4299800000000 1.0
C      1  0.5044880000000  0.5113130000000  0.5728200000000 1.0
C      1  0.5084970000000  0.4953000000000  0.4292200000000 1.0
C      1  0.5376860000000  0.5408120000000  0.4738600000000 1.0
C      1  0.5456720000000  0.4601100000000  0.5255680000000 1.0
C      1  0.4608410000000  0.4543400000000  0.4735080000000 1.0
C      1  0.4539150000000  0.5421950000000  0.5251730000000 1.0
END
