TITL C-1154804-8633-351 0.00111867267841583 125000 -318.047418475315 0 0 60 (C1) n - 1
REM
REM in /home/nfs/bkarasulu/CARBON/AIRSS/Generating-Clusters/AIREBO/Higher-Symm/Only-C60
REM
REM
REM
REM
REM
REM ./C.cell (28575a23ae977d3b5fae324c64b13b57)
REM
REM compiler GCC version 9.2.1 20190827 (Red Hat 9.2.1-1)
REM options -cpp -mtune=generic -march=x86-64 -g -O0 -fpre-include=/usr/include/finclude/math-vector-fortran.h
REM seed -856402269 1783669128 1111315099 -1783672827 635196025 1227609048 535167882 -1369083701 -1743201404 1760982654 521773070 1624473038 1881059903 -767821436 -1728365943 2105629051 424728673 -886662551 1912123668 -2072053068 -1935611653 2002216937 1210893031 195177906 -1557373264 828576713 1773696571 -184836279 118252067 1532422370 -1244269173 865760449 1058704186
REM
CELL 1.54180   50.00000   50.00000   50.00000   90.00000   90.00000   90.00000
LATT -1
SFAC C  
C      1  0.5305570000000  0.4839420000000  0.4397450000000 1.0
C      1  0.5488920000000  0.4816560000000  0.5565390000000 1.0
C      1  0.4311480000000  0.4849780000000  0.5175700000000 1.0
C      1  0.5313430000000  0.5120040000000  0.4343720000000 1.0
C      1  0.5438220000000  0.5106760000000  0.5437550000000 1.0
C      1  0.4316350000000  0.5155540000000  0.5215950000000 1.0
C      1  0.5012260000000  0.4612280000000  0.5202610000000 1.0
C      1  0.4749440000000  0.4528830000000  0.4898450000000 1.0
C      1  0.5225280000000  0.4509200000000  0.4796350000000 1.0
C      1  0.5038400000000  0.5441550000000  0.5253780000000 1.0
C      1  0.4684010000000  0.5497290000000  0.4883200000000 1.0
C      1  0.5240290000000  0.5421820000000  0.4831360000000 1.0
C      1  0.4616510000000  0.5118550000000  0.5361260000000 1.0
C      1  0.4834390000000  0.5180100000000  0.4409430000000 1.0
C      1  0.5568410000000  0.5117090000000  0.5123490000000 1.0
C      1  0.4647390000000  0.4846150000000  0.5547800000000 1.0
C      1  0.4801190000000  0.4900060000000  0.4512200000000 1.0
C      1  0.5692420000000  0.4807690000000  0.5106460000000 1.0
C      1  0.5137080000000  0.5145200000000  0.5499760000000 1.0
C      1  0.4357820000000  0.5273020000000  0.4939330000000 1.0
C      1  0.5460610000000  0.5245060000000  0.4548850000000 1.0
C      1  0.5188450000000  0.4862180000000  0.5630460000000 1.0
C      1  0.4394930000000  0.4770300000000  0.4925740000000 1.0
C      1  0.5466220000000  0.4781200000000  0.4633960000000 1.0
C      1  0.5504610000000  0.4555870000000  0.4975510000000 1.0
C      1  0.4800780000000  0.4575830000000  0.5424810000000 1.0
C      1  0.4714550000000  0.4575290000000  0.4563430000000 1.0
C      1  0.5527120000000  0.5436210000000  0.5013510000000 1.0
C      1  0.4737290000000  0.5418610000000  0.5410040000000 1.0
C      1  0.4678770000000  0.5409130000000  0.4554740000000 1.0
C      1  0.5017530000000  0.4435770000000  0.4535830000000 1.0
C      1  0.5306870000000  0.4458760000000  0.5184390000000 1.0
C      1  0.4674240000000  0.4400920000000  0.5196220000000 1.0
C      1  0.4985870000000  0.5482250000000  0.4623140000000 1.0
C      1  0.5351420000000  0.5563690000000  0.5232930000000 1.0
C      1  0.4623530000000  0.5611600000000  0.5194100000000 1.0
C      1  0.4376440000000  0.4726560000000  0.5411580000000 1.0
C      1  0.5048800000000  0.4722980000000  0.4406280000000 1.0
C      1  0.5686270000000  0.4700500000000  0.5412650000000 1.0
C      1  0.4116260000000  0.5272040000000  0.5371480000000 1.0
C      1  0.5061070000000  0.5225410000000  0.4264310000000 1.0
C      1  0.5735630000000  0.5269550000000  0.5377320000000 1.0
C      1  0.4939760000000  0.4733090000000  0.5681890000000 1.0
C      1  0.4414150000000  0.4598150000000  0.4693660000000 1.0
C      1  0.5717950000000  0.4725810000000  0.4781470000000 1.0
C      1  0.4971610000000  0.5378660000000  0.5641150000000 1.0
C      1  0.4371110000000  0.5376320000000  0.4668430000000 1.0
C      1  0.5615270000000  0.5437190000000  0.4697490000000 1.0
C      1  0.4814000000000  0.5787060000000  0.4989170000000 1.0
C      1  0.5096800000000  0.5731100000000  0.4808990000000 1.0
C      1  0.5102910000000  0.5750680000000  0.5140250000000 1.0
C      1  0.4761670000000  0.4189520000000  0.4944630000000 1.0
C      1  0.5051880000000  0.4218070000000  0.4768030000000 1.0
C      1  0.5046160000000  0.4302790000000  0.5088330000000 1.0
C      1  0.4976460000000  0.4875890000000  0.5048290000000 1.0
C      1  0.4709660000000  0.4864450000000  0.4837810000000 1.0
C      1  0.5215540000000  0.4844260000000  0.4854860000000 1.0
C      1  0.4936000000000  0.5115620000000  0.5243590000000 1.0
C      1  0.4647750000000  0.5174780000000  0.4876620000000 1.0
C      1  0.5375210000000  0.5109920000000  0.4842840000000 1.0
END
