TITL C-1154824-75-693 0.00185768787017728 125000 -337.238398511341 0 0 60 (C1) n - 1
REM
REM in /home/nfs/bkarasulu/CARBON/AIRSS/Generating-Clusters/AIREBO/Higher-Symm/Only-C60
REM
REM
REM
REM
REM
REM ./C.cell (28575a23ae977d3b5fae324c64b13b57)
REM
REM compiler GCC version 9.2.1 20190827 (Red Hat 9.2.1-1)
REM options -cpp -mtune=generic -march=x86-64 -g -O0 -fpre-include=/usr/include/finclude/math-vector-fortran.h
REM seed -858771673 649244399 -133578591 -1464605232 216936744 -249065737 535024502 458995479 -878085660 -3638822 1024803469 1788495360 -1536438855 592904089 236568418 1557628117 -1465226705 -219995303 2127236022 -709631672 683214244 -1254293816 280817263 1246490414 1510905620 -947247089 -881086312 -610686084 -1774676770 -1201926554 629965355 -602920257 -312994396
REM
CELL 1.54180   50.00000   50.00000   50.00000   90.00000   90.00000   90.00000
LATT -1
SFAC C  
C      1  0.4765020000000  0.4258340000000  0.4996920000000 1.0
C      1  0.4685740000000  0.4783680000000  0.5759170000000 1.0
C      1  0.4681540000000  0.5588610000000  0.5467100000000 1.0
C      1  0.4787460000000  0.5653670000000  0.4532050000000 1.0
C      1  0.4661130000000  0.4742800000000  0.4282650000000 1.0
C      1  0.4759980000000  0.5784180000000  0.4999100000000 1.0
C      1  0.4693730000000  0.5268680000000  0.5713050000000 1.0
C      1  0.4723670000000  0.4329570000000  0.5482540000000 1.0
C      1  0.4754900000000  0.4398890000000  0.4623380000000 1.0
C      1  0.4678080000000  0.5289220000000  0.4208590000000 1.0
C      1  0.5410630000000  0.4542000000000  0.5086960000000 1.0
C      1  0.5391790000000  0.4860290000000  0.5501790000000 1.0
C      1  0.5449920000000  0.5403080000000  0.5380180000000 1.0
C      1  0.5328270000000  0.5305700000000  0.4613930000000 1.0
C      1  0.5400320000000  0.4850550000000  0.4388930000000 1.0
C      1  0.5367850000000  0.5421810000000  0.5107080000000 1.0
C      1  0.5474480000000  0.5140970000000  0.5559950000000 1.0
C      1  0.5482000000000  0.4563990000000  0.5356370000000 1.0
C      1  0.5330540000000  0.4694230000000  0.4604550000000 1.0
C      1  0.5436020000000  0.5155250000000  0.4411580000000 1.0
C      1  0.5257620000000  0.4485950000000  0.5537570000000 1.0
C      1  0.5268880000000  0.5309500000000  0.5721480000000 1.0
C      1  0.5236870000000  0.5655030000000  0.4941240000000 1.0
C      1  0.5238510000000  0.5139220000000  0.4168840000000 1.0
C      1  0.5223680000000  0.4416430000000  0.4648040000000 1.0
C      1  0.5253310000000  0.5570820000000  0.5558530000000 1.0
C      1  0.5173490000000  0.4707410000000  0.5713000000000 1.0
C      1  0.5243970000000  0.4344450000000  0.4928710000000 1.0
C      1  0.5202740000000  0.4823800000000  0.4151370000000 1.0
C      1  0.5241360000000  0.5594090000000  0.4653410000000 1.0
C      1  0.4639170000000  0.4504900000000  0.5009830000000 1.0
C      1  0.4560910000000  0.4823670000000  0.5512700000000 1.0
C      1  0.4573190000000  0.5385810000000  0.5216620000000 1.0
C      1  0.4706600000000  0.5401280000000  0.4713650000000 1.0
C      1  0.4589970000000  0.4862650000000  0.4529410000000 1.0
C      1  0.4617190000000  0.5550410000000  0.4960690000000 1.0
C      1  0.4595120000000  0.5125200000000  0.5421510000000 1.0
C      1  0.4631310000000  0.4610920000000  0.5313800000000 1.0
C      1  0.4709490000000  0.4698000000000  0.4761310000000 1.0
C      1  0.4574960000000  0.5177750000000  0.4513570000000 1.0
C      1  0.4929190000000  0.5073910000000  0.5458790000000 1.0
C      1  0.5101390000000  0.5294620000000  0.5046660000000 1.0
C      1  0.4908540000000  0.5138890000000  0.4492620000000 1.0
C      1  0.5045550000000  0.4747670000000  0.4782600000000 1.0
C      1  0.4951280000000  0.4580110000000  0.5276670000000 1.0
C      1  0.5104370000000  0.4861670000000  0.5350680000000 1.0
C      1  0.5145680000000  0.4716330000000  0.5054370000000 1.0
C      1  0.4986690000000  0.4855620000000  0.4485300000000 1.0
C      1  0.5023420000000  0.5277830000000  0.4762400000000 1.0
C      1  0.4904680000000  0.5325550000000  0.5271330000000 1.0
C      1  0.5034210000000  0.4236260000000  0.5086820000000 1.0
C      1  0.4960190000000  0.4855600000000  0.5796810000000 1.0
C      1  0.5005740000000  0.5624410000000  0.5393760000000 1.0
C      1  0.5044100000000  0.5611470000000  0.4432620000000 1.0
C      1  0.4969890000000  0.4625860000000  0.4252380000000 1.0
C      1  0.5024230000000  0.5762600000000  0.5106500000000 1.0
C      1  0.5005910000000  0.5167070000000  0.5765910000000 1.0
C      1  0.5050390000000  0.4285540000000  0.5405530000000 1.0
C      1  0.4991650000000  0.4393760000000  0.4478080000000 1.0
C      1  0.5011470000000  0.5342430000000  0.4248990000000 1.0
END
