TITL C-1154804-8633-667 -0.000837953318042905 125000 -314.559436063315 0 0 60 (C1) n - 1
REM
REM in /home/nfs/bkarasulu/CARBON/AIRSS/Generating-Clusters/AIREBO/Higher-Symm/Only-C60
REM
REM
REM
REM
REM
REM ./C.cell (28575a23ae977d3b5fae324c64b13b57)
REM
REM compiler GCC version 9.2.1 20190827 (Red Hat 9.2.1-1)
REM options -cpp -mtune=generic -march=x86-64 -g -O0 -fpre-include=/usr/include/finclude/math-vector-fortran.h
REM seed -1975123655 -1925518825 -745703029 -284803481 -1170996116 -1795974938 -969626850 -538905529 140370141 757617454 1163446822 -934359942 -1576227872 1570383199 570089167 -909554202 1668991427 1028121806 1324347905 1530863915 1917599160 -1162293812 1485938374 1794554623 1260349381 2078249665 -480412068 492129129 912146605 -823063654 366345900 1487350464 -1479856923
REM
CELL 1.54180   50.00000   50.00000   50.00000   90.00000   90.00000   90.00000
LATT -1
SFAC C  
C      1  0.5542760000000  0.5269460000000  0.4960730000000 1.0
C      1  0.5333910000000  0.4973450000000  0.4753970000000 1.0
C      1  0.5552360000000  0.5069270000000  0.5340850000000 1.0
C      1  0.4674040000000  0.5162600000000  0.5037770000000 1.0
C      1  0.4532990000000  0.4834130000000  0.5215810000000 1.0
C      1  0.4645480000000  0.4820640000000  0.4833090000000 1.0
C      1  0.4997980000000  0.5468990000000  0.4848470000000 1.0
C      1  0.4857390000000  0.4640090000000  0.4654120000000 1.0
C      1  0.4726550000000  0.4824550000000  0.5563810000000 1.0
C      1  0.5064340000000  0.5226810000000  0.5371030000000 1.0
C      1  0.5108750000000  0.4729010000000  0.5188270000000 1.0
C      1  0.5081900000000  0.4982040000000  0.4525620000000 1.0
C      1  0.4821140000000  0.4993450000000  0.4307670000000 1.0
C      1  0.4752280000000  0.4360600000000  0.5349760000000 1.0
C      1  0.4784970000000  0.5511250000000  0.5368290000000 1.0
C      1  0.5164890000000  0.4998560000000  0.5681990000000 1.0
C      1  0.5191110000000  0.4436390000000  0.4713990000000 1.0
C      1  0.5255360000000  0.5530700000000  0.4589460000000 1.0
C      1  0.5076770000000  0.4783990000000  0.4870640000000 1.0
C      1  0.5301120000000  0.5198930000000  0.5195780000000 1.0
C      1  0.5223210000000  0.5265600000000  0.4887200000000 1.0
C      1  0.4780290000000  0.4679710000000  0.5111820000000 1.0
C      1  0.4886150000000  0.5057530000000  0.4793460000000 1.0
C      1  0.4797040000000  0.5030320000000  0.5302390000000 1.0
C      1  0.4876440000000  0.4340910000000  0.4771700000000 1.0
C      1  0.4867760000000  0.5050690000000  0.5694060000000 1.0
C      1  0.4926540000000  0.5506060000000  0.4535970000000 1.0
C      1  0.5045270000000  0.4276600000000  0.5267440000000 1.0
C      1  0.5084460000000  0.5155340000000  0.4166050000000 1.0
C      1  0.5066040000000  0.5542490000000  0.5498840000000 1.0
C      1  0.4610190000000  0.4556740000000  0.5502020000000 1.0
C      1  0.4770890000000  0.5471100000000  0.5059820000000 1.0
C      1  0.4667920000000  0.4763190000000  0.4437880000000 1.0
C      1  0.5226430000000  0.4674250000000  0.4512010000000 1.0
C      1  0.5484480000000  0.5673690000000  0.4716580000000 1.0
C      1  0.5295260000000  0.4866150000000  0.5437530000000 1.0
C      1  0.5594910000000  0.4977640000000  0.4536020000000 1.0
C      1  0.5610080000000  0.4792000000000  0.5207320000000 1.0
C      1  0.5769240000000  0.5512030000000  0.5183510000000 1.0
C      1  0.4295860000000  0.4990490000000  0.5494900000000 1.0
C      1  0.4350710000000  0.4656920000000  0.4788970000000 1.0
C      1  0.4402660000000  0.5338840000000  0.4731160000000 1.0
C      1  0.4797370000000  0.5323820000000  0.4385530000000 1.0
C      1  0.4746180000000  0.4371070000000  0.5023280000000 1.0
C      1  0.4764510000000  0.5313160000000  0.5620340000000 1.0
C      1  0.5169740000000  0.5311730000000  0.5682960000000 1.0
C      1  0.5160710000000  0.4430630000000  0.5037200000000 1.0
C      1  0.5223440000000  0.5271280000000  0.4408530000000 1.0
C      1  0.5755690000000  0.5300440000000  0.5359740000000 1.0
C      1  0.5717600000000  0.5116110000000  0.4755520000000 1.0
C      1  0.5557470000000  0.4803550000000  0.4945760000000 1.0
C      1  0.4448390000000  0.5073530000000  0.4719780000000 1.0
C      1  0.4413870000000  0.5135520000000  0.5260680000000 1.0
C      1  0.4285400000000  0.4707460000000  0.5059970000000 1.0
C      1  0.4408910000000  0.4699470000000  0.4498390000000 1.0
C      1  0.4343330000000  0.4714740000000  0.5546500000000 1.0
C      1  0.4488500000000  0.5520930000000  0.4915530000000 1.0
C      1  0.5516020000000  0.4607950000000  0.5421750000000 1.0
C      1  0.5492050000000  0.4731970000000  0.4414670000000 1.0
C      1  0.5612910000000  0.5573440000000  0.4936120000000 1.0
END
