TITL C-1154828-9214-542 7.01889279885416 125000 -313.162884592732 0 0 60 (C1) n - 1
REM
REM in /home/nfs/bkarasulu/CARBON/AIRSS/Generating-Clusters/AIREBO/Higher-Symm/Only-C60
REM
REM
REM
REM
REM
REM ./C.cell (28575a23ae977d3b5fae324c64b13b57)
REM
REM compiler GCC version 9.2.1 20190827 (Red Hat 9.2.1-1)
REM options -cpp -mtune=generic -march=x86-64 -g -O0 -fpre-include=/usr/include/finclude/math-vector-fortran.h
REM seed -185545674 -362803061 -1383698234 96290035 -2018404566 -132536567 18441059 219314254 -15653257 280246005 1811957004 1816005826 1356747378 1584864436 -1210167560 -1067651264 -1455065826 1622892638 969205853 -1111901384 -196828141 1449081736 2048241462 -447515517 1632204263 -15401787 1145601392 1436536983 1464204055 2099483440 -794315082 1644242918 870090301
REM
CELL 1.54180   50.00000   50.00000   50.00000   90.00000   90.00000   90.00000
LATT -1
SFAC C  
C      1  0.4827020000000  0.4478240000000  0.4863630000000 1.0
C      1  0.4462040000000  0.4822550000000  0.4807890000000 1.0
C      1  0.4521220000000  0.5349930000000  0.4847530000000 1.0
C      1  0.4961510000000  0.5547990000000  0.4863190000000 1.0
C      1  0.5436940000000  0.5372050000000  0.4815930000000 1.0
C      1  0.5591320000000  0.4909770000000  0.4863190000000 1.0
C      1  0.5361940000000  0.4518680000000  0.4864920000000 1.0
C      1  0.4564700000000  0.5535940000000  0.5484930000000 1.0
C      1  0.5109440000000  0.5582220000000  0.5399170000000 1.0
C      1  0.5510390000000  0.5248920000000  0.5517230000000 1.0
C      1  0.5522560000000  0.4721470000000  0.5537550000000 1.0
C      1  0.5109630000000  0.4406980000000  0.5523630000000 1.0
C      1  0.4599540000000  0.4561030000000  0.5480940000000 1.0
C      1  0.4358490000000  0.5018800000000  0.5394450000000 1.0
C      1  0.4662590000000  0.5654920000000  0.4866860000000 1.0
C      1  0.5269870000000  0.5649320000000  0.4847960000000 1.0
C      1  0.5719570000000  0.5209990000000  0.4827480000000 1.0
C      1  0.5680610000000  0.4592790000000  0.4861510000000 1.0
C      1  0.5107280000000  0.4319880000000  0.4803040000000 1.0
C      1  0.4513100000000  0.4497600000000  0.4853960000000 1.0
C      1  0.4317420000000  0.5099570000000  0.4826600000000 1.0
C      1  0.4920910000000  0.4677210000000  0.4638010000000 1.0
C      1  0.4648190000000  0.4862880000000  0.4553950000000 1.0
C      1  0.4664680000000  0.5201210000000  0.4583530000000 1.0
C      1  0.4976440000000  0.5360670000000  0.4620390000000 1.0
C      1  0.5274200000000  0.5219880000000  0.4586590000000 1.0
C      1  0.5402820000000  0.4920310000000  0.4612880000000 1.0
C      1  0.5227200000000  0.4635960000000  0.4589550000000 1.0
C      1  0.4669250000000  0.5366560000000  0.5140830000000 1.0
C      1  0.5002900000000  0.5319520000000  0.5095220000000 1.0
C      1  0.5314670000000  0.5258530000000  0.5089120000000 1.0
C      1  0.5419330000000  0.4958670000000  0.5132040000000 1.0
C      1  0.5254910000000  0.4664680000000  0.5123630000000 1.0
C      1  0.4932060000000  0.4616880000000  0.5136520000000 1.0
C      1  0.4655020000000  0.4802470000000  0.5068570000000 1.0
C      1  0.5244930000000  0.4558630000000  0.4279800000000 1.0
C      1  0.4995190000000  0.4543440000000  0.4170290000000 1.0
C      1  0.4802520000000  0.4765500000000  0.4267070000000 1.0
C      1  0.4720810000000  0.5352530000000  0.4318400000000 1.0
C      1  0.5044200000000  0.5346590000000  0.4287480000000 1.0
C      1  0.5284450000000  0.5090720000000  0.4272220000000 1.0
C      1  0.5428700000000  0.4805440000000  0.4292060000000 1.0
C      1  0.4440870000000  0.5281970000000  0.5380000000000 1.0
C      1  0.4835220000000  0.5573070000000  0.5354400000000 1.0
C      1  0.5331110000000  0.5412790000000  0.5363180000000 1.0
C      1  0.5533240000000  0.4980380000000  0.5423570000000 1.0
C      1  0.5328930000000  0.4552870000000  0.5417350000000 1.0
C      1  0.4861740000000  0.4478350000000  0.5405970000000 1.0
C      1  0.4501330000000  0.4785840000000  0.5334330000000 1.0
C      1  0.4826910000000  0.5046980000000  0.4084620000000 1.0
C      1  0.4900290000000  0.5013080000000  0.5029220000000 1.0
C      1  0.4647410000000  0.5312520000000  0.3677840000000 1.0
C      1  0.4925640000000  0.5033900000000  0.5362440000000 1.0
C      1  0.4967210000000  0.5038990000000  0.5892330000000 1.0
C      1  0.4953660000000  0.5025450000000  0.5626700000000 1.0
C      1  0.4727660000000  0.5181380000000  0.3890100000000 1.0
C      1  0.4982000000000  0.4982670000000  0.4730190000000 1.0
C      1  0.4972360000000  0.5031530000000  0.4393740000000 1.0
C      1  0.5022640000000  0.5040840000000  0.6417190000000 1.0
C      1  0.5006260000000  0.5046340000000  0.6155660000000 1.0
END
