TITL C-1154801-8518-699 0.00330705845986254 125000 -301.298295951998 0 0 60 (C1) n - 1
REM
REM in /home/nfs/bkarasulu/CARBON/AIRSS/Generating-Clusters/AIREBO/Higher-Symm/Only-C60
REM
REM
REM
REM
REM
REM ./C.cell (28575a23ae977d3b5fae324c64b13b57)
REM
REM compiler GCC version 9.2.1 20190827 (Red Hat 9.2.1-1)
REM options -cpp -mtune=generic -march=x86-64 -g -O0 -fpre-include=/usr/include/finclude/math-vector-fortran.h
REM seed 1099067065 -294599763 -676969483 738716425 -11170371 2128305567 -1972880127 -1964816072 1031778460 1822887923 341793380 -823189283 830326988 1367257629 671539944 -1702681164 -497326767 415383383 1618461698 -1834328432 -887453103 498638485 -344012291 656609906 -1535435865 -1494303685 -761117829 2096498667 -879952956 1634342119 -1192126657 940537672 1514266697
REM
CELL 1.54180   50.00000   50.00000   50.00000   90.00000   90.00000   90.00000
LATT -1
SFAC C  
C      1  0.4794510000000  0.5592220000000  0.5011090000000 1.0
C      1  0.4825180000000  0.5178140000000  0.4455910000000 1.0
C      1  0.4786670000000  0.4510660000000  0.4655580000000 1.0
C      1  0.4786020000000  0.4505520000000  0.5362150000000 1.0
C      1  0.4782470000000  0.5183330000000  0.5580980000000 1.0
C      1  0.5576930000000  0.5179920000000  0.4783540000000 1.0
C      1  0.5656620000000  0.4877930000000  0.4745610000000 1.0
C      1  0.5604170000000  0.4734090000000  0.5014060000000 1.0
C      1  0.5579880000000  0.4967810000000  0.5232060000000 1.0
C      1  0.5605720000000  0.5243170000000  0.5085740000000 1.0
C      1  0.5358100000000  0.4560880000000  0.4976610000000 1.0
C      1  0.5311470000000  0.4980440000000  0.5378550000000 1.0
C      1  0.5359920000000  0.5400720000000  0.5176680000000 1.0
C      1  0.5269860000000  0.5197220000000  0.4718370000000 1.0
C      1  0.5408240000000  0.4857860000000  0.4562380000000 1.0
C      1  0.5870940000000  0.5382360000000  0.5146380000000 1.0
C      1  0.5737730000000  0.5365320000000  0.4601130000000 1.0
C      1  0.5926160000000  0.4816260000000  0.4622790000000 1.0
C      1  0.5844340000000  0.4557420000000  0.5094400000000 1.0
C      1  0.5809020000000  0.4939200000000  0.5436990000000 1.0
C      1  0.5047420000000  0.4991280000000  0.4315230000000 1.0
C      1  0.5015440000000  0.4322180000000  0.4792630000000 1.0
C      1  0.5013010000000  0.4595970000000  0.5598680000000 1.0
C      1  0.5018920000000  0.5427750000000  0.5586780000000 1.0
C      1  0.5034980000000  0.5691410000000  0.4791870000000 1.0
C      1  0.4331730000000  0.5209410000000  0.5145950000000 1.0
C      1  0.4345680000000  0.5221670000000  0.4845510000000 1.0
C      1  0.4346040000000  0.4940740000000  0.4741980000000 1.0
C      1  0.4325950000000  0.4752240000000  0.4976520000000 1.0
C      1  0.4309710000000  0.4921680000000  0.5227570000000 1.0
C      1  0.4712560000000  0.5259480000000  0.4995240000000 1.0
C      1  0.4727940000000  0.5054660000000  0.4757770000000 1.0
C      1  0.4707860000000  0.4768130000000  0.4864960000000 1.0
C      1  0.4678080000000  0.4777330000000  0.5185220000000 1.0
C      1  0.4697290000000  0.5098920000000  0.5261300000000 1.0
C      1  0.4570950000000  0.5417670000000  0.4729650000000 1.0
C      1  0.4559740000000  0.4884800000000  0.4515930000000 1.0
C      1  0.4526880000000  0.4495620000000  0.4957820000000 1.0
C      1  0.4495050000000  0.4825900000000  0.5467610000000 1.0
C      1  0.4528110000000  0.5387590000000  0.5321830000000 1.0
C      1  0.4613130000000  0.5276860000000  0.4261770000000 1.0
C      1  0.4573370000000  0.4357920000000  0.4504510000000 1.0
C      1  0.4580580000000  0.4310160000000  0.5473710000000 1.0
C      1  0.4563100000000  0.5243050000000  0.5784950000000 1.0
C      1  0.4570630000000  0.5799120000000  0.5025950000000 1.0
C      1  0.4824640000000  0.4856720000000  0.5545930000000 1.0
C      1  0.4860280000000  0.5458960000000  0.5304390000000 1.0
C      1  0.4907250000000  0.5400490000000  0.4681100000000 1.0
C      1  0.4885570000000  0.4787240000000  0.4509630000000 1.0
C      1  0.4852340000000  0.4447740000000  0.5044710000000 1.0
C      1  0.5290370000000  0.5464210000000  0.5503470000000 1.0
C      1  0.5278730000000  0.5535220000000  0.4661050000000 1.0
C      1  0.5314840000000  0.4951490000000  0.4316670000000 1.0
C      1  0.5285230000000  0.4338760000000  0.4826140000000 1.0
C      1  0.5275130000000  0.4712430000000  0.5586760000000 1.0
C      1  0.5076960000000  0.4701670000000  0.5012270000000 1.0
C      1  0.5044830000000  0.4836620000000  0.5287390000000 1.0
C      1  0.5094390000000  0.5215210000000  0.5261040000000 1.0
C      1  0.5100050000000  0.5341220000000  0.4955260000000 1.0
C      1  0.5121310000000  0.4890020000000  0.4732250000000 1.0
END
