TITL C-1154804-8633-622 0.00311871457153304 125000 -335.985953943634 0 0 60 (C1) n - 1
REM
REM in /home/nfs/bkarasulu/CARBON/AIRSS/Generating-Clusters/AIREBO/Higher-Symm/Only-C60
REM
REM
REM
REM
REM
REM ./C.cell (28575a23ae977d3b5fae324c64b13b57)
REM
REM compiler GCC version 9.2.1 20190827 (Red Hat 9.2.1-1)
REM options -cpp -mtune=generic -march=x86-64 -g -O0 -fpre-include=/usr/include/finclude/math-vector-fortran.h
REM seed 1617321106 953369500 76412920 -525554540 -1082588734 -714146147 -148950739 2131849279 948376949 -664641795 749422202 -62465974 -859665937 -523653216 -1196620957 1534228874 2075623237 -1017833131 -1299042682 989524283 1437752569 -1135268619 -1196487537 450802699 -960135220 648358807 -762770849 1783897798 475932398 -974012892 -1769440534 694038437 900687368
REM
CELL 1.54180   50.00000   50.00000   50.00000   90.00000   90.00000   90.00000
LATT -1
SFAC C  
C      1  0.5723850000000  0.4861680000000  0.4703530000000 1.0
C      1  0.4305310000000  0.4818390000000  0.5270190000000 1.0
C      1  0.5650030000000  0.5141200000000  0.4735050000000 1.0
C      1  0.4348130000000  0.5108720000000  0.5256270000000 1.0
C      1  0.5692280000000  0.4865570000000  0.5250670000000 1.0
C      1  0.4378680000000  0.4861980000000  0.4751350000000 1.0
C      1  0.5756880000000  0.5152650000000  0.5270330000000 1.0
C      1  0.4286910000000  0.5134770000000  0.4726280000000 1.0
C      1  0.4852950000000  0.4820800000000  0.5609030000000 1.0
C      1  0.5095540000000  0.4722340000000  0.4354930000000 1.0
C      1  0.4814210000000  0.5158560000000  0.5597200000000 1.0
C      1  0.5134130000000  0.5336580000000  0.4414050000000 1.0
C      1  0.4849920000000  0.4619100000000  0.4364110000000 1.0
C      1  0.5107100000000  0.4693210000000  0.5655300000000 1.0
C      1  0.4874050000000  0.5367770000000  0.4380720000000 1.0
C      1  0.5069610000000  0.5304780000000  0.5618020000000 1.0
C      1  0.5797890000000  0.5367490000000  0.4857170000000 1.0
C      1  0.4172170000000  0.5300510000000  0.5150360000000 1.0
C      1  0.5730680000000  0.4617000000000  0.4858430000000 1.0
C      1  0.4143540000000  0.4660890000000  0.5104630000000 1.0
C      1  0.5911720000000  0.5319020000000  0.5110190000000 1.0
C      1  0.4249990000000  0.5372570000000  0.4886120000000 1.0
C      1  0.5834680000000  0.4662780000000  0.5118790000000 1.0
C      1  0.4278100000000  0.4618710000000  0.4857740000000 1.0
C      1  0.4532130000000  0.4865780000000  0.5693850000000 1.0
C      1  0.5375450000000  0.4855250000000  0.4340020000000 1.0
C      1  0.4491900000000  0.5174510000000  0.5704310000000 1.0
C      1  0.5367620000000  0.5131830000000  0.4357630000000 1.0
C      1  0.4632600000000  0.4848920000000  0.4397050000000 1.0
C      1  0.5364180000000  0.4875630000000  0.5613470000000 1.0
C      1  0.4692270000000  0.5113400000000  0.4416240000000 1.0
C      1  0.5339700000000  0.5146520000000  0.5610550000000 1.0
C      1  0.5364160000000  0.4862180000000  0.4738470000000 1.0
C      1  0.4633930000000  0.4840220000000  0.5183300000000 1.0
C      1  0.5321350000000  0.5176380000000  0.4751230000000 1.0
C      1  0.4678580000000  0.5161320000000  0.5206650000000 1.0
C      1  0.5367230000000  0.4838880000000  0.5216100000000 1.0
C      1  0.4702650000000  0.4853750000000  0.4790140000000 1.0
C      1  0.5431260000000  0.5164590000000  0.5223000000000 1.0
C      1  0.4643340000000  0.5160750000000  0.4809610000000 1.0
C      1  0.4586380000000  0.5546550000000  0.5153140000000 1.0
C      1  0.5526920000000  0.5502380000000  0.4854630000000 1.0
C      1  0.4596520000000  0.4443510000000  0.5174090000000 1.0
C      1  0.5469780000000  0.4496830000000  0.4856510000000 1.0
C      1  0.4498790000000  0.5522690000000  0.4890690000000 1.0
C      1  0.5415490000000  0.5545310000000  0.5102000000000 1.0
C      1  0.4522810000000  0.4453750000000  0.4908200000000 1.0
C      1  0.5373250000000  0.4452530000000  0.5114130000000 1.0
C      1  0.4621680000000  0.4649540000000  0.5443740000000 1.0
C      1  0.5332890000000  0.4589730000000  0.4559130000000 1.0
C      1  0.4591270000000  0.5365290000000  0.5440980000000 1.0
C      1  0.5434020000000  0.5415030000000  0.4539420000000 1.0
C      1  0.4634640000000  0.4586390000000  0.4615660000000 1.0
C      1  0.5312150000000  0.4600630000000  0.5414280000000 1.0
C      1  0.4623850000000  0.5401630000000  0.4598390000000 1.0
C      1  0.5273870000000  0.5399610000000  0.5374680000000 1.0
C      1  0.4920110000000  0.4803220000000  0.5003180000000 1.0
C      1  0.5183260000000  0.4801230000000  0.4984500000000 1.0
C      1  0.4907910000000  0.5229050000000  0.5012020000000 1.0
C      1  0.5177680000000  0.5238110000000  0.5008560000000 1.0
END
