TITL C-1154829-9094-160 -0.000854562263488636 125000 -298.021880942969 0 0 60 (C1) n - 1
REM
REM in /home/nfs/bkarasulu/CARBON/AIRSS/Generating-Clusters/AIREBO/Higher-Symm/Only-C60
REM
REM
REM
REM
REM
REM ./C.cell (28575a23ae977d3b5fae324c64b13b57)
REM
REM compiler GCC version 9.2.1 20190827 (Red Hat 9.2.1-1)
REM options -cpp -mtune=generic -march=x86-64 -g -O0 -fpre-include=/usr/include/finclude/math-vector-fortran.h
REM seed 2072699279 1821968604 1962091726 1597045101 421280990 520314118 -541768718 -1628469339 171378492 -52177729 1650429184 1054348371 -1022616439 1985500390 1892589671 724255637 902974251 -1967077742 -1164569838 -350425709 680654950 1537840827 1526108093 1098559914 1524968751 80530669 -1470736517 -128935313 -1259305596 -23046785 1367503665 -2048415789 -118632488
REM
CELL 1.54180   50.00000   50.00000   50.00000   90.00000   90.00000   90.00000
LATT -1
SFAC C  
C      1  0.4220210000000  0.5200220000000  0.4920570000000 1.0
C      1  0.5271340000000  0.4887240000000  0.4197910000000 1.0
C      1  0.5005010000000  0.4276060000000  0.5158050000000 1.0
C      1  0.4201670000000  0.4812990000000  0.5012260000000 1.0
C      1  0.5878720000000  0.5243370000000  0.4970220000000 1.0
C      1  0.5874810000000  0.4768540000000  0.5009150000000 1.0
C      1  0.5200240000000  0.4995750000000  0.5782980000000 1.0
C      1  0.4806380000000  0.5012760000000  0.5722360000000 1.0
C      1  0.4771200000000  0.5054240000000  0.4238030000000 1.0
C      1  0.5002290000000  0.5735290000000  0.4847380000000 1.0
C      1  0.5011560000000  0.4234780000000  0.4764310000000 1.0
C      1  0.5002630000000  0.5808580000000  0.5235790000000 1.0
C      1  0.4115750000000  0.5052940000000  0.5199590000000 1.0
C      1  0.5252260000000  0.4225880000000  0.4944850000000 1.0
C      1  0.4873750000000  0.5301130000000  0.4321230000000 1.0
C      1  0.4154270000000  0.4970070000000  0.4716950000000 1.0
C      1  0.5795820000000  0.5030480000000  0.5192450000000 1.0
C      1  0.5736450000000  0.4983930000000  0.4802270000000 1.0
C      1  0.5246920000000  0.5806730000000  0.5050310000000 1.0
C      1  0.4739370000000  0.5774250000000  0.5023310000000 1.0
C      1  0.4746730000000  0.4240740000000  0.4977710000000 1.0
C      1  0.4966360000000  0.4759460000000  0.5760990000000 1.0
C      1  0.4984140000000  0.4837080000000  0.4251260000000 1.0
C      1  0.5016360000000  0.5240320000000  0.5703420000000 1.0
C      1  0.5227940000000  0.4995700000000  0.4524750000000 1.0
C      1  0.5041430000000  0.4588970000000  0.5248520000000 1.0
C      1  0.4557900000000  0.5237560000000  0.4934980000000 1.0
C      1  0.5245100000000  0.5050720000000  0.5432790000000 1.0
C      1  0.4635760000000  0.5031510000000  0.5482810000000 1.0
C      1  0.4671510000000  0.4874850000000  0.4494100000000 1.0
C      1  0.5035890000000  0.5420510000000  0.4778910000000 1.0
C      1  0.4868230000000  0.4519640000000  0.4723040000000 1.0
C      1  0.4875590000000  0.5516460000000  0.5293000000000 1.0
C      1  0.4534540000000  0.4756570000000  0.5052640000000 1.0
C      1  0.5548210000000  0.5297830000000  0.5029800000000 1.0
C      1  0.5534730000000  0.4758410000000  0.5062590000000 1.0
C      1  0.5339450000000  0.4485660000000  0.5118070000000 1.0
C      1  0.5041880000000  0.5275560000000  0.4532350000000 1.0
C      1  0.4459040000000  0.5052320000000  0.5202540000000 1.0
C      1  0.5329750000000  0.5521090000000  0.4917730000000 1.0
C      1  0.4780340000000  0.5431470000000  0.4981150000000 1.0
C      1  0.4779550000000  0.4582790000000  0.5037820000000 1.0
C      1  0.5143560000000  0.4732100000000  0.5494550000000 1.0
C      1  0.4984200000000  0.4764210000000  0.4576600000000 1.0
C      1  0.5064300000000  0.5328430000000  0.5423930000000 1.0
C      1  0.4490390000000  0.4945230000000  0.4773160000000 1.0
C      1  0.5462250000000  0.5047450000000  0.5226470000000 1.0
C      1  0.5442540000000  0.4887540000000  0.4761530000000 1.0
C      1  0.4495230000000  0.4630220000000  0.4336950000000 1.0
C      1  0.4608490000000  0.4448360000000  0.4582430000000 1.0
C      1  0.4376960000000  0.4651080000000  0.4644220000000 1.0
C      1  0.4540590000000  0.5299270000000  0.5640970000000 1.0
C      1  0.5402180000000  0.4594610000000  0.5575920000000 1.0
C      1  0.5460440000000  0.5233890000000  0.4464160000000 1.0
C      1  0.4620960000000  0.5543400000000  0.5450030000000 1.0
C      1  0.5505940000000  0.4354650000000  0.5384010000000 1.0
C      1  0.5378720000000  0.5527540000000  0.4581190000000 1.0
C      1  0.4387570000000  0.5349170000000  0.5354330000000 1.0
C      1  0.5632820000000  0.4658580000000  0.5373160000000 1.0
C      1  0.5621770000000  0.5353820000000  0.4705470000000 1.0
END
