TITL C-1154827-9204-453 3.18497985637527e-05 125000 -313.923241168299 0 0 60 (C1) n - 1
REM
REM in /home/nfs/bkarasulu/CARBON/AIRSS/Generating-Clusters/AIREBO/Higher-Symm/Only-C60
REM
REM
REM
REM
REM
REM ./C.cell (28575a23ae977d3b5fae324c64b13b57)
REM
REM compiler GCC version 9.2.1 20190827 (Red Hat 9.2.1-1)
REM options -cpp -mtune=generic -march=x86-64 -g -O0 -fpre-include=/usr/include/finclude/math-vector-fortran.h
REM seed -1542720863 -1654588384 -1101327602 47575932 1161265656 -1599418224 -404011273 1706643094 240609070 -1214291233 1920919214 1831467399 2129167255 753058038 592534082 -377000516 623856001 986739639 2121695166 -2140013309 1566362535 203221985 -1085024567 218009566 1074314805 491535256 -2015575932 -382450735 -1583214064 -823351774 -2109919080 -2030140429 -1176614943
REM
CELL 1.54180   50.00000   50.00000   50.00000   90.00000   90.00000   90.00000
LATT -1
SFAC C  
C      1  0.4239940000000  0.4573970000000  0.5289440000000 1.0
C      1  0.4283800000000  0.5223020000000  0.5476670000000 1.0
C      1  0.4277610000000  0.5542890000000  0.4753800000000 1.0
C      1  0.4375750000000  0.4729760000000  0.4695260000000 1.0
C      1  0.5228040000000  0.5011990000000  0.4332940000000 1.0
C      1  0.5299780000000  0.4318550000000  0.4846090000000 1.0
C      1  0.5273130000000  0.4935930000000  0.5716520000000 1.0
C      1  0.5272560000000  0.5740890000000  0.5078750000000 1.0
C      1  0.5152160000000  0.5018530000000  0.5409690000000 1.0
C      1  0.5183300000000  0.5590890000000  0.4811750000000 1.0
C      1  0.5123410000000  0.4817710000000  0.4577640000000 1.0
C      1  0.5080250000000  0.4473480000000  0.4963270000000 1.0
C      1  0.5286510000000  0.4821480000000  0.5197910000000 1.0
C      1  0.5100410000000  0.5214710000000  0.5160240000000 1.0
C      1  0.5220600000000  0.5271050000000  0.4875160000000 1.0
C      1  0.5114730000000  0.4796020000000  0.4905600000000 1.0
C      1  0.4637700000000  0.4736010000000  0.4700930000000 1.0
C      1  0.4494210000000  0.4607240000000  0.5279450000000 1.0
C      1  0.4534160000000  0.5252140000000  0.5434420000000 1.0
C      1  0.4525990000000  0.5480760000000  0.4749190000000 1.0
C      1  0.4966040000000  0.5085890000000  0.5676900000000 1.0
C      1  0.4935470000000  0.5774250000000  0.4936320000000 1.0
C      1  0.4916400000000  0.4878260000000  0.4308180000000 1.0
C      1  0.4846350000000  0.4336880000000  0.5018540000000 1.0
C      1  0.4762980000000  0.5200480000000  0.5182050000000 1.0
C      1  0.4717980000000  0.5225200000000  0.4845900000000 1.0
C      1  0.4793610000000  0.4907780000000  0.4911260000000 1.0
C      1  0.4702150000000  0.4865260000000  0.5217570000000 1.0
C      1  0.5474500000000  0.5053590000000  0.4811820000000 1.0
C      1  0.5431620000000  0.4716290000000  0.4811020000000 1.0
C      1  0.5528040000000  0.5033320000000  0.5278350000000 1.0
C      1  0.5564410000000  0.5227620000000  0.5071840000000 1.0
C      1  0.5097880000000  0.5691660000000  0.5320600000000 1.0
C      1  0.5093440000000  0.5299250000000  0.4342780000000 1.0
C      1  0.5222800000000  0.4270420000000  0.4543070000000 1.0
C      1  0.5148120000000  0.4658820000000  0.5579120000000 1.0
C      1  0.5518080000000  0.5505860000000  0.5065870000000 1.0
C      1  0.5484860000000  0.4964730000000  0.4493050000000 1.0
C      1  0.5470390000000  0.4486200000000  0.5050540000000 1.0
C      1  0.5546460000000  0.5033580000000  0.5554510000000 1.0
C      1  0.5003620000000  0.5613900000000  0.5640630000000 1.0
C      1  0.5094220000000  0.5595640000000  0.4490410000000 1.0
C      1  0.5129190000000  0.4547310000000  0.4373550000000 1.0
C      1  0.5043740000000  0.4362140000000  0.5458660000000 1.0
C      1  0.4745270000000  0.5749930000000  0.5144180000000 1.0
C      1  0.4741810000000  0.5110170000000  0.4320150000000 1.0
C      1  0.4764310000000  0.4201140000000  0.4785540000000 1.0
C      1  0.4784550000000  0.4858730000000  0.5723160000000 1.0
C      1  0.4813120000000  0.5626760000000  0.4672670000000 1.0
C      1  0.4802950000000  0.4605580000000  0.4476790000000 1.0
C      1  0.4761110000000  0.4409400000000  0.5294390000000 1.0
C      1  0.4813920000000  0.5334410000000  0.5601910000000 1.0
C      1  0.4824660000000  0.4691110000000  0.5479050000000 1.0
C      1  0.4809480000000  0.5511490000000  0.5311660000000 1.0
C      1  0.4812410000000  0.5315730000000  0.4531920000000 1.0
C      1  0.4883710000000  0.4293690000000  0.4552760000000 1.0
C      1  0.5171250000000  0.5399390000000  0.5436900000000 1.0
C      1  0.5338730000000  0.5328890000000  0.4560930000000 1.0
C      1  0.5420750000000  0.4553110000000  0.4548390000000 1.0
C      1  0.5315590000000  0.4519080000000  0.5322370000000 1.0
END
