TITL C-1154808-8168-294 0.000602147785900497 125000 -319.20255324513 0 0 60 (C1) n - 1
REM
REM in /home/nfs/bkarasulu/CARBON/AIRSS/Generating-Clusters/AIREBO/Higher-Symm/Only-C60
REM
REM
REM
REM
REM
REM ./C.cell (28575a23ae977d3b5fae324c64b13b57)
REM
REM compiler GCC version 9.2.1 20190827 (Red Hat 9.2.1-1)
REM options -cpp -mtune=generic -march=x86-64 -g -O0 -fpre-include=/usr/include/finclude/math-vector-fortran.h
REM seed -265371984 106371937 -461788552 1243941837 1598490441 -1124943284 -1087598916 -1617870954 455238554 -1475413044 -171782725 919585839 -1329859424 -1826688591 -1449314677 -496429486 528468262 309799408 874929068 1832997963 1902148119 1378613562 1717710080 -763431902 -1367575553 -1154041983 -1303983247 -1499524124 1266756798 1480218166 1092837216 813405942 -853031694
REM
CELL 1.54180   50.00000   50.00000   50.00000   90.00000   90.00000   90.00000
LATT -1
SFAC C  
C      1  0.4902330000000  0.5277800000000  0.5083430000000 1.0
C      1  0.5253020000000  0.5119010000000  0.4977760000000 1.0
C      1  0.5132760000000  0.4870960000000  0.5297160000000 1.0
C      1  0.5009340000000  0.4650770000000  0.5157010000000 1.0
C      1  0.4924740000000  0.4697550000000  0.4887240000000 1.0
C      1  0.5094980000000  0.5382660000000  0.4832220000000 1.0
C      1  0.4629650000000  0.4840660000000  0.4938000000000 1.0
C      1  0.5406060000000  0.4855360000000  0.5118090000000 1.0
C      1  0.4640580000000  0.5159710000000  0.4995240000000 1.0
C      1  0.4920670000000  0.5085480000000  0.5332140000000 1.0
C      1  0.5127560000000  0.5001500000000  0.4733160000000 1.0
C      1  0.4832790000000  0.4971990000000  0.4698900000000 1.0
C      1  0.5389550000000  0.4425660000000  0.5062280000000 1.0
C      1  0.4413160000000  0.5036380000000  0.5343200000000 1.0
C      1  0.5184600000000  0.5366360000000  0.4373700000000 1.0
C      1  0.4552340000000  0.5542590000000  0.5066690000000 1.0
C      1  0.5359830000000  0.5499800000000  0.5010380000000 1.0
C      1  0.4662150000000  0.4469000000000  0.5080860000000 1.0
C      1  0.5477280000000  0.5048820000000  0.5389490000000 1.0
C      1  0.4465840000000  0.5108470000000  0.4628880000000 1.0
C      1  0.5590720000000  0.5061750000000  0.4616850000000 1.0
C      1  0.5083020000000  0.4631090000000  0.4466340000000 1.0
C      1  0.5109550000000  0.4552800000000  0.5536300000000 1.0
C      1  0.5010100000000  0.5376850000000  0.5454370000000 1.0
C      1  0.5518420000000  0.5567380000000  0.4736300000000 1.0
C      1  0.5578460000000  0.4752020000000  0.5466930000000 1.0
C      1  0.4730410000000  0.5469840000000  0.5556460000000 1.0
C      1  0.4574010000000  0.4557140000000  0.4758590000000 1.0
C      1  0.5554070000000  0.4476850000000  0.5287760000000 1.0
C      1  0.4498230000000  0.5552580000000  0.5344020000000 1.0
C      1  0.4455250000000  0.5293370000000  0.5526580000000 1.0
C      1  0.5639600000000  0.5326970000000  0.4539460000000 1.0
C      1  0.4465440000000  0.4822450000000  0.4575670000000 1.0
C      1  0.5386200000000  0.4502260000000  0.5555640000000 1.0
C      1  0.4743300000000  0.4652470000000  0.4478230000000 1.0
C      1  0.5413940000000  0.5511560000000  0.4430600000000 1.0
C      1  0.4731400000000  0.5210580000000  0.4503250000000 1.0
C      1  0.5002660000000  0.4459310000000  0.4701880000000 1.0
C      1  0.4492710000000  0.4725410000000  0.5227090000000 1.0
C      1  0.5330120000000  0.4849140000000  0.4555800000000 1.0
C      1  0.4688910000000  0.4973890000000  0.5481640000000 1.0
C      1  0.5233280000000  0.5145240000000  0.5567580000000 1.0
C      1  0.4951440000000  0.5428350000000  0.4558590000000 1.0
C      1  0.5068190000000  0.5558150000000  0.5183060000000 1.0
C      1  0.4900540000000  0.4398250000000  0.5315640000000 1.0
C      1  0.5543630000000  0.5229130000000  0.5108980000000 1.0
C      1  0.4379070000000  0.5310000000000  0.4888740000000 1.0
C      1  0.5434650000000  0.4669550000000  0.4834280000000 1.0
C      1  0.5151530000000  0.4280960000000  0.5118340000000 1.0
C      1  0.4222330000000  0.5112520000000  0.5084620000000 1.0
C      1  0.5204230000000  0.5062680000000  0.4322780000000 1.0
C      1  0.4803410000000  0.5651630000000  0.4990600000000 1.0
C      1  0.4857060000000  0.5685500000000  0.4725060000000 1.0
C      1  0.4918750000000  0.4301030000000  0.4931650000000 1.0
C      1  0.5747400000000  0.4755310000000  0.4936410000000 1.0
C      1  0.4184520000000  0.4810850000000  0.5111650000000 1.0
C      1  0.5680740000000  0.5028120000000  0.4884550000000 1.0
C      1  0.4918260000000  0.5093750000000  0.4255210000000 1.0
C      1  0.5061300000000  0.4858450000000  0.5629370000000 1.0
C      1  0.4763960000000  0.4884270000000  0.5747310000000 1.0
END
