TITL C-1154827-9204-349 -0.00200130589130707 125000 -313.771958042279 0 0 60 (C1) n - 1
REM
REM in /home/nfs/bkarasulu/CARBON/AIRSS/Generating-Clusters/AIREBO/Higher-Symm/Only-C60
REM
REM
REM
REM
REM
REM ./C.cell (28575a23ae977d3b5fae324c64b13b57)
REM
REM compiler GCC version 9.2.1 20190827 (Red Hat 9.2.1-1)
REM options -cpp -mtune=generic -march=x86-64 -g -O0 -fpre-include=/usr/include/finclude/math-vector-fortran.h
REM seed -1238181317 -375316032 -1999464144 1007343234 1227767001 -897794495 1256168003 -407273860 1143521447 -485267970 -1215767800 -919336411 -764995835 -498880727 -1844870828 -81597288 -1536910740 2002271552 -1394459627 323933008 -977145665 1588975567 -1438529297 -1697623908 1382199786 -1999169365 650751286 -1675209095 -625115384 1983755612 -707665930 -1943061353 -1079101343
REM
CELL 1.54180   50.00000   50.00000   50.00000   90.00000   90.00000   90.00000
LATT -1
SFAC C  
C      1  0.4310340000000  0.5176710000000  0.5181960000000 1.0
C      1  0.4401400000000  0.4854680000000  0.5161780000000 1.0
C      1  0.5267630000000  0.5122150000000  0.4397070000000 1.0
C      1  0.5250240000000  0.4850980000000  0.4404530000000 1.0
C      1  0.5100970000000  0.5186890000000  0.5156040000000 1.0
C      1  0.5202610000000  0.4888640000000  0.5058830000000 1.0
C      1  0.5446600000000  0.5131020000000  0.4781400000000 1.0
C      1  0.5443740000000  0.4819050000000  0.4749870000000 1.0
C      1  0.5221840000000  0.4458830000000  0.5231060000000 1.0
C      1  0.5255010000000  0.5526240000000  0.5287400000000 1.0
C      1  0.4790030000000  0.5148300000000  0.5067540000000 1.0
C      1  0.4898130000000  0.4841120000000  0.5023820000000 1.0
C      1  0.4882210000000  0.4192330000000  0.4567200000000 1.0
C      1  0.4905290000000  0.5779240000000  0.4575320000000 1.0
C      1  0.4497260000000  0.5136080000000  0.4900870000000 1.0
C      1  0.4430530000000  0.4810250000000  0.4825950000000 1.0
C      1  0.5098920000000  0.4373580000000  0.4510620000000 1.0
C      1  0.5097710000000  0.5595040000000  0.4449690000000 1.0
C      1  0.4873650000000  0.5122020000000  0.4461250000000 1.0
C      1  0.4856670000000  0.4842160000000  0.4460850000000 1.0
C      1  0.5089970000000  0.5503660000000  0.5515470000000 1.0
C      1  0.5039510000000  0.4538390000000  0.5504720000000 1.0
C      1  0.4714410000000  0.4821430000000  0.5284720000000 1.0
C      1  0.4745270000000  0.5201120000000  0.5401350000000 1.0
C      1  0.5047610000000  0.4608150000000  0.4335390000000 1.0
C      1  0.5050890000000  0.5344900000000  0.4317780000000 1.0
C      1  0.4860480000000  0.5669600000000  0.5486480000000 1.0
C      1  0.4820070000000  0.4346890000000  0.5564970000000 1.0
C      1  0.5519810000000  0.4871840000000  0.5077130000000 1.0
C      1  0.5437560000000  0.5207830000000  0.5112530000000 1.0
C      1  0.5236930000000  0.5593050000000  0.4767110000000 1.0
C      1  0.5214880000000  0.4428080000000  0.4832960000000 1.0
C      1  0.5029070000000  0.5199590000000  0.5549020000000 1.0
C      1  0.4966660000000  0.4871990000000  0.5481400000000 1.0
C      1  0.4656970000000  0.5465980000000  0.4865960000000 1.0
C      1  0.4601220000000  0.4515990000000  0.4814310000000 1.0
C      1  0.4763380000000  0.4256470000000  0.4805110000000 1.0
C      1  0.4829500000000  0.5707330000000  0.4826120000000 1.0
C      1  0.5776310000000  0.4906100000000  0.4774450000000 1.0
C      1  0.5759750000000  0.5210910000000  0.4815680000000 1.0
C      1  0.5194030000000  0.5287400000000  0.4685000000000 1.0
C      1  0.5150930000000  0.4718520000000  0.4701930000000 1.0
C      1  0.5755780000000  0.5453490000000  0.4944800000000 1.0
C      1  0.5762810000000  0.4622410000000  0.4884600000000 1.0
C      1  0.4982140000000  0.4297580000000  0.5046420000000 1.0
C      1  0.5069650000000  0.5690280000000  0.5046960000000 1.0
C      1  0.5467870000000  0.4538880000000  0.5031700000000 1.0
C      1  0.5448630000000  0.5537020000000  0.5027330000000 1.0
C      1  0.4507460000000  0.5082740000000  0.5605260000000 1.0
C      1  0.4462420000000  0.4823390000000  0.5646220000000 1.0
C      1  0.4814990000000  0.4733610000000  0.4752210000000 1.0
C      1  0.4883090000000  0.5245850000000  0.4755360000000 1.0
C      1  0.4529120000000  0.5436360000000  0.5161470000000 1.0
C      1  0.4464640000000  0.4531930000000  0.5109760000000 1.0
C      1  0.4525590000000  0.4583930000000  0.5440200000000 1.0
C      1  0.4472820000000  0.5384500000000  0.5490510000000 1.0
C      1  0.4760370000000  0.4428800000000  0.5242160000000 1.0
C      1  0.4774390000000  0.5665330000000  0.5217380000000 1.0
C      1  0.5277620000000  0.4746620000000  0.5424540000000 1.0
C      1  0.5304590000000  0.5066780000000  0.5400490000000 1.0
END
