TITL C-1154808-8168-188 -0.00567685557395209 125000 -366.971901531518 0 0 60 (C1) n - 1
REM
REM in /home/nfs/bkarasulu/CARBON/AIRSS/Generating-Clusters/AIREBO/Higher-Symm/Only-C60
REM
REM
REM
REM
REM
REM ./C.cell (28575a23ae977d3b5fae324c64b13b57)
REM
REM compiler GCC version 9.2.1 20190827 (Red Hat 9.2.1-1)
REM options -cpp -mtune=generic -march=x86-64 -g -O0 -fpre-include=/usr/include/finclude/math-vector-fortran.h
REM seed 2005295026 1368996593 -1006686220 75665080 1206733843 -491682646 427741882 -243466624 1046009603 -322604457 1053832355 300827857 -188206177 -1683362511 -936936724 138499666 1569283323 -1421202404 -1620986895 1806521457 169547035 -1844912881 1527272977 692230672 -1774391339 957070653 -17604695 -961671762 2042336429 2123511799 539505375 -636162035 -1474411854
REM
CELL 1.54180   50.00000   50.00000   50.00000   90.00000   90.00000   90.00000
LATT -1
SFAC C  
C      1  0.5107840000000  0.5313510000000  0.5534390000000 1.0
C      1  0.5094470000000  0.4560360000000  0.4860440000000 1.0
C      1  0.4999620000000  0.5406980000000  0.4553870000000 1.0
C      1  0.4933980000000  0.4860380000000  0.5594410000000 1.0
C      1  0.4984650000000  0.5562630000000  0.4855920000000 1.0
C      1  0.4885880000000  0.4647780000000  0.4671160000000 1.0
C      1  0.5005320000000  0.4837550000000  0.4420410000000 1.0
C      1  0.4917820000000  0.5348880000000  0.5083450000000 1.0
C      1  0.4889010000000  0.4713500000000  0.5304470000000 1.0
C      1  0.5086690000000  0.5095860000000  0.4586090000000 1.0
C      1  0.4961680000000  0.4448030000000  0.5148130000000 1.0
C      1  0.5132930000000  0.5314440000000  0.5255870000000 1.0
C      1  0.5238210000000  0.4810630000000  0.5659330000000 1.0
C      1  0.5408500000000  0.4536100000000  0.4415790000000 1.0
C      1  0.5271270000000  0.5678380000000  0.4899230000000 1.0
C      1  0.4880030000000  0.5179050000000  0.5623690000000 1.0
C      1  0.4703360000000  0.5443360000000  0.4477430000000 1.0
C      1  0.4588950000000  0.4229740000000  0.4868640000000 1.0
C      1  0.4584640000000  0.5254950000000  0.4304730000000 1.0
C      1  0.4649100000000  0.5340730000000  0.5579870000000 1.0
C      1  0.4705940000000  0.4267730000000  0.5121410000000 1.0
C      1  0.5294090000000  0.4779550000000  0.4329980000000 1.0
C      1  0.5344300000000  0.4557750000000  0.5586260000000 1.0
C      1  0.5399540000000  0.5749050000000  0.5141690000000 1.0
C      1  0.5340630000000  0.4294780000000  0.4879250000000 1.0
C      1  0.5304720000000  0.5459810000000  0.4477570000000 1.0
C      1  0.5365400000000  0.5292310000000  0.5668160000000 1.0
C      1  0.4688560000000  0.5669390000000  0.4900860000000 1.0
C      1  0.4646640000000  0.4513250000000  0.4432920000000 1.0
C      1  0.4632370000000  0.4775340000000  0.5647370000000 1.0
C      1  0.4603110000000  0.5699440000000  0.5171460000000 1.0
C      1  0.4572090000000  0.4509310000000  0.5568620000000 1.0
C      1  0.4709630000000  0.4785940000000  0.4341820000000 1.0
C      1  0.5258040000000  0.4351010000000  0.5156750000000 1.0
C      1  0.5540900000000  0.5498190000000  0.5575020000000 1.0
C      1  0.5428190000000  0.5271210000000  0.4308010000000 1.0
C      1  0.4603960000000  0.5231430000000  0.5115410000000 1.0
C      1  0.4606550000000  0.4746270000000  0.5131720000000 1.0
C      1  0.4488850000000  0.4997660000000  0.4697970000000 1.0
C      1  0.5476820000000  0.4764820000000  0.5169660000000 1.0
C      1  0.5430700000000  0.5263160000000  0.5162580000000 1.0
C      1  0.5372020000000  0.5022130000000  0.4730280000000 1.0
C      1  0.5371640000000  0.4756770000000  0.4881040000000 1.0
C      1  0.5482070000000  0.5259500000000  0.4870130000000 1.0
C      1  0.5500840000000  0.5003760000000  0.5307800000000 1.0
C      1  0.4489100000000  0.5238760000000  0.4838400000000 1.0
C      1  0.4601860000000  0.4745070000000  0.4830990000000 1.0
C      1  0.4493290000000  0.4992060000000  0.5254030000000 1.0
C      1  0.5437320000000  0.5010280000000  0.4414800000000 1.0
C      1  0.5512600000000  0.5537360000000  0.5295010000000 1.0
C      1  0.5414320000000  0.4526270000000  0.5311560000000 1.0
C      1  0.4540750000000  0.4998300000000  0.4418360000000 1.0
C      1  0.4574390000000  0.4468200000000  0.5289570000000 1.0
C      1  0.4592680000000  0.5459520000000  0.5325490000000 1.0
C      1  0.4458550000000  0.4966350000000  0.5523810000000 1.0
C      1  0.4541640000000  0.4450840000000  0.4702910000000 1.0
C      1  0.4553850000000  0.5486410000000  0.4715900000000 1.0
C      1  0.5420970000000  0.5016950000000  0.5582990000000 1.0
C      1  0.5428070000000  0.5501920000000  0.4733870000000 1.0
C      1  0.5449070000000  0.4499340000000  0.4691250000000 1.0
END
