TITL C-1154829-9094-721 -0.000175598924470975 125000 -327.40889865155 0 0 60 (C1) n - 1
REM
REM in /home/nfs/bkarasulu/CARBON/AIRSS/Generating-Clusters/AIREBO/Higher-Symm/Only-C60
REM
REM
REM
REM
REM
REM ./C.cell (28575a23ae977d3b5fae324c64b13b57)
REM
REM compiler GCC version 9.2.1 20190827 (Red Hat 9.2.1-1)
REM options -cpp -mtune=generic -march=x86-64 -g -O0 -fpre-include=/usr/include/finclude/math-vector-fortran.h
REM seed 931439821 -238656610 -268009113 1128701409 2146263953 1343756369 -922219327 2096940697 1881761192 -1056529456 367560243 883520309 -738383550 1002828922 960364840 -694698032 620314880 874307228 -1786396558 1913637107 2106443656 811390293 -295972834 -1666910510 -134699542 1105465594 -1805962584 -136611438 -803211452 -519232540 657133423 -385925330 -2059423697
REM
CELL 1.54180   50.00000   50.00000   50.00000   90.00000   90.00000   90.00000
LATT -1
SFAC C  
C      1  0.4223480000000  0.5186960000000  0.4849540000000 1.0
C      1  0.4897100000000  0.5233680000000  0.5779830000000 1.0
C      1  0.5675920000000  0.5225620000000  0.5114020000000 1.0
C      1  0.5088660000000  0.5184380000000  0.4302780000000 1.0
C      1  0.5765050000000  0.5210990000000  0.4842770000000 1.0
C      1  0.5169880000000  0.5242330000000  0.5692020000000 1.0
C      1  0.4334410000000  0.5207500000000  0.5107530000000 1.0
C      1  0.4828420000000  0.5209380000000  0.4215460000000 1.0
C      1  0.4825510000000  0.4636290000000  0.5517620000000 1.0
C      1  0.5577280000000  0.4552700000000  0.5269060000000 1.0
C      1  0.5291470000000  0.4690540000000  0.4423750000000 1.0
C      1  0.4439880000000  0.4642860000000  0.4757660000000 1.0
C      1  0.5209530000000  0.4535960000000  0.5540640000000 1.0
C      1  0.4430240000000  0.4575880000000  0.5228640000000 1.0
C      1  0.4773380000000  0.4603910000000  0.4412010000000 1.0
C      1  0.5597740000000  0.4627300000000  0.4809490000000 1.0
C      1  0.5129460000000  0.4925360000000  0.4602100000000 1.0
C      1  0.4532000000000  0.4967960000000  0.4719830000000 1.0
C      1  0.4806710000000  0.4962590000000  0.5501050000000 1.0
C      1  0.5475460000000  0.4843990000000  0.5308880000000 1.0
C      1  0.4750910000000  0.4907270000000  0.4464010000000 1.0
C      1  0.5492810000000  0.4918720000000  0.4836920000000 1.0
C      1  0.5184640000000  0.4842900000000  0.5451310000000 1.0
C      1  0.4486920000000  0.4853880000000  0.5207280000000 1.0
C      1  0.5382560000000  0.4385310000000  0.5132100000000 1.0
C      1  0.5158060000000  0.4530940000000  0.4693760000000 1.0
C      1  0.4659720000000  0.4463570000000  0.4839100000000 1.0
C      1  0.4869720000000  0.4433590000000  0.5312280000000 1.0
C      1  0.4650850000000  0.4415500000000  0.5125320000000 1.0
C      1  0.4857000000000  0.4461030000000  0.4635260000000 1.0
C      1  0.5396320000000  0.4439230000000  0.4856930000000 1.0
C      1  0.5156530000000  0.4350040000000  0.5305610000000 1.0
C      1  0.4611620000000  0.5279820000000  0.4829620000000 1.0
C      1  0.4868250000000  0.5264070000000  0.5355460000000 1.0
C      1  0.5361620000000  0.5319340000000  0.5182840000000 1.0
C      1  0.5162890000000  0.5260270000000  0.4625800000000 1.0
C      1  0.5367080000000  0.5233410000000  0.4860020000000 1.0
C      1  0.5186370000000  0.5173790000000  0.5372630000000 1.0
C      1  0.4634860000000  0.5334280000000  0.5148490000000 1.0
C      1  0.4840060000000  0.5198890000000  0.4614710000000 1.0
C      1  0.4657650000000  0.5612000000000  0.4863310000000 1.0
C      1  0.4865170000000  0.5599800000000  0.5334320000000 1.0
C      1  0.5310670000000  0.5635190000000  0.5164420000000 1.0
C      1  0.5125140000000  0.5654210000000  0.4683510000000 1.0
C      1  0.5307110000000  0.5563420000000  0.4874570000000 1.0
C      1  0.5113130000000  0.5731820000000  0.5334170000000 1.0
C      1  0.4657400000000  0.5694030000000  0.5144500000000 1.0
C      1  0.4874010000000  0.5532620000000  0.4671550000000 1.0
C      1  0.5487420000000  0.5213290000000  0.5630700000000 1.0
C      1  0.5630540000000  0.5104400000000  0.4591520000000 1.0
C      1  0.4540820000000  0.5142140000000  0.4359740000000 1.0
C      1  0.4442170000000  0.5090730000000  0.5398330000000 1.0
C      1  0.4611560000000  0.5179940000000  0.5648510000000 1.0
C      1  0.4299940000000  0.5149410000000  0.4549980000000 1.0
C      1  0.5377270000000  0.5019770000000  0.4391040000000 1.0
C      1  0.5616060000000  0.5098040000000  0.5394470000000 1.0
C      1  0.5248810000000  0.4911440000000  0.5064550000000 1.0
C      1  0.5015240000000  0.4789610000000  0.4848610000000 1.0
C      1  0.4722880000000  0.4893330000000  0.4987790000000 1.0
C      1  0.4946610000000  0.4896310000000  0.5220250000000 1.0
END
