TITL C-1154802-8274-104 -0.000720436038470594 125000 -311.85061609956 0 0 60 (C1) n - 1
REM
REM in /home/nfs/bkarasulu/CARBON/AIRSS/Generating-Clusters/AIREBO/Higher-Symm/Only-C60
REM
REM
REM
REM
REM
REM ./C.cell (28575a23ae977d3b5fae324c64b13b57)
REM
REM compiler GCC version 9.2.1 20190827 (Red Hat 9.2.1-1)
REM options -cpp -mtune=generic -march=x86-64 -g -O0 -fpre-include=/usr/include/finclude/math-vector-fortran.h
REM seed 1105287085 1914840507 -2061961031 1277997373 -1592993276 -1813752231 391255478 -850773114 2035934278 -1541407521 1069680652 -468582203 -1261165176 803158659 1084392535 528210179 2054955338 -562458514 1038535991 431051246 600718539 -1313099421 234019331 -808809485 1540197422 -863380625 -598275188 -706464699 15716515 -1631280239 -521674100 -727567195 -2068965918
REM
CELL 1.54180   50.00000   50.00000   50.00000   90.00000   90.00000   90.00000
LATT -1
SFAC C  
C      1  0.4561880000000  0.4786430000000  0.5010000000000 1.0
C      1  0.4665300000000  0.4987600000000  0.4756110000000 1.0
C      1  0.4656870000000  0.5174590000000  0.5014630000000 1.0
C      1  0.4636740000000  0.4971290000000  0.5285510000000 1.0
C      1  0.5590810000000  0.5162090000000  0.4873010000000 1.0
C      1  0.5591370000000  0.5188580000000  0.5198670000000 1.0
C      1  0.5556640000000  0.4872930000000  0.5146890000000 1.0
C      1  0.5586190000000  0.4825430000000  0.4821270000000 1.0
C      1  0.4519690000000  0.5354830000000  0.4772520000000 1.0
C      1  0.4444950000000  0.5228830000000  0.5347510000000 1.0
C      1  0.4440060000000  0.4580090000000  0.5250030000000 1.0
C      1  0.4505720000000  0.4757900000000  0.4552470000000 1.0
C      1  0.4940070000000  0.4986510000000  0.5712180000000 1.0
C      1  0.4962660000000  0.4272730000000  0.5002540000000 1.0
C      1  0.4919810000000  0.5010830000000  0.4307360000000 1.0
C      1  0.4902530000000  0.5757300000000  0.5016660000000 1.0
C      1  0.4746760000000  0.4347360000000  0.4848360000000 1.0
C      1  0.4761950000000  0.5239060000000  0.4308460000000 1.0
C      1  0.4741590000000  0.5653330000000  0.5205030000000 1.0
C      1  0.4784450000000  0.4773070000000  0.5648690000000 1.0
C      1  0.5023090000000  0.5521420000000  0.4416610000000 1.0
C      1  0.5113120000000  0.5582050000000  0.5593000000000 1.0
C      1  0.5176880000000  0.4406380000000  0.5547730000000 1.0
C      1  0.5007180000000  0.4480870000000  0.4445900000000 1.0
C      1  0.4819640000000  0.4746350000000  0.4422170000000 1.0
C      1  0.4970120000000  0.5628010000000  0.4724590000000 1.0
C      1  0.4930960000000  0.5300600000000  0.5581200000000 1.0
C      1  0.4990400000000  0.4406250000000  0.5287210000000 1.0
C      1  0.5033190000000  0.5194360000000  0.5141370000000 1.0
C      1  0.5007170000000  0.4858340000000  0.5188540000000 1.0
C      1  0.5031590000000  0.4757360000000  0.4882590000000 1.0
C      1  0.5070580000000  0.5062540000000  0.4854930000000 1.0
C      1  0.5317260000000  0.5096700000000  0.4704610000000 1.0
C      1  0.5290630000000  0.5341770000000  0.5167500000000 1.0
C      1  0.5273410000000  0.4790500000000  0.5284380000000 1.0
C      1  0.5310450000000  0.4642790000000  0.4900070000000 1.0
C      1  0.4766210000000  0.5346800000000  0.5286760000000 1.0
C      1  0.4768250000000  0.4660670000000  0.5328210000000 1.0
C      1  0.4753060000000  0.4654260000000  0.4761710000000 1.0
C      1  0.4726900000000  0.5444400000000  0.4573680000000 1.0
C      1  0.5460350000000  0.4607280000000  0.4592840000000 1.0
C      1  0.5452800000000  0.5391810000000  0.4657710000000 1.0
C      1  0.5442290000000  0.5350450000000  0.5460380000000 1.0
C      1  0.5529400000000  0.4582930000000  0.5334770000000 1.0
C      1  0.5239980000000  0.4925270000000  0.5757370000000 1.0
C      1  0.5213710000000  0.4259420000000  0.4847070000000 1.0
C      1  0.5195940000000  0.5071970000000  0.4324870000000 1.0
C      1  0.5190010000000  0.5709600000000  0.5048230000000 1.0
C      1  0.4290170000000  0.5162940000000  0.4858470000000 1.0
C      1  0.4232240000000  0.5155230000000  0.5162790000000 1.0
C      1  0.4231380000000  0.4825700000000  0.5074820000000 1.0
C      1  0.4280420000000  0.4882740000000  0.4743180000000 1.0
C      1  0.5329690000000  0.4694640000000  0.5589560000000 1.0
C      1  0.5219260000000  0.4399000000000  0.4598550000000 1.0
C      1  0.5247100000000  0.5343580000000  0.4398400000000 1.0
C      1  0.5310070000000  0.5636960000000  0.5332080000000 1.0
C      1  0.5310380000000  0.4424530000000  0.5128330000000 1.0
C      1  0.5363070000000  0.4886190000000  0.4479410000000 1.0
C      1  0.5309750000000  0.5622680000000  0.4792310000000 1.0
C      1  0.5255850000000  0.5213840000000  0.5648180000000 1.0
END
