TITL C-1154828-9214-189 -0.000479286802704278 125000 -336.115871820746 0 0 60 (C1) n - 1
REM
REM in /home/nfs/bkarasulu/CARBON/AIRSS/Generating-Clusters/AIREBO/Higher-Symm/Only-C60
REM
REM
REM
REM
REM
REM ./C.cell (28575a23ae977d3b5fae324c64b13b57)
REM
REM compiler GCC version 9.2.1 20190827 (Red Hat 9.2.1-1)
REM options -cpp -mtune=generic -march=x86-64 -g -O0 -fpre-include=/usr/include/finclude/math-vector-fortran.h
REM seed 1688521606 -1922451353 1455201375 -1259928556 764557106 -888448790 -401443417 -704943921 -96482558 -1486957263 -378881888 -1544961517 2008268557 -1848827187 1917772024 1560068924 1421149576 -115610000 -81303992 57601910 1264039788 1973431023 -1690753765 -259771043 1823256940 1434314987 1831482334 -2117650852 -1505746280 -1217121576 -1914746615 1214414886 -337216504
REM
CELL 1.54180   50.00000   50.00000   50.00000   90.00000   90.00000   90.00000
LATT -1
SFAC C  
C      1  0.5241910000000  0.5277210000000  0.5020730000000 1.0
C      1  0.5269790000000  0.4841000000000  0.5223640000000 1.0
C      1  0.5333060000000  0.4789500000000  0.4835430000000 1.0
C      1  0.4957020000000  0.5132530000000  0.5530710000000 1.0
C      1  0.4952290000000  0.4459090000000  0.4950100000000 1.0
C      1  0.4960820000000  0.5210690000000  0.4587140000000 1.0
C      1  0.4501430000000  0.4973600000000  0.4627960000000 1.0
C      1  0.4477630000000  0.5402920000000  0.5144860000000 1.0
C      1  0.4480280000000  0.4694590000000  0.5281420000000 1.0
C      1  0.4964480000000  0.5059910000000  0.4283240000000 1.0
C      1  0.4963360000000  0.5611390000000  0.5325590000000 1.0
C      1  0.4885220000000  0.4253570000000  0.5209250000000 1.0
C      1  0.5392240000000  0.4493220000000  0.4732020000000 1.0
C      1  0.5356720000000  0.5458520000000  0.4756920000000 1.0
C      1  0.5383560000000  0.5081400000000  0.5337370000000 1.0
C      1  0.5657560000000  0.5643110000000  0.5078840000000 1.0
C      1  0.5774470000000  0.4632930000000  0.5079310000000 1.0
C      1  0.5726830000000  0.5129200000000  0.4864690000000 1.0
C      1  0.4888750000000  0.4922260000000  0.5670980000000 1.0
C      1  0.4801610000000  0.4440460000000  0.4696810000000 1.0
C      1  0.4853020000000  0.5495310000000  0.4664680000000 1.0
C      1  0.4716460000000  0.5014680000000  0.4835610000000 1.0
C      1  0.4692240000000  0.5196150000000  0.5116720000000 1.0
C      1  0.4676380000000  0.4861580000000  0.5135290000000 1.0
C      1  0.4986840000000  0.4757960000000  0.5052700000000 1.0
C      1  0.5053660000000  0.4981370000000  0.4805240000000 1.0
C      1  0.4971090000000  0.5292330000000  0.5227160000000 1.0
C      1  0.5225460000000  0.4495890000000  0.5537460000000 1.0
C      1  0.5310610000000  0.4737410000000  0.4385680000000 1.0
C      1  0.5334200000000  0.5716290000000  0.5080110000000 1.0
C      1  0.5064190000000  0.5767710000000  0.5082910000000 1.0
C      1  0.4960650000000  0.4315340000000  0.5510530000000 1.0
C      1  0.5031420000000  0.4751200000000  0.4307880000000 1.0
C      1  0.5215900000000  0.5426030000000  0.4521480000000 1.0
C      1  0.5229330000000  0.5240430000000  0.5526780000000 1.0
C      1  0.5233770000000  0.4312780000000  0.4858340000000 1.0
C      1  0.5437930000000  0.5092130000000  0.4812930000000 1.0
C      1  0.5504640000000  0.5362480000000  0.5201690000000 1.0
C      1  0.5500840000000  0.4653480000000  0.5098350000000 1.0
C      1  0.5352270000000  0.4453530000000  0.5293670000000 1.0
C      1  0.5395880000000  0.4988160000000  0.4494380000000 1.0
C      1  0.5488970000000  0.5653810000000  0.5376350000000 1.0
C      1  0.4424620000000  0.4436690000000  0.5186070000000 1.0
C      1  0.4490480000000  0.5133230000000  0.4396720000000 1.0
C      1  0.4474870000000  0.5538460000000  0.5391860000000 1.0
C      1  0.4853360000000  0.4574140000000  0.4413440000000 1.0
C      1  0.4904410000000  0.5751410000000  0.4857160000000 1.0
C      1  0.4936970000000  0.4594200000000  0.5678430000000 1.0
C      1  0.5269610000000  0.5195280000000  0.4339060000000 1.0
C      1  0.5224510000000  0.5514210000000  0.5478320000000 1.0
C      1  0.5222200000000  0.4248310000000  0.5150410000000 1.0
C      1  0.4388490000000  0.4717240000000  0.4604720000000 1.0
C      1  0.4408570000000  0.5548450000000  0.4914990000000 1.0
C      1  0.4436880000000  0.4743550000000  0.5554030000000 1.0
C      1  0.4676330000000  0.5127500000000  0.4193770000000 1.0
C      1  0.4700760000000  0.5674400000000  0.5471320000000 1.0
C      1  0.4580190000000  0.4210810000000  0.5193070000000 1.0
C      1  0.4645510000000  0.4743420000000  0.5737440000000 1.0
C      1  0.4551450000000  0.4505980000000  0.4517700000000 1.0
C      1  0.4605970000000  0.5669570000000  0.4758520000000 1.0
END
