TITL C-1154826-9507-420 -11.4922267953771 125000 -346.76322086639 0 0 60 (C1) n - 1
REM
REM in /home/nfs/bkarasulu/CARBON/AIRSS/Generating-Clusters/AIREBO/Higher-Symm/Only-C60
REM
REM
REM
REM
REM
REM ./C.cell (28575a23ae977d3b5fae324c64b13b57)
REM
REM compiler GCC version 9.2.1 20190827 (Red Hat 9.2.1-1)
REM options -cpp -mtune=generic -march=x86-64 -g -O0 -fpre-include=/usr/include/finclude/math-vector-fortran.h
REM seed 1183934647 -660003320 -1795218033 -498701292 -2118196546 1842342408 -1430623573 -1331879891 659580204 777923612 588400225 -1723937492 -1341312445 -364392616 -1113297375 1849613108 -705605401 -389085714 -118213209 1521737947 2027292338 251364349 -326325691 -1192544069 405322859 -1679240153 257728729 -1859976234 405344861 834103266 -518914406 -1955201031 659933252
REM
CELL 1.54180   50.00000   50.00000   50.00000   90.00000   90.00000   90.00000
LATT -1
SFAC C  
C      1  0.6142710000000  0.4464250000000  0.4716360000000 1.0
C      1  0.6051610000000  0.5338260000000  0.5188950000000 1.0
C      1  0.5217160000000  0.6243460000000  0.4470100000000 1.0
C      1  0.3258720000000  0.4666970000000  0.6094230000000 1.0
C      1  0.4538690000000  0.3905690000000  0.4885050000000 1.0
C      1  0.5260770000000  0.5049610000000  0.4614560000000 1.0
C      1  0.5114020000000  0.5292860000000  0.4742240000000 1.0
C      1  0.4816110000000  0.5201690000000  0.4774440000000 1.0
C      1  0.4828230000000  0.4912540000000  0.4646940000000 1.0
C      1  0.5080990000000  0.4848700000000  0.4551520000000 1.0
C      1  0.3208150000000  0.4916890000000  0.6151260000000 1.0
C      1  0.4584680000000  0.3660450000000  0.4808060000000 1.0
C      1  0.6286720000000  0.4315600000000  0.4557120000000 1.0
C      1  0.6305770000000  0.5397430000000  0.5205690000000 1.0
C      1  0.5453610000000  0.6349700000000  0.4501550000000 1.0
C      1  0.4770830000000  0.5118820000000  0.5069010000000 1.0
C      1  0.4835170000000  0.4837620000000  0.5087390000000 1.0
C      1  0.5100610000000  0.4834090000000  0.5210830000000 1.0
C      1  0.5307230000000  0.4932660000000  0.5034420000000 1.0
C      1  0.5251870000000  0.5224400000000  0.5008880000000 1.0
C      1  0.5453180000000  0.4559040000000  0.4541160000000 1.0
C      1  0.5622650000000  0.5265080000000  0.4797900000000 1.0
C      1  0.4988330000000  0.5729400000000  0.4537670000000 1.0
C      1  0.4426770000000  0.5161370000000  0.4693080000000 1.0
C      1  0.4749360000000  0.4416890000000  0.4771540000000 1.0
C      1  0.4359530000000  0.4117130000000  0.5043920000000 1.0
C      1  0.6080310000000  0.4583290000000  0.5006580000000 1.0
C      1  0.5764300000000  0.5320340000000  0.5329240000000 1.0
C      1  0.4905350000000  0.6276150000000  0.4408350000000 1.0
C      1  0.3448160000000  0.4441620000000  0.5961790000000 1.0
C      1  0.5596330000000  0.5264750000000  0.5537800000000 1.0
C      1  0.4708000000000  0.6424810000000  0.4303020000000 1.0
C      1  0.3622420000000  0.4364400000000  0.5772720000000 1.0
C      1  0.4182560000000  0.4167010000000  0.5239740000000 1.0
C      1  0.6171780000000  0.4659220000000  0.5247430000000 1.0
C      1  0.3213740000000  0.4355060000000  0.6166160000000 1.0
C      1  0.4620490000000  0.4214440000000  0.4886520000000 1.0
C      1  0.5880490000000  0.4639680000000  0.4763570000000 1.0
C      1  0.5788170000000  0.5328000000000  0.5006860000000 1.0
C      1  0.5029010000000  0.5985530000000  0.4459600000000 1.0
C      1  0.5468960000000  0.5453360000000  0.4652170000000 1.0
C      1  0.4730420000000  0.5611130000000  0.4523030000000 1.0
C      1  0.4440900000000  0.4891850000000  0.4739300000000 1.0
C      1  0.4972570000000  0.4392260000000  0.4601240000000 1.0
C      1  0.5636930000000  0.4718740000000  0.4684410000000 1.0
C      1  0.4690230000000  0.4698790000000  0.4843330000000 1.0
C      1  0.5171860000000  0.4582180000000  0.4542290000000 1.0
C      1  0.5513570000000  0.4971780000000  0.4783300000000 1.0
C      1  0.5192190000000  0.5564300000000  0.4618100000000 1.0
C      1  0.4613420000000  0.5385860000000  0.4632480000000 1.0
C      1  0.5683400000000  0.5272350000000  0.5793470000000 1.0
C      1  0.4507650000000  0.6574490000000  0.4224510000000 1.0
C      1  0.3814180000000  0.4289750000000  0.5603550000000 1.0
C      1  0.3989410000000  0.4221480000000  0.5414890000000 1.0
C      1  0.6248810000000  0.4712650000000  0.5492210000000 1.0
C      1  0.5155800000000  0.5320430000000  0.5257500000000 1.0
C      1  0.4874580000000  0.5258670000000  0.5293000000000 1.0
C      1  0.4835080000000  0.5106140000000  0.5557170000000 1.0
C      1  0.5106790000000  0.4983680000000  0.5467080000000 1.0
C      1  0.5328670000000  0.5205200000000  0.5483740000000 1.0
END
