TITL C-1154810-7815-534 0.00091507402454578 125000 -323.243620539852 0 0 60 (C1) n - 1
REM
REM in /home/nfs/bkarasulu/CARBON/AIRSS/Generating-Clusters/AIREBO/Higher-Symm/Only-C60
REM
REM
REM
REM
REM
REM ./C.cell (28575a23ae977d3b5fae324c64b13b57)
REM
REM compiler GCC version 9.2.1 20190827 (Red Hat 9.2.1-1)
REM options -cpp -mtune=generic -march=x86-64 -g -O0 -fpre-include=/usr/include/finclude/math-vector-fortran.h
REM seed 1040547635 803211235 1149956970 1869666109 709563770 -2052375929 -988005782 -1861904076 462459692 -839248636 1572655831 1762509508 1843996308 729553894 -2101447285 -2113537271 -1596468688 556826467 -235255994 -1373157960 1723837762 330624694 524239374 192565316 -1862349155 -826657987 1225235325 1736934419 -1614163747 -1115776774 -295789888 -870408855 600936859
REM
CELL 1.54180   50.00000   50.00000   50.00000   90.00000   90.00000   90.00000
LATT -1
SFAC C  
C      1  0.4638230000000  0.5302290000000  0.5589790000000 1.0
C      1  0.4862900000000  0.4754810000000  0.5473810000000 1.0
C      1  0.5409530000000  0.5107840000000  0.5521780000000 1.0
C      1  0.5175480000000  0.5362540000000  0.5492690000000 1.0
C      1  0.4426270000000  0.5062920000000  0.5471870000000 1.0
C      1  0.5159900000000  0.4623710000000  0.5406340000000 1.0
C      1  0.4740620000000  0.5206540000000  0.5280000000000 1.0
C      1  0.4940160000000  0.4969090000000  0.5261620000000 1.0
C      1  0.5191170000000  0.5118760000000  0.5276210000000 1.0
C      1  0.4428940000000  0.4407090000000  0.5205940000000 1.0
C      1  0.5801010000000  0.4792950000000  0.5081720000000 1.0
C      1  0.4812910000000  0.5844850000000  0.5211720000000 1.0
C      1  0.4574500000000  0.5195000000000  0.4401720000000 1.0
C      1  0.5093950000000  0.4470740000000  0.4378860000000 1.0
C      1  0.5436450000000  0.5257650000000  0.4436080000000 1.0
C      1  0.5836060000000  0.4997300000000  0.4901380000000 1.0
C      1  0.4771620000000  0.5613560000000  0.4980720000000 1.0
C      1  0.4570060000000  0.4477860000000  0.4986810000000 1.0
C      1  0.4550800000000  0.4943160000000  0.5178980000000 1.0
C      1  0.5182520000000  0.4438590000000  0.5123460000000 1.0
C      1  0.5230010000000  0.5438870000000  0.5165800000000 1.0
C      1  0.4545230000000  0.4762070000000  0.5533480000000 1.0
C      1  0.5391080000000  0.4795590000000  0.5400650000000 1.0
C      1  0.4914520000000  0.5498290000000  0.5562700000000 1.0
C      1  0.4346330000000  0.4861420000000  0.4725700000000 1.0
C      1  0.5468710000000  0.4466300000000  0.4697910000000 1.0
C      1  0.5189060000000  0.5605000000000  0.4671210000000 1.0
C      1  0.4577670000000  0.5337290000000  0.4939150000000 1.0
C      1  0.4867390000000  0.4419550000000  0.4866860000000 1.0
C      1  0.5606330000000  0.5225140000000  0.4907110000000 1.0
C      1  0.4878530000000  0.4337100000000  0.5196590000000 1.0
C      1  0.5765580000000  0.5239040000000  0.5209690000000 1.0
C      1  0.4615710000000  0.5499960000000  0.5244670000000 1.0
C      1  0.5356980000000  0.4621470000000  0.4951090000000 1.0
C      1  0.5041520000000  0.5482900000000  0.4926700000000 1.0
C      1  0.4564690000000  0.4775500000000  0.4932430000000 1.0
C      1  0.5493670000000  0.5488700000000  0.5063660000000 1.0
C      1  0.4357050000000  0.5210340000000  0.5166820000000 1.0
C      1  0.5083830000000  0.4166730000000  0.4944630000000 1.0
C      1  0.5065460000000  0.5212090000000  0.4558610000000 1.0
C      1  0.4797110000000  0.4878310000000  0.4485770000000 1.0
C      1  0.5185170000000  0.4824940000000  0.4529670000000 1.0
C      1  0.5190220000000  0.4854900000000  0.4849400000000 1.0
C      1  0.4971420000000  0.5190330000000  0.4864670000000 1.0
C      1  0.4884990000000  0.4884600000000  0.4967300000000 1.0
C      1  0.4878150000000  0.5750060000000  0.5463260000000 1.0
C      1  0.4403010000000  0.4546690000000  0.5444090000000 1.0
C      1  0.5545950000000  0.4724920000000  0.5172380000000 1.0
C      1  0.5352660000000  0.4388910000000  0.4458580000000 1.0
C      1  0.5361520000000  0.5533260000000  0.4467050000000 1.0
C      1  0.4384220000000  0.4979030000000  0.4481080000000 1.0
C      1  0.4943520000000  0.4616140000000  0.4646880000000 1.0
C      1  0.5344230000000  0.5128330000000  0.4735030000000 1.0
C      1  0.4688770000000  0.5113230000000  0.4706810000000 1.0
C      1  0.5338220000000  0.4975630000000  0.4366320000000 1.0
C      1  0.4868120000000  0.5256750000000  0.4379360000000 1.0
C      1  0.4915050000000  0.4702980000000  0.4261340000000 1.0
C      1  0.5689820000000  0.5216370000000  0.5447840000000 1.0
C      1  0.4507790000000  0.5605820000000  0.5507350000000 1.0
C      1  0.4787610000000  0.4438190000000  0.5438860000000 1.0
END
