TITL C-1154823-9327-493 -0.158048104026865 125000 -344.305406334796 0 0 60 (C1) n - 1
REM
REM in /home/nfs/bkarasulu/CARBON/AIRSS/Generating-Clusters/AIREBO/Higher-Symm/Only-C60
REM
REM
REM
REM
REM
REM ./C.cell (28575a23ae977d3b5fae324c64b13b57)
REM
REM compiler GCC version 9.2.1 20190827 (Red Hat 9.2.1-1)
REM options -cpp -mtune=generic -march=x86-64 -g -O0 -fpre-include=/usr/include/finclude/math-vector-fortran.h
REM seed -145417 -547267902 -810225706 885332893 1852460418 1871444860 422463862 -1688172734 944084974 811331514 481368378 -179300188 -1694476340 -1870402872 -665367756 -359992236 -569252035 295043361 -2037505069 197606353 -1971373993 1089403161 -1915160367 782609714 -2062910751 963919810 -182792108 -782310994 1424770117 -1784158367 -1944754404 -2034261968 1670598265
REM
CELL 1.54180   50.00000   50.00000   50.00000   90.00000   90.00000   90.00000
LATT -1
SFAC C  
C      1  0.5283630000000  0.5411010000000  0.5061240000000 1.0
C      1  0.5374290000000  0.4813110000000  0.4611640000000 1.0
C      1  0.5350470000000  0.4729910000000  0.5334840000000 1.0
C      1  0.5474610000000  0.4580490000000  0.5061450000000 1.0
C      1  0.5465690000000  0.5134050000000  0.4598360000000 1.0
C      1  0.5280120000000  0.5302510000000  0.5352190000000 1.0
C      1  0.5158170000000  0.4577250000000  0.5649990000000 1.0
C      1  0.5223510000000  0.5785160000000  0.4934730000000 1.0
C      1  0.5110260000000  0.4506660000000  0.4379350000000 1.0
C      1  0.5077350000000  0.5407630000000  0.5679160000000 1.0
C      1  0.5128260000000  0.4236820000000  0.4976660000000 1.0
C      1  0.5134000000000  0.5360610000000  0.4316720000000 1.0
C      1  0.4990440000000  0.4806490000000  0.4272030000000 1.0
C      1  0.5194640000000  0.4265190000000  0.5551020000000 1.0
C      1  0.5058620000000  0.5789410000000  0.5228650000000 1.0
C      1  0.4998230000000  0.5074850000000  0.4205930000000 1.0
C      1  0.5014480000000  0.5669000000000  0.5473140000000 1.0
C      1  0.5123760000000  0.4152320000000  0.5281660000000 1.0
C      1  0.5599580000000  0.5400000000000  0.4969470000000 1.0
C      1  0.5683930000000  0.4822140000000  0.4716420000000 1.0
C      1  0.5588760000000  0.4923690000000  0.5442460000000 1.0
C      1  0.5727790000000  0.4696770000000  0.4933710000000 1.0
C      1  0.5678240000000  0.5227720000000  0.4800970000000 1.0
C      1  0.5549100000000  0.5171440000000  0.5459480000000 1.0
C      1  0.5056360000000  0.4866530000000  0.5227480000000 1.0
C      1  0.5002370000000  0.5308110000000  0.4911260000000 1.0
C      1  0.5048560000000  0.4803400000000  0.4710070000000 1.0
C      1  0.5001960000000  0.5169250000000  0.5208960000000 1.0
C      1  0.5209540000000  0.4760250000000  0.4971970000000 1.0
C      1  0.5158050000000  0.5108780000000  0.4741090000000 1.0
C      1  0.4789200000000  0.5445420000000  0.5536060000000 1.0
C      1  0.4820670000000  0.5304420000000  0.4359230000000 1.0
C      1  0.4854250000000  0.4329210000000  0.5145140000000 1.0
C      1  0.4917610000000  0.4440090000000  0.5462970000000 1.0
C      1  0.4817280000000  0.4606430000000  0.4450320000000 1.0
C      1  0.4908620000000  0.5798820000000  0.4944630000000 1.0
C      1  0.4312900000000  0.4835550000000  0.5203890000000 1.0
C      1  0.4410740000000  0.5267590000000  0.4952440000000 1.0
C      1  0.4509790000000  0.4878210000000  0.4645250000000 1.0
C      1  0.4459780000000  0.5137760000000  0.5214990000000 1.0
C      1  0.4374470000000  0.4615660000000  0.5057570000000 1.0
C      1  0.4510270000000  0.5148410000000  0.4714310000000 1.0
C      1  0.4675100000000  0.4573620000000  0.5020240000000 1.0
C      1  0.4738810000000  0.5253080000000  0.5341780000000 1.0
C      1  0.4693430000000  0.5333120000000  0.4601390000000 1.0
C      1  0.4790280000000  0.5543620000000  0.4841430000000 1.0
C      1  0.4818020000000  0.4695180000000  0.5295120000000 1.0
C      1  0.4750710000000  0.4703130000000  0.4745200000000 1.0
C      1  0.5297080000000  0.4511370000000  0.4596530000000 1.0
C      1  0.5241950000000  0.4859870000000  0.5629720000000 1.0
C      1  0.5301820000000  0.5556040000000  0.4754150000000 1.0
C      1  0.5318060000000  0.5401670000000  0.4524040000000 1.0
C      1  0.5189050000000  0.5126510000000  0.5627760000000 1.0
C      1  0.5311450000000  0.4393850000000  0.4851110000000 1.0
C      1  0.4486060000000  0.5002540000000  0.5520420000000 1.0
C      1  0.4343650000000  0.5761680000000  0.4986460000000 1.0
C      1  0.4216310000000  0.4560820000000  0.4829900000000 1.0
C      1  0.4631690000000  0.4797600000000  0.5530440000000 1.0
C      1  0.4276090000000  0.4722060000000  0.4611560000000 1.0
C      1  0.4490100000000  0.5536120000000  0.4943860000000 1.0
END
