TITL C-1154829-9094-341 0.00267354606380058 125000 -330.12283869392 0 0 60 (C1) n - 1
REM
REM in /home/nfs/bkarasulu/CARBON/AIRSS/Generating-Clusters/AIREBO/Higher-Symm/Only-C60
REM
REM
REM
REM
REM
REM ./C.cell (28575a23ae977d3b5fae324c64b13b57)
REM
REM compiler GCC version 9.2.1 20190827 (Red Hat 9.2.1-1)
REM options -cpp -mtune=generic -march=x86-64 -g -O0 -fpre-include=/usr/include/finclude/math-vector-fortran.h
REM seed -1858640502 -1287057378 -1670124207 -474328862 25785511 -655312225 -739154655 209448240 536911892 -355044456 -1782841089 -1130679317 -756838912 146702106 1641881963 -1915332363 346472520 277763188 -766218504 -237217275 580102978 1223775583 -1110037149 -1843378086 -1308390903 -163608112 -1804332205 -1764402221 39441074 902471425 -1026468244 -214929091 -943786948
REM
CELL 1.54180   50.00000   50.00000   50.00000   90.00000   90.00000   90.00000
LATT -1
SFAC C  
C      1  0.5338580000000  0.4294720000000  0.4772470000000 1.0
C      1  0.4320130000000  0.4667810000000  0.4750740000000 1.0
C      1  0.4663260000000  0.5694150000000  0.4766980000000 1.0
C      1  0.5678830000000  0.5329900000000  0.4751040000000 1.0
C      1  0.5373650000000  0.5706560000000  0.5187290000000 1.0
C      1  0.4307110000000  0.5366240000000  0.5198120000000 1.0
C      1  0.4628140000000  0.4295010000000  0.5188550000000 1.0
C      1  0.5694010000000  0.4633120000000  0.5191870000000 1.0
C      1  0.4683350000000  0.5272280000000  0.5486760000000 1.0
C      1  0.5293990000000  0.5341460000000  0.5488220000000 1.0
C      1  0.5319810000000  0.4728850000000  0.5483020000000 1.0
C      1  0.4708190000000  0.4661070000000  0.5486330000000 1.0
C      1  0.4824760000000  0.4690120000000  0.4551570000000 1.0
C      1  0.5329310000000  0.4816400000000  0.4594650000000 1.0
C      1  0.5168460000000  0.5313950000000  0.4567410000000 1.0
C      1  0.4671500000000  0.5181230000000  0.4570630000000 1.0
C      1  0.5147390000000  0.4865070000000  0.5656250000000 1.0
C      1  0.4836840000000  0.4823450000000  0.5669650000000 1.0
C      1  0.4855930000000  0.5136000000000  0.5659730000000 1.0
C      1  0.5167040000000  0.5177340000000  0.5671260000000 1.0
C      1  0.5101220000000  0.5175460000000  0.4306800000000 1.0
C      1  0.4795380000000  0.5118040000000  0.4294890000000 1.0
C      1  0.4909770000000  0.4829110000000  0.4297420000000 1.0
C      1  0.5217780000000  0.4886690000000  0.4308490000000 1.0
C      1  0.5086010000000  0.4632650000000  0.4712830000000 1.0
C      1  0.4653010000000  0.4892270000000  0.4731170000000 1.0
C      1  0.4891750000000  0.5358290000000  0.4728160000000 1.0
C      1  0.5340150000000  0.5112200000000  0.4746270000000 1.0
C      1  0.5154210000000  0.5374360000000  0.5216520000000 1.0
C      1  0.4639220000000  0.5145000000000  0.5207640000000 1.0
C      1  0.4846900000000  0.4627950000000  0.5213080000000 1.0
C      1  0.5361280000000  0.4853580000000  0.5201290000000 1.0
C      1  0.5477940000000  0.4510910000000  0.4645540000000 1.0
C      1  0.4540560000000  0.4521170000000  0.4635580000000 1.0
C      1  0.4519460000000  0.5478390000000  0.4645630000000 1.0
C      1  0.5460190000000  0.5477090000000  0.4636390000000 1.0
C      1  0.5517730000000  0.5493570000000  0.5323080000000 1.0
C      1  0.4523250000000  0.5502550000000  0.5335540000000 1.0
C      1  0.4484420000000  0.4508540000000  0.5323400000000 1.0
C      1  0.5480450000000  0.4498910000000  0.5334660000000 1.0
C      1  0.5614680000000  0.4702390000000  0.4869520000000 1.0
C      1  0.4704770000000  0.4370410000000  0.4870080000000 1.0
C      1  0.4374320000000  0.5299310000000  0.4873000000000 1.0
C      1  0.5297130000000  0.5633910000000  0.4867150000000 1.0
C      1  0.5653610000000  0.5288380000000  0.5116870000000 1.0
C      1  0.4716690000000  0.5652380000000  0.5130080000000 1.0
C      1  0.4348740000000  0.4711370000000  0.5116140000000 1.0
C      1  0.5287330000000  0.4348340000000  0.5134040000000 1.0
C      1  0.5657530000000  0.4972100000000  0.5157750000000 1.0
C      1  0.4968380000000  0.4338230000000  0.5165160000000 1.0
C      1  0.4344260000000  0.5027210000000  0.5160520000000 1.0
C      1  0.5033500000000  0.5663100000000  0.5162800000000 1.0
C      1  0.5636660000000  0.5013790000000  0.4823010000000 1.0
C      1  0.4979690000000  0.5654000000000  0.4829350000000 1.0
C      1  0.4357170000000  0.4984970000000  0.4824700000000 1.0
C      1  0.5025220000000  0.4341850000000  0.4833510000000 1.0
C      1  0.4689090000000  0.5360720000000  0.4986180000000 1.0
C      1  0.5356700000000  0.5321770000000  0.4988310000000 1.0
C      1  0.4645130000000  0.4685700000000  0.4982800000000 1.0
C      1  0.5298440000000  0.4638590000000  0.4977140000000 1.0
END
