TITL C-1154824-75-542 -0.00269599847736408 125000 -339.481911848155 0 0 60 (C1) n - 1
REM
REM in /home/nfs/bkarasulu/CARBON/AIRSS/Generating-Clusters/AIREBO/Higher-Symm/Only-C60
REM
REM
REM
REM
REM
REM ./C.cell (28575a23ae977d3b5fae324c64b13b57)
REM
REM compiler GCC version 9.2.1 20190827 (Red Hat 9.2.1-1)
REM options -cpp -mtune=generic -march=x86-64 -g -O0 -fpre-include=/usr/include/finclude/math-vector-fortran.h
REM seed 469117829 1249975760 -1613894335 -132675098 1612988778 -2102310407 1292672855 -1295938523 517440022 1009907044 -1357516933 -109916081 1577060858 1820461747 1372032982 -798119582 895353502 244790002 -1329420155 -568155864 1775649257 868983460 221616753 1248908457 409986190 -345793636 -1040224829 -1617324679 1582883059 1402741364 -1232193149 1771142357 -1606469363
REM
CELL 1.54180   50.00000   50.00000   50.00000   90.00000   90.00000   90.00000
LATT -1
SFAC C  
C      1  0.5135940000000  0.4722100000000  0.4552410000000 1.0
C      1  0.4738740000000  0.4837530000000  0.5395690000000 1.0
C      1  0.4851430000000  0.4835660000000  0.4590470000000 1.0
C      1  0.5233660000000  0.4768650000000  0.5358500000000 1.0
C      1  0.5599690000000  0.4866750000000  0.4825400000000 1.0
C      1  0.4310580000000  0.4924100000000  0.5140710000000 1.0
C      1  0.4423180000000  0.4930730000000  0.4852240000000 1.0
C      1  0.5676830000000  0.4942000000000  0.5153220000000 1.0
C      1  0.5145230000000  0.5259420000000  0.5458320000000 1.0
C      1  0.4897350000000  0.5186320000000  0.4397180000000 1.0
C      1  0.4848200000000  0.5168100000000  0.5602310000000 1.0
C      1  0.5179700000000  0.5325240000000  0.4462960000000 1.0
C      1  0.5158760000000  0.4516150000000  0.4888980000000 1.0
C      1  0.4890960000000  0.4366050000000  0.5140610000000 1.0
C      1  0.4862650000000  0.4492920000000  0.4834860000000 1.0
C      1  0.5205670000000  0.4337260000000  0.5139780000000 1.0
C      1  0.4876720000000  0.5637950000000  0.5305740000000 1.0
C      1  0.5125230000000  0.5625040000000  0.4549580000000 1.0
C      1  0.5079380000000  0.5570910000000  0.5439300000000 1.0
C      1  0.4963350000000  0.5655700000000  0.4740270000000 1.0
C      1  0.4873370000000  0.4954340000000  0.4207510000000 1.0
C      1  0.5098460000000  0.4780020000000  0.5807010000000 1.0
C      1  0.5106390000000  0.4831640000000  0.4107690000000 1.0
C      1  0.4863620000000  0.4868920000000  0.5710560000000 1.0
C      1  0.4385960000000  0.4626330000000  0.5107810000000 1.0
C      1  0.5782700000000  0.4585290000000  0.4879580000000 1.0
C      1  0.5632990000000  0.4634320000000  0.5146620000000 1.0
C      1  0.4226880000000  0.4412810000000  0.5055870000000 1.0
C      1  0.4788170000000  0.5418860000000  0.4833510000000 1.0
C      1  0.5547910000000  0.5558700000000  0.5337490000000 1.0
C      1  0.5251430000000  0.5316220000000  0.4781000000000 1.0
C      1  0.4725500000000  0.5413310000000  0.5156280000000 1.0
C      1  0.5294880000000  0.4796200000000  0.4818160000000 1.0
C      1  0.4700210000000  0.4629680000000  0.5170770000000 1.0
C      1  0.4667070000000  0.4748460000000  0.4851530000000 1.0
C      1  0.5373100000000  0.4565320000000  0.5222840000000 1.0
C      1  0.4467160000000  0.4785490000000  0.5593070000000 1.0
C      1  0.5550700000000  0.4779110000000  0.4341110000000 1.0
C      1  0.5578850000000  0.4901690000000  0.5628100000000 1.0
C      1  0.4395080000000  0.4852550000000  0.4379290000000 1.0
C      1  0.4895660000000  0.5142110000000  0.4734290000000 1.0
C      1  0.5109070000000  0.5021950000000  0.5221330000000 1.0
C      1  0.5156480000000  0.5045440000000  0.4923690000000 1.0
C      1  0.4810190000000  0.5147050000000  0.5273240000000 1.0
C      1  0.4523110000000  0.5239940000000  0.5532840000000 1.0
C      1  0.5491380000000  0.5216540000000  0.4478290000000 1.0
C      1  0.5462130000000  0.5308060000000  0.5424750000000 1.0
C      1  0.4585630000000  0.5258570000000  0.4512630000000 1.0
C      1  0.5273710000000  0.4730200000000  0.4310490000000 1.0
C      1  0.4378360000000  0.4618530000000  0.5782180000000 1.0
C      1  0.4663090000000  0.4779450000000  0.4323830000000 1.0
C      1  0.5315920000000  0.4795850000000  0.5631300000000 1.0
C      1  0.5516140000000  0.5649730000000  0.5081020000000 1.0
C      1  0.4475660000000  0.5508520000000  0.4861170000000 1.0
C      1  0.4397570000000  0.5508900000000  0.5126430000000 1.0
C      1  0.5425090000000  0.5486900000000  0.4884520000000 1.0
C      1  0.4396180000000  0.5048370000000  0.4591130000000 1.0
C      1  0.5619810000000  0.5072320000000  0.5399940000000 1.0
C      1  0.5609780000000  0.4978150000000  0.4535500000000 1.0
C      1  0.4381340000000  0.5015560000000  0.5407130000000 1.0
END
