TITL C-1154826-9507-674 -0.000784295162630989 125000 -362.347418460869 0 0 60 (C1) n - 1
REM
REM in /home/nfs/bkarasulu/CARBON/AIRSS/Generating-Clusters/AIREBO/Higher-Symm/Only-C60
REM
REM
REM
REM
REM
REM ./C.cell (28575a23ae977d3b5fae324c64b13b57)
REM
REM compiler GCC version 9.2.1 20190827 (Red Hat 9.2.1-1)
REM options -cpp -mtune=generic -march=x86-64 -g -O0 -fpre-include=/usr/include/finclude/math-vector-fortran.h
REM seed -2135023206 -512756814 -543509014 -1517703728 1427755921 -2007187345 -1291162318 -1764416873 83808557 -1801366613 -987528298 -57913928 -1552819134 -729323806 -631181123 1097231660 733687652 -1912463800 2078574458 1919726148 1298865157 -394866785 1934791080 -147330712 2120519131 -1880182913 1415415731 494572924 -229571013 503779531 1181056291 1989592602 34163594
REM
CELL 1.54180   50.00000   50.00000   50.00000   90.00000   90.00000   90.00000
LATT -1
SFAC C  
C      1  0.4798750000000  0.4642000000000  0.4634090000000 1.0
C      1  0.4435370000000  0.5127850000000  0.4573680000000 1.0
C      1  0.4834980000000  0.5489920000000  0.4588710000000 1.0
C      1  0.5398110000000  0.5269590000000  0.4748280000000 1.0
C      1  0.5349660000000  0.4607740000000  0.4640800000000 1.0
C      1  0.5072300000000  0.4510740000000  0.4761920000000 1.0
C      1  0.5534480000000  0.5024450000000  0.4615500000000 1.0
C      1  0.5163360000000  0.5447390000000  0.4594880000000 1.0
C      1  0.4629910000000  0.5281260000000  0.4732170000000 1.0
C      1  0.4461200000000  0.4670870000000  0.4598560000000 1.0
C      1  0.4692420000000  0.5244200000000  0.4181260000000 1.0
C      1  0.5191790000000  0.5380040000000  0.4270350000000 1.0
C      1  0.5442060000000  0.4961290000000  0.4352710000000 1.0
C      1  0.5110060000000  0.4605540000000  0.4217720000000 1.0
C      1  0.4578300000000  0.4762860000000  0.4324930000000 1.0
C      1  0.5371090000000  0.5181570000000  0.4193190000000 1.0
C      1  0.4900450000000  0.5392380000000  0.4299500000000 1.0
C      1  0.4539300000000  0.5049310000000  0.4318050000000 1.0
C      1  0.4853870000000  0.4652720000000  0.4306320000000 1.0
C      1  0.5330230000000  0.4697420000000  0.4366370000000 1.0
C      1  0.5261370000000  0.5256100000000  0.5843720000000 1.0
C      1  0.5348250000000  0.4765330000000  0.5904850000000 1.0
C      1  0.4956670000000  0.4542730000000  0.5667220000000 1.0
C      1  0.4663110000000  0.4918950000000  0.5808400000000 1.0
C      1  0.4836920000000  0.5397030000000  0.5628820000000 1.0
C      1  0.4643590000000  0.5188770000000  0.5727070000000 1.0
C      1  0.4733680000000  0.4704170000000  0.5632950000000 1.0
C      1  0.5243810000000  0.4561320000000  0.5742760000000 1.0
C      1  0.5402680000000  0.5016990000000  0.5788800000000 1.0
C      1  0.5117900000000  0.5383450000000  0.5634220000000 1.0
C      1  0.4560940000000  0.5203370000000  0.5417050000000 1.0
C      1  0.5269290000000  0.5409400000000  0.5389410000000 1.0
C      1  0.5524880000000  0.5011610000000  0.5538310000000 1.0
C      1  0.5428780000000  0.4482120000000  0.5491750000000 1.0
C      1  0.4605730000000  0.4697380000000  0.5379420000000 1.0
C      1  0.5486170000000  0.5228100000000  0.5361680000000 1.0
C      1  0.4716880000000  0.5499420000000  0.5355150000000 1.0
C      1  0.4430660000000  0.4916520000000  0.5314590000000 1.0
C      1  0.5092290000000  0.4423580000000  0.5400460000000 1.0
C      1  0.5556830000000  0.4760740000000  0.5368600000000 1.0
C      1  0.4644710000000  0.5679830000000  0.5083640000000 1.0
C      1  0.5187630000000  0.5563320000000  0.5163800000000 1.0
C      1  0.5589430000000  0.4841790000000  0.5049760000000 1.0
C      1  0.4892810000000  0.4362570000000  0.5186010000000 1.0
C      1  0.4305150000000  0.4947950000000  0.4999750000000 1.0
C      1  0.4769380000000  0.5095090000000  0.4948280000000 1.0
C      1  0.5263350000000  0.5042790000000  0.4936810000000 1.0
C      1  0.5175950000000  0.4755210000000  0.4971180000000 1.0
C      1  0.5021430000000  0.5208730000000  0.5032760000000 1.0
C      1  0.4834980000000  0.4779760000000  0.4935500000000 1.0
C      1  0.4492930000000  0.5203530000000  0.5097460000000 1.0
C      1  0.4939510000000  0.5681730000000  0.5199420000000 1.0
C      1  0.5534120000000  0.5139990000000  0.5100540000000 1.0
C      1  0.5281360000000  0.4635140000000  0.5220650000000 1.0
C      1  0.4729890000000  0.4588390000000  0.5158330000000 1.0
C      1  0.5528290000000  0.4784910000000  0.4784230000000 1.0
C      1  0.4627810000000  0.5605370000000  0.4819960000000 1.0
C      1  0.5281420000000  0.5544460000000  0.4900110000000 1.0
C      1  0.4993660000000  0.4272890000000  0.4947030000000 1.0
C      1  0.4338030000000  0.4900340000000  0.4725160000000 1.0
END
