TITL C-1154804-8633-65 -0.000229357824362281 125000 -333.009518303224 0 0 60 (C5) n - 1
REM
REM in /home/nfs/bkarasulu/CARBON/AIRSS/Generating-Clusters/AIREBO/Higher-Symm/Only-C60
REM
REM
REM
REM
REM
REM ./C.cell (28575a23ae977d3b5fae324c64b13b57)
REM
REM compiler GCC version 9.2.1 20190827 (Red Hat 9.2.1-1)
REM options -cpp -mtune=generic -march=x86-64 -g -O0 -fpre-include=/usr/include/finclude/math-vector-fortran.h
REM seed -216838443 -691393547 -966997717 1723339189 -716270716 -573236915 586753648 1300773678 -508259165 -22376466 61165997 -2036720553 -1666617077 -1151137603 798216773 -500547104 664376764 253023106 1574664797 -874422105 -129841255 -1511416471 -651843796 -723140120 286879506 1350459896 -1756067207 754509924 1345572743 26746128 -1825096537 625912360 1567268495
REM
CELL 1.54180   50.00000   50.00000   50.00000   90.00000   90.00000   90.00000
LATT -1
SFAC C  
C      1  0.5265730000000  0.4865310000000  0.4492500000000 1.0
C      1  0.5564790000000  0.4865360000000  0.5095900000000 1.0
C      1  0.5083330000000  0.4865320000000  0.5566760000000 1.0
C      1  0.4486740000000  0.4865260000000  0.5254390000000 1.0
C      1  0.4599470000000  0.4865280000000  0.4590450000000 1.0
C      1  0.5238440000000  0.5653350000000  0.5080480000000 1.0
C      1  0.4997100000000  0.5653340000000  0.5251680000000 1.0
C      1  0.4759710000000  0.5653320000000  0.5075060000000 1.0
C      1  0.4854320000000  0.5653320000000  0.4794700000000 1.0
C      1  0.5150190000000  0.5653340000000  0.4798050000000 1.0
C      1  0.4706850000000  0.5320180000000  0.5521910000000 1.0
C      1  0.4413030000000  0.5320140000000  0.4882520000000 1.0
C      1  0.4930370000000  0.5320190000000  0.4405470000000 1.0
C      1  0.5543880000000  0.5320220000000  0.4750040000000 1.0
C      1  0.5405750000000  0.5320230000000  0.5440060000000 1.0
C      1  0.5777600000000  0.5150090000000  0.4754600000000 1.0
C      1  0.5473650000000  0.5150090000000  0.5663740000000 1.0
C      1  0.4515110000000  0.5150010000000  0.5655590000000 1.0
C      1  0.4226640000000  0.5149970000000  0.4741460000000 1.0
C      1  0.5006920000000  0.5150030000000  0.4184600000000 1.0
C      1  0.4504690000000  0.5170480000000  0.5206100000000 1.0
C      1  0.4650940000000  0.5170520000000  0.4592610000000 1.0
C      1  0.5279540000000  0.5170530000000  0.4542130000000 1.0
C      1  0.5521830000000  0.5170590000000  0.5124420000000 1.0
C      1  0.5042920000000  0.5170550000000  0.5534740000000 1.0
C      1  0.5517110000000  0.4746670000000  0.4437060000000 1.0
C      1  0.5695200000000  0.4746720000000  0.5317850000000 1.0
C      1  0.4912550000000  0.4746660000000  0.5759360000000 1.0
C      1  0.4250790000000  0.4746590000000  0.5151490000000 1.0
C      1  0.4624430000000  0.4746630000000  0.4334240000000 1.0
C      1  0.4568680000000  0.4294100000000  0.4963210000000 1.0
C      1  0.4901740000000  0.4294120000000  0.4578370000000 1.0
C      1  0.5370680000000  0.4294160000000  0.4776220000000 1.0
C      1  0.5327430000000  0.4294170000000  0.5283330000000 1.0
C      1  0.4831770000000  0.4294120000000  0.5398890000000 1.0
C      1  0.4700670000000  0.4406100000000  0.4741160000000 1.0
C      1  0.5153700000000  0.4406130000000  0.4635310000000 1.0
C      1  0.5394390000000  0.4406160000000  0.5033450000000 1.0
C      1  0.5090110000000  0.4406140000000  0.5385370000000 1.0
C      1  0.4661370000000  0.4406090000000  0.5204730000000 1.0
C      1  0.5260090000000  0.5260270000000  0.4927550000000 1.0
C      1  0.5149260000000  0.5260300000000  0.5224990000000 1.0
C      1  0.4832130000000  0.5260280000000  0.5211490000000 1.0
C      1  0.4746960000000  0.5260230000000  0.4905720000000 1.0
C      1  0.5011460000000  0.5260300000000  0.4730240000000 1.0
C      1  0.4726080000000  0.5503020000000  0.4591090000000 1.0
C      1  0.5304180000000  0.5503030000000  0.4613150000000 1.0
C      1  0.5461890000000  0.5503080000000  0.5169820000000 1.0
C      1  0.4981200000000  0.5503040000000  0.5491780000000 1.0
C      1  0.4526460000000  0.5502980000000  0.5134150000000 1.0
C      1  0.5117820000000  0.4712090000000  0.4734500000000 1.0
C      1  0.5288930000000  0.4712120000000  0.5029990000000 1.0
C      1  0.5060780000000  0.4712100000000  0.5284040000000 1.0
C      1  0.4748670000000  0.4712060000000  0.5145560000000 1.0
C      1  0.4783910000000  0.4712080000000  0.4805920000000 1.0
C      1  0.4464740000000  0.4918250000000  0.5565830000000 1.0
C      1  0.4296470000000  0.4918230000000  0.4665770000000 1.0
C      1  0.5100460000000  0.4918280000000  0.4227610000000 1.0
C      1  0.5765640000000  0.4918340000000  0.4856870000000 1.0
C      1  0.5372720000000  0.4918320000000  0.5683930000000 1.0
END
