TITL C-1154827-9204-365 0.00187961883011399 125000 -339.709875717022 0 0 60 (C1) n - 1
REM
REM in /home/nfs/bkarasulu/CARBON/AIRSS/Generating-Clusters/AIREBO/Higher-Symm/Only-C60
REM
REM
REM
REM
REM
REM ./C.cell (28575a23ae977d3b5fae324c64b13b57)
REM
REM compiler GCC version 9.2.1 20190827 (Red Hat 9.2.1-1)
REM options -cpp -mtune=generic -march=x86-64 -g -O0 -fpre-include=/usr/include/finclude/math-vector-fortran.h
REM seed -2138046222 1614472487 -1396813664 814356009 -1946022649 -731201098 -940044677 683885472 1889298458 590025927 -61668182 -526109340 236432056 -1880981501 -1633600652 57392333 875775895 -1853615127 -1740432013 372953154 289476872 -983807363 -1297024583 -508571503 -581118495 -818209283 -874439374 1980030254 363891342 1130679299 -1941442019 1849218167 861980303
REM
CELL 1.54180   50.00000   50.00000   50.00000   90.00000   90.00000   90.00000
LATT -1
SFAC C  
C      1  0.4307270000000  0.5357320000000  0.5181640000000 1.0
C      1  0.4408510000000  0.4485520000000  0.5187920000000 1.0
C      1  0.5214350000000  0.4272070000000  0.5138570000000 1.0
C      1  0.5820100000000  0.5039740000000  0.5197500000000 1.0
C      1  0.5109450000000  0.5948060000000  0.5060620000000 1.0
C      1  0.4896040000000  0.5238600000000  0.4960850000000 1.0
C      1  0.4768750000000  0.4973100000000  0.4845070000000 1.0
C      1  0.4993290000000  0.4770190000000  0.4961690000000 1.0
C      1  0.5294660000000  0.4836420000000  0.5008200000000 1.0
C      1  0.5170580000000  0.5108360000000  0.4845750000000 1.0
C      1  0.5003230000000  0.4735540000000  0.4625330000000 1.0
C      1  0.5278310000000  0.4852900000000  0.4410230000000 1.0
C      1  0.5150930000000  0.5095190000000  0.4540750000000 1.0
C      1  0.4868130000000  0.5223060000000  0.4401920000000 1.0
C      1  0.4783110000000  0.4940560000000  0.4521170000000 1.0
C      1  0.4654500000000  0.5406240000000  0.4468990000000 1.0
C      1  0.4528470000000  0.4793130000000  0.4462530000000 1.0
C      1  0.5165550000000  0.4595010000000  0.4288460000000 1.0
C      1  0.5565600000000  0.4869160000000  0.4451300000000 1.0
C      1  0.5164570000000  0.5390520000000  0.4410010000000 1.0
C      1  0.5348090000000  0.5562320000000  0.4816030000000 1.0
C      1  0.4557300000000  0.5427440000000  0.4783490000000 1.0
C      1  0.4448340000000  0.4671100000000  0.4762360000000 1.0
C      1  0.5027210000000  0.4421680000000  0.4734550000000 1.0
C      1  0.5613460000000  0.4814520000000  0.4768120000000 1.0
C      1  0.4392390000000  0.5240190000000  0.4950710000000 1.0
C      1  0.4547620000000  0.4448190000000  0.4950820000000 1.0
C      1  0.5290130000000  0.4366270000000  0.4889620000000 1.0
C      1  0.5677480000000  0.5107490000000  0.4927230000000 1.0
C      1  0.5112890000000  0.5678210000000  0.4998080000000 1.0
C      1  0.5063550000000  0.4400720000000  0.4415990000000 1.0
C      1  0.5808390000000  0.5039270000000  0.4619150000000 1.0
C      1  0.5315500000000  0.5567880000000  0.4544320000000 1.0
C      1  0.4407140000000  0.5590300000000  0.4520830000000 1.0
C      1  0.4296810000000  0.4578120000000  0.4470870000000 1.0
C      1  0.5063100000000  0.5366010000000  0.5442530000000 1.0
C      1  0.4598640000000  0.5214060000000  0.5578550000000 1.0
C      1  0.4663020000000  0.4732390000000  0.5529930000000 1.0
C      1  0.5160280000000  0.4691160000000  0.5453080000000 1.0
C      1  0.5491800000000  0.5076710000000  0.5611180000000 1.0
C      1  0.4818880000000  0.5323100000000  0.5264370000000 1.0
C      1  0.4650220000000  0.5048910000000  0.5293400000000 1.0
C      1  0.4833180000000  0.4767980000000  0.5237720000000 1.0
C      1  0.5348090000000  0.4873910000000  0.5299170000000 1.0
C      1  0.5410070000000  0.5207540000000  0.5335340000000 1.0
C      1  0.5251790000000  0.5039210000000  0.5760550000000 1.0
C      1  0.5052630000000  0.5251390000000  0.5703800000000 1.0
C      1  0.4788630000000  0.5134940000000  0.5763940000000 1.0
C      1  0.4814110000000  0.4840810000000  0.5746160000000 1.0
C      1  0.5100700000000  0.4789620000000  0.5709000000000 1.0
C      1  0.5264210000000  0.5451450000000  0.5189480000000 1.0
C      1  0.4508530000000  0.5415430000000  0.5366220000000 1.0
C      1  0.4438030000000  0.4790640000000  0.5275750000000 1.0
C      1  0.4996560000000  0.4470910000000  0.5263580000000 1.0
C      1  0.5672260000000  0.4916970000000  0.5392350000000 1.0
C      1  0.4852410000000  0.5549430000000  0.4884140000000 1.0
C      1  0.4463030000000  0.4927730000000  0.4964760000000 1.0
C      1  0.4826400000000  0.4405020000000  0.4976030000000 1.0
C      1  0.5456090000000  0.4591800000000  0.4894180000000 1.0
C      1  0.5425640000000  0.5278540000000  0.4944120000000 1.0
END
