TITL C-1154816-9297-456 -0.00342392432435331 125000 -354.944024410127 0 0 60 (C1) n - 1
REM
REM in /home/nfs/bkarasulu/CARBON/AIRSS/Generating-Clusters/AIREBO/Higher-Symm/Only-C60
REM
REM
REM
REM
REM
REM ./C.cell (28575a23ae977d3b5fae324c64b13b57)
REM
REM compiler GCC version 9.2.1 20190827 (Red Hat 9.2.1-1)
REM options -cpp -mtune=generic -march=x86-64 -g -O0 -fpre-include=/usr/include/finclude/math-vector-fortran.h
REM seed 1355787965 -1601169640 2004259930 -266089289 -782421956 -960817196 91261251 968651033 7599271 -1807398215 1864148123 567191774 43002706 2008590821 1323081916 1224037504 2024216908 1815259035 -2063219581 589043298 552600235 306623994 1506586176 -932727849 1065610951 -113041970 -172167883 -1696456930 1357072642 1073127804 -216268780 1149604461 -1380202812
REM
CELL 1.54180   50.00000   50.00000   50.00000   90.00000   90.00000   90.00000
LATT -1
SFAC C  
C      1  0.4246150000000  0.4732110000000  0.5299420000000 1.0
C      1  0.4372840000000  0.5524810000000  0.5274370000000 1.0
C      1  0.5137190000000  0.5771690000000  0.5265180000000 1.0
C      1  0.5795980000000  0.5266100000000  0.5275730000000 1.0
C      1  0.5612360000000  0.4460910000000  0.5216850000000 1.0
C      1  0.4867400000000  0.4224370000000  0.5279410000000 1.0
C      1  0.5756140000000  0.4719630000000  0.5277690000000 1.0
C      1  0.5629910000000  0.5515360000000  0.5313120000000 1.0
C      1  0.4841110000000  0.5806050000000  0.5227440000000 1.0
C      1  0.4210840000000  0.5271360000000  0.5250680000000 1.0
C      1  0.4378290000000  0.4464280000000  0.5275080000000 1.0
C      1  0.5162830000000  0.4210400000000  0.5219110000000 1.0
C      1  0.4457480000000  0.5131790000000  0.4413160000000 1.0
C      1  0.4841390000000  0.5503400000000  0.4398190000000 1.0
C      1  0.5377220000000  0.5379760000000  0.4529400000000 1.0
C      1  0.5534910000000  0.4875130000000  0.4504180000000 1.0
C      1  0.5154500000000  0.4460710000000  0.4494740000000 1.0
C      1  0.4606190000000  0.4621520000000  0.4421800000000 1.0
C      1  0.5524350000000  0.5152670000000  0.4428570000000 1.0
C      1  0.5119110000000  0.5510990000000  0.4468870000000 1.0
C      1  0.4607010000000  0.5367220000000  0.4494560000000 1.0
C      1  0.4464710000000  0.4858100000000  0.4508210000000 1.0
C      1  0.4845180000000  0.4482630000000  0.4502950000000 1.0
C      1  0.5396810000000  0.4597810000000  0.4493920000000 1.0
C      1  0.5568400000000  0.4563820000000  0.4746460000000 1.0
C      1  0.4779850000000  0.4337280000000  0.4795210000000 1.0
C      1  0.4356780000000  0.4834660000000  0.4811100000000 1.0
C      1  0.4539010000000  0.5452800000000  0.4797100000000 1.0
C      1  0.5166750000000  0.5604630000000  0.4782970000000 1.0
C      1  0.5627450000000  0.5188530000000  0.4775910000000 1.0
C      1  0.4525670000000  0.4562620000000  0.4770430000000 1.0
C      1  0.5095710000000  0.4298820000000  0.4748390000000 1.0
C      1  0.5696390000000  0.4855560000000  0.4794140000000 1.0
C      1  0.5475340000000  0.5464730000000  0.4828290000000 1.0
C      1  0.4846860000000  0.5591090000000  0.4749870000000 1.0
C      1  0.4386760000000  0.5170630000000  0.4763810000000 1.0
C      1  0.5403530000000  0.4595770000000  0.5415130000000 1.0
C      1  0.4840440000000  0.4478040000000  0.5465280000000 1.0
C      1  0.4444700000000  0.4895380000000  0.5481740000000 1.0
C      1  0.4599790000000  0.5442830000000  0.5478310000000 1.0
C      1  0.5159210000000  0.5553660000000  0.5485580000000 1.0
C      1  0.5563840000000  0.5149230000000  0.5454580000000 1.0
C      1  0.4597660000000  0.4615000000000  0.5445130000000 1.0
C      1  0.5157980000000  0.4460280000000  0.5415200000000 1.0
C      1  0.5557930000000  0.4870940000000  0.5470210000000 1.0
C      1  0.5398840000000  0.5416920000000  0.5503200000000 1.0
C      1  0.4843490000000  0.5572290000000  0.5444470000000 1.0
C      1  0.4436590000000  0.5171900000000  0.5447010000000 1.0
C      1  0.4699820000000  0.4178290000000  0.5058510000000 1.0
C      1  0.4154120000000  0.4835610000000  0.5057130000000 1.0
C      1  0.4433350000000  0.5644120000000  0.5029660000000 1.0
C      1  0.5292720000000  0.5750650000000  0.5036660000000 1.0
C      1  0.5840090000000  0.5140610000000  0.5030240000000 1.0
C      1  0.5511980000000  0.4397860000000  0.4959590000000 1.0
C      1  0.5267670000000  0.4261370000000  0.4960760000000 1.0
C      1  0.5877190000000  0.4842980000000  0.5055980000000 1.0
C      1  0.5568780000000  0.5647300000000  0.5075200000000 1.0
C      1  0.4704650000000  0.5758790000000  0.4989790000000 1.0
C      1  0.4179890000000  0.5127870000000  0.5013770000000 1.0
C      1  0.4460840000000  0.4358330000000  0.5030550000000 1.0
END
