TITL C-1154816-9297-173 0.000753225261002322 125000 -345.879003828941 0 0 60 (C1) n - 1
REM
REM in /home/nfs/bkarasulu/CARBON/AIRSS/Generating-Clusters/AIREBO/Higher-Symm/Only-C60
REM
REM
REM
REM
REM
REM ./C.cell (28575a23ae977d3b5fae324c64b13b57)
REM
REM compiler GCC version 9.2.1 20190827 (Red Hat 9.2.1-1)
REM options -cpp -mtune=generic -march=x86-64 -g -O0 -fpre-include=/usr/include/finclude/math-vector-fortran.h
REM seed -763540811 725506515 -835582083 -521523821 -802677640 -1397142494 -1306228437 1164471148 -69686379 -1292388873 -1280094804 1525265631 -987115704 -21107854 1814909128 1464258073 -2106079803 1648468004 -1311825204 -1561130735 -1166826551 -1450373942 365959897 -2107184488 105332956 -1233678094 1518813573 -1907452479 1663566766 1619635134 -1810212074 1736389584 693367395
REM
CELL 1.54180   50.00000   50.00000   50.00000   90.00000   90.00000   90.00000
LATT -1
SFAC C  
C      1  0.5432570000000  0.4811470000000  0.4968850000000 1.0
C      1  0.5205820000000  0.5521580000000  0.4968870000000 1.0
C      1  0.4410580000000  0.5158720000000  0.4997950000000 1.0
C      1  0.4919460000000  0.4571810000000  0.4979480000000 1.0
C      1  0.5531450000000  0.5129000000000  0.4897890000000 1.0
C      1  0.5245110000000  0.4528920000000  0.4943420000000 1.0
C      1  0.4558640000000  0.4867610000000  0.4999500000000 1.0
C      1  0.4881420000000  0.5434500000000  0.5006640000000 1.0
C      1  0.5115510000000  0.5737860000000  0.4535510000000 1.0
C      1  0.4266690000000  0.5109600000000  0.4541840000000 1.0
C      1  0.4877720000000  0.4209390000000  0.4650500000000 1.0
C      1  0.5803300000000  0.4867250000000  0.4609050000000 1.0
C      1  0.5130290000000  0.4195630000000  0.4606800000000 1.0
C      1  0.4285270000000  0.4856920000000  0.4565000000000 1.0
C      1  0.4865540000000  0.5730740000000  0.4582420000000 1.0
C      1  0.5806070000000  0.5122170000000  0.4600390000000 1.0
C      1  0.5109290000000  0.5639370000000  0.5260930000000 1.0
C      1  0.4286490000000  0.5162850000000  0.5278480000000 1.0
C      1  0.4835850000000  0.4392820000000  0.5241590000000 1.0
C      1  0.5650600000000  0.4791850000000  0.5234750000000 1.0
C      1  0.5149530000000  0.4363830000000  0.5224910000000 1.0
C      1  0.4348870000000  0.4854200000000  0.5242330000000 1.0
C      1  0.4803220000000  0.5598400000000  0.5286570000000 1.0
C      1  0.5609940000000  0.5099380000000  0.5182270000000 1.0
C      1  0.5339250000000  0.4839780000000  0.4459210000000 1.0
C      1  0.5159410000000  0.5333530000000  0.4485060000000 1.0
C      1  0.4659950000000  0.5172880000000  0.4508240000000 1.0
C      1  0.4856600000000  0.4685530000000  0.4495200000000 1.0
C      1  0.5337680000000  0.5110240000000  0.4422500000000 1.0
C      1  0.5120580000000  0.4659620000000  0.4432290000000 1.0
C      1  0.4671590000000  0.4906860000000  0.4477530000000 1.0
C      1  0.4891770000000  0.5345110000000  0.4481080000000 1.0
C      1  0.5291270000000  0.4461820000000  0.4626630000000 1.0
C      1  0.5526960000000  0.5288660000000  0.4631870000000 1.0
C      1  0.4730780000000  0.5483190000000  0.4746940000000 1.0
C      1  0.4535780000000  0.4724400000000  0.4729850000000 1.0
C      1  0.5309360000000  0.5533570000000  0.4692310000000 1.0
C      1  0.5540810000000  0.4726760000000  0.4662050000000 1.0
C      1  0.4768020000000  0.4491130000000  0.4723050000000 1.0
C      1  0.4450690000000  0.5301780000000  0.4732310000000 1.0
C      1  0.4613750000000  0.4863000000000  0.5633850000000 1.0
C      1  0.5090430000000  0.4667370000000  0.5585520000000 1.0
C      1  0.5337650000000  0.5143710000000  0.5470830000000 1.0
C      1  0.4870340000000  0.5245760000000  0.5536680000000 1.0
C      1  0.4617820000000  0.5150910000000  0.5628450000000 1.0
C      1  0.5121360000000  0.5321590000000  0.5631920000000 1.0
C      1  0.5329290000000  0.4846950000000  0.5465260000000 1.0
C      1  0.4846830000000  0.4747730000000  0.5480070000000 1.0
C      1  0.5276200000000  0.4454070000000  0.5460150000000 1.0
C      1  0.5556830000000  0.5363430000000  0.5356170000000 1.0
C      1  0.4550320000000  0.5561550000000  0.5402410000000 1.0
C      1  0.4452930000000  0.4689960000000  0.5446940000000 1.0
C      1  0.5282040000000  0.5535130000000  0.5462060000000 1.0
C      1  0.5557220000000  0.4596770000000  0.5440850000000 1.0
C      1  0.4590210000000  0.4447300000000  0.5367420000000 1.0
C      1  0.4428520000000  0.5309620000000  0.5478630000000 1.0
C      1  0.5196020000000  0.4930950000000  0.5165390000000 1.0
C      1  0.5214080000000  0.5263320000000  0.5176720000000 1.0
C      1  0.4888600000000  0.5185550000000  0.5229710000000 1.0
C      1  0.4859840000000  0.4854600000000  0.5157140000000 1.0
END
