TITL C-1154801-8518-28 -41.8225983216334 125000 -319.591157626384 0 0 60 (C1) n - 1
REM
REM in /home/nfs/bkarasulu/CARBON/AIRSS/Generating-Clusters/AIREBO/Higher-Symm/Only-C60
REM
REM
REM
REM
REM
REM ./C.cell (28575a23ae977d3b5fae324c64b13b57)
REM
REM compiler GCC version 9.2.1 20190827 (Red Hat 9.2.1-1)
REM options -cpp -mtune=generic -march=x86-64 -g -O0 -fpre-include=/usr/include/finclude/math-vector-fortran.h
REM seed -1938955057 643537494 1309714414 1896500821 -113753941 -1689629253 -899512402 -174984819 2129470483 634618414 104118164 -401952590 1780406166 386813157 2145971956 -696771322 1845077528 -1836704129 -421402425 -1169771330 -899854887 -438474084 -1510988114 -208020539 948502342 2112742447 -1213690584 -925347110 -1723376999 -1786504093 420899092 -1764662871 618258835
REM
CELL 1.54180   50.00000   50.00000   50.00000   90.00000   90.00000   90.00000
LATT -1
SFAC C  
C      1  0.3958340000000  0.5049110000000  0.4973950000000 1.0
C      1  0.3796880000000  0.4891170000000  0.5139580000000 1.0
C      1  0.3539900000000  0.4800070000000  0.5110240000000 1.0
C      1  0.3324630000000  0.4922830000000  0.4990790000000 1.0
C      1  0.3338790000000  0.5129530000000  0.4809010000000 1.0
C      1  0.3570320000000  0.5245920000000  0.4716770000000 1.0
C      1  0.3821360000000  0.5244480000000  0.4827240000000 1.0
C      1  0.5306440000000  0.4337100000000  0.5625240000000 1.0
C      1  0.5993670000000  0.4336160000000  0.4830150000000 1.0
C      1  0.5141010000000  0.4505650000000  0.4353170000000 1.0
C      1  0.5445510000000  0.5296990000000  0.4187070000000 1.0
C      1  0.5451850000000  0.5849300000000  0.4793170000000 1.0
C      1  0.5104650000000  0.5573510000000  0.5568200000000 1.0
C      1  0.6005410000000  0.5113820000000  0.5682290000000 1.0
C      1  0.5804550000000  0.5066360000000  0.5513950000000 1.0
C      1  0.5381460000000  0.4522470000000  0.5452990000000 1.0
C      1  0.5795280000000  0.4501330000000  0.4895720000000 1.0
C      1  0.5240000000000  0.4649050000000  0.4551650000000 1.0
C      1  0.5439670000000  0.5216580000000  0.4440920000000 1.0
C      1  0.5444640000000  0.5589140000000  0.4849740000000 1.0
C      1  0.5234530000000  0.5410910000000  0.5405860000000 1.0
C      1  0.4562800000000  0.4401150000000  0.4515690000000 1.0
C      1  0.4245780000000  0.5067670000000  0.4446720000000 1.0
C      1  0.5465270000000  0.5422680000000  0.3674800000000 1.0
C      1  0.5474410000000  0.6355710000000  0.4646000000000 1.0
C      1  0.4191270000000  0.5208010000000  0.5638900000000 1.0
C      1  0.4472700000000  0.4722960000000  0.5750350000000 1.0
C      1  0.4435770000000  0.4347680000000  0.5304120000000 1.0
C      1  0.4660580000000  0.5283520000000  0.5130940000000 1.0
C      1  0.4866290000000  0.5146760000000  0.5271170000000 1.0
C      1  0.4793950000000  0.4874760000000  0.5382540000000 1.0
C      1  0.4836550000000  0.4669290000000  0.5131500000000 1.0
C      1  0.4855950000000  0.4826600000000  0.4830640000000 1.0
C      1  0.4694080000000  0.5084210000000  0.4711980000000 1.0
C      1  0.4718980000000  0.5315660000000  0.4855050000000 1.0
C      1  0.5020720000000  0.4375760000000  0.4159910000000 1.0
C      1  0.5468060000000  0.5357570000000  0.3928680000000 1.0
C      1  0.5475960000000  0.6103480000000  0.4717290000000 1.0
C      1  0.4954040000000  0.5724510000000  0.5720540000000 1.0
C      1  0.6215090000000  0.5171890000000  0.5828450000000 1.0
C      1  0.5207820000000  0.4160310000000  0.5791710000000 1.0
C      1  0.6198780000000  0.4192900000000  0.4752030000000 1.0
C      1  0.5396550000000  0.4811680000000  0.4749570000000 1.0
C      1  0.5406240000000  0.5134400000000  0.4702670000000 1.0
C      1  0.5409780000000  0.5321220000000  0.4907950000000 1.0
C      1  0.5405390000000  0.5244550000000  0.5224270000000 1.0
C      1  0.5590570000000  0.5018470000000  0.5368570000000 1.0
C      1  0.5494080000000  0.4724320000000  0.5264890000000 1.0
C      1  0.5583560000000  0.4643710000000  0.4959940000000 1.0
C      1  0.4568530000000  0.4705800000000  0.4720080000000 1.0
C      1  0.4389950000000  0.4991930000000  0.4670020000000 1.0
C      1  0.4253150000000  0.5030640000000  0.4975820000000 1.0
C      1  0.4396290000000  0.5194870000000  0.5189470000000 1.0
C      1  0.4351110000000  0.5095440000000  0.5448230000000 1.0
C      1  0.4503020000000  0.4839240000000  0.5499060000000 1.0
C      1  0.4517330000000  0.4632310000000  0.5232680000000 1.0
C      1  0.5046500000000  0.4937660000000  0.5081530000000 1.0
C      1  0.5352800000000  0.4954310000000  0.5055120000000 1.0
C      1  0.5675170000000  0.5031600000000  0.4979180000000 1.0
C      1  0.4383860000000  0.4740410000000  0.4977130000000 1.0
END
