TITL C-1154810-7815-478 -0.000256251933649976 125000 -333.023074033643 0 0 60 (C1) n - 1
REM
REM in /home/nfs/bkarasulu/CARBON/AIRSS/Generating-Clusters/AIREBO/Higher-Symm/Only-C60
REM
REM
REM
REM
REM
REM ./C.cell (28575a23ae977d3b5fae324c64b13b57)
REM
REM compiler GCC version 9.2.1 20190827 (Red Hat 9.2.1-1)
REM options -cpp -mtune=generic -march=x86-64 -g -O0 -fpre-include=/usr/include/finclude/math-vector-fortran.h
REM seed 1271806317 -1652690560 -226672162 -206377032 433271283 1326310580 -2055786332 1256572831 900422739 -519083572 531263245 -58769838 678786104 -1319534538 -88805155 -2103802663 1492081034 -1314296983 388350242 526920879 -838030316 -753227852 1605518179 1972613481 -1311040913 349075624 146942818 399165494 567434454 -1729303938 -1174967537 1539844571 -1943179955
REM
CELL 1.54180   50.00000   50.00000   50.00000   90.00000   90.00000   90.00000
LATT -1
SFAC C  
C      1  0.4634710000000  0.4427180000000  0.5178650000000 1.0
C      1  0.4413320000000  0.5175190000000  0.4608520000000 1.0
C      1  0.5174250000000  0.4629570000000  0.4423270000000 1.0
C      1  0.5401170000000  0.4373070000000  0.4790430000000 1.0
C      1  0.5402400000000  0.5624450000000  0.5205830000000 1.0
C      1  0.4633780000000  0.5571450000000  0.4820730000000 1.0
C      1  0.5601840000000  0.5209750000000  0.5377850000000 1.0
C      1  0.5607410000000  0.4784850000000  0.4614870000000 1.0
C      1  0.4414450000000  0.4824100000000  0.5390350000000 1.0
C      1  0.4784480000000  0.4592710000000  0.5620790000000 1.0
C      1  0.4785710000000  0.5404980000000  0.4379680000000 1.0
C      1  0.5179120000000  0.5377910000000  0.5583380000000 1.0
C      1  0.5212250000000  0.4381510000000  0.4593380000000 1.0
C      1  0.4596080000000  0.5208810000000  0.4373170000000 1.0
C      1  0.4393570000000  0.4614750000000  0.5214510000000 1.0
C      1  0.4819910000000  0.4413710000000  0.5379590000000 1.0
C      1  0.5214220000000  0.5618520000000  0.5403440000000 1.0
C      1  0.4818630000000  0.5586210000000  0.4619860000000 1.0
C      1  0.5362230000000  0.5175230000000  0.5567780000000 1.0
C      1  0.4596310000000  0.4790480000000  0.5626890000000 1.0
C      1  0.5371000000000  0.4819110000000  0.4423890000000 1.0
C      1  0.5584400000000  0.4608270000000  0.4823840000000 1.0
C      1  0.4392660000000  0.5384240000000  0.4785120000000 1.0
C      1  0.5582190000000  0.5386220000000  0.5169830000000 1.0
C      1  0.5353970000000  0.5555170000000  0.4891580000000 1.0
C      1  0.5551710000000  0.4881200000000  0.5378770000000 1.0
C      1  0.4842520000000  0.5359520000000  0.5627850000000 1.0
C      1  0.4653250000000  0.5625660000000  0.5151910000000 1.0
C      1  0.4650310000000  0.4368060000000  0.4847370000000 1.0
C      1  0.5353580000000  0.4446350000000  0.5104240000000 1.0
C      1  0.4374070000000  0.4842320000000  0.4642500000000 1.0
C      1  0.4371920000000  0.5157770000000  0.5358960000000 1.0
C      1  0.5549370000000  0.5107270000000  0.4631930000000 1.0
C      1  0.5097240000000  0.5356350000000  0.4452600000000 1.0
C      1  0.5095530000000  0.4647080000000  0.5547080000000 1.0
C      1  0.4844460000000  0.4644270000000  0.4377620000000 1.0
C      1  0.4903660000000  0.5543200000000  0.5348320000000 1.0
C      1  0.5344870000000  0.4844460000000  0.5632450000000 1.0
C      1  0.5629880000000  0.5365040000000  0.4833860000000 1.0
C      1  0.5154750000000  0.5633830000000  0.4639250000000 1.0
C      1  0.4899450000000  0.4452090000000  0.4649910000000 1.0
C      1  0.5156510000000  0.4369700000000  0.5360090000000 1.0
C      1  0.4650620000000  0.4897020000000  0.4452310000000 1.0
C      1  0.5347400000000  0.5153930000000  0.4369300000000 1.0
C      1  0.4645120000000  0.5104040000000  0.5553170000000 1.0
C      1  0.4450720000000  0.5366730000000  0.5108210000000 1.0
C      1  0.5625250000000  0.4642270000000  0.5156290000000 1.0
C      1  0.4448870000000  0.4627410000000  0.4889760000000 1.0
C      1  0.5130400000000  0.5070900000000  0.4619850000000 1.0
C      1  0.5067580000000  0.4611370000000  0.5136240000000 1.0
C      1  0.4601370000000  0.5076060000000  0.5116460000000 1.0
C      1  0.4930380000000  0.5135130000000  0.5386340000000 1.0
C      1  0.4928780000000  0.4886400000000  0.4631010000000 1.0
C      1  0.5108630000000  0.4928760000000  0.5373600000000 1.0
C      1  0.4888310000000  0.4625710000000  0.4930990000000 1.0
C      1  0.4892030000000  0.5369700000000  0.5066290000000 1.0
C      1  0.5069260000000  0.5386410000000  0.4858420000000 1.0
C      1  0.5405740000000  0.5123170000000  0.4925650000000 1.0
C      1  0.5403290000000  0.4896830000000  0.5085770000000 1.0
C      1  0.4603130000000  0.4916540000000  0.4888410000000 1.0
END
