TITL C-1154828-9214-126 -0.0263211853436213 125000 -321.897058516681 0 0 60 (C1) n - 1
REM
REM in /home/nfs/bkarasulu/CARBON/AIRSS/Generating-Clusters/AIREBO/Higher-Symm/Only-C60
REM
REM
REM
REM
REM
REM ./C.cell (28575a23ae977d3b5fae324c64b13b57)
REM
REM compiler GCC version 9.2.1 20190827 (Red Hat 9.2.1-1)
REM options -cpp -mtune=generic -march=x86-64 -g -O0 -fpre-include=/usr/include/finclude/math-vector-fortran.h
REM seed -1762214249 -869739222 915258744 -883434396 -655791728 1945914112 392969428 1211794020 68220222 135512747 -759790117 -1335408177 377731992 -1209369248 1485444396 1187464993 -1074670531 -1571555309 1186477821 -115537013 2059107064 -527867053 -1864039326 -1081156270 1113798607 -158611388 175399624 -283912859 -1873661246 1742583677 2015104440 304848309 420402333
REM
CELL 1.54180   50.00000   50.00000   50.00000   90.00000   90.00000   90.00000
LATT -1
SFAC C  
C      1  0.5114100000000  0.4481030000000  0.5224140000000 1.0
C      1  0.5127270000000  0.4669630000000  0.4487910000000 1.0
C      1  0.5136220000000  0.5319030000000  0.4526440000000 1.0
C      1  0.5136980000000  0.5561330000000  0.5143780000000 1.0
C      1  0.5144450000000  0.4968330000000  0.5622700000000 1.0
C      1  0.4837970000000  0.4493320000000  0.5241200000000 1.0
C      1  0.4870060000000  0.4596290000000  0.4409460000000 1.0
C      1  0.4859610000000  0.5318080000000  0.4519720000000 1.0
C      1  0.4861700000000  0.5570490000000  0.5136020000000 1.0
C      1  0.4889940000000  0.4973910000000  0.5735830000000 1.0
C      1  0.5619880000000  0.5020470000000  0.5573300000000 1.0
C      1  0.5601230000000  0.4486560000000  0.5251010000000 1.0
C      1  0.5603850000000  0.4653330000000  0.4555440000000 1.0
C      1  0.5626820000000  0.5286260000000  0.4510580000000 1.0
C      1  0.5627340000000  0.5564560000000  0.5116950000000 1.0
C      1  0.4428980000000  0.5013000000000  0.5571060000000 1.0
C      1  0.4326960000000  0.4453440000000  0.5247470000000 1.0
C      1  0.4355450000000  0.4615020000000  0.4530810000000 1.0
C      1  0.4362080000000  0.5289420000000  0.4501390000000 1.0
C      1  0.4372660000000  0.5563720000000  0.5111850000000 1.0
C      1  0.5218250000000  0.5123840000000  0.4757670000000 1.0
C      1  0.5222120000000  0.5275990000000  0.5042660000000 1.0
C      1  0.5160860000000  0.5055910000000  0.5294510000000 1.0
C      1  0.5201860000000  0.4764930000000  0.5131890000000 1.0
C      1  0.5147240000000  0.4802650000000  0.4798410000000 1.0
C      1  0.4780580000000  0.5128830000000  0.4754360000000 1.0
C      1  0.4770600000000  0.5296340000000  0.5024560000000 1.0
C      1  0.4839320000000  0.5076930000000  0.5245290000000 1.0
C      1  0.4771090000000  0.4795250000000  0.5148890000000 1.0
C      1  0.4819530000000  0.4823360000000  0.4844100000000 1.0
C      1  0.5503030000000  0.5349090000000  0.4919960000000 1.0
C      1  0.5477140000000  0.5173730000000  0.5335900000000 1.0
C      1  0.5477830000000  0.4780400000000  0.5270100000000 1.0
C      1  0.5462970000000  0.4682300000000  0.4836610000000 1.0
C      1  0.5493140000000  0.5034570000000  0.4650310000000 1.0
C      1  0.4490010000000  0.5362550000000  0.4894150000000 1.0
C      1  0.4565370000000  0.5187220000000  0.5348620000000 1.0
C      1  0.4509950000000  0.4716380000000  0.5287590000000 1.0
C      1  0.4582350000000  0.4671460000000  0.4750630000000 1.0
C      1  0.4512050000000  0.5044200000000  0.4631800000000 1.0
C      1  0.4611650000000  0.5430390000000  0.4419400000000 1.0
C      1  0.4610000000000  0.5695580000000  0.5216580000000 1.0
C      1  0.4619580000000  0.4925170000000  0.5755980000000 1.0
C      1  0.4605950000000  0.4330400000000  0.5250250000000 1.0
C      1  0.4601750000000  0.4610360000000  0.4356380000000 1.0
C      1  0.5385830000000  0.5429460000000  0.4425930000000 1.0
C      1  0.5385450000000  0.5694450000000  0.5216610000000 1.0
C      1  0.5405570000000  0.4915320000000  0.5726240000000 1.0
C      1  0.5357320000000  0.4326190000000  0.5251900000000 1.0
C      1  0.5387930000000  0.4648050000000  0.4371210000000 1.0
C      1  0.4211370000000  0.5118210000000  0.4755910000000 1.0
C      1  0.4217040000000  0.5263610000000  0.5057440000000 1.0
C      1  0.4271810000000  0.5034980000000  0.5269560000000 1.0
C      1  0.4226800000000  0.4751060000000  0.5112460000000 1.0
C      1  0.4269330000000  0.4789750000000  0.4810910000000 1.0
C      1  0.5797160000000  0.5132950000000  0.4763390000000 1.0
C      1  0.5793520000000  0.5270870000000  0.5061920000000 1.0
C      1  0.5781800000000  0.5034660000000  0.5274650000000 1.0
C      1  0.5772950000000  0.4748240000000  0.5114790000000 1.0
C      1  0.5778350000000  0.4807170000000  0.4803420000000 1.0
END
