TITL C-1154829-9094-475 -0.00251181928379138 125000 -361.657542247427 0 0 60 (C1) n - 1
REM
REM in /home/nfs/bkarasulu/CARBON/AIRSS/Generating-Clusters/AIREBO/Higher-Symm/Only-C60
REM
REM
REM
REM
REM
REM ./C.cell (28575a23ae977d3b5fae324c64b13b57)
REM
REM compiler GCC version 9.2.1 20190827 (Red Hat 9.2.1-1)
REM options -cpp -mtune=generic -march=x86-64 -g -O0 -fpre-include=/usr/include/finclude/math-vector-fortran.h
REM seed -1854429415 -997952239 -2116816607 -336291969 -817820989 860394135 4425439 -10261188 491880079 -168575109 651314613 1034581496 -2122943266 1824507890 1964487356 44548652 -317596982 2875785 -733106513 1789618245 1406477860 549500132 -68155624 1556147029 1120286874 1653215813 -1524003869 519776072 -419843638 -1171778835 1188928033 -2076543698 746191274
REM
CELL 1.54180   50.00000   50.00000   50.00000   90.00000   90.00000   90.00000
LATT -1
SFAC C  
C      1  0.5223760000000  0.4200970000000  0.4696610000000 1.0
C      1  0.4367830000000  0.4392590000000  0.4739770000000 1.0
C      1  0.4179490000000  0.5206960000000  0.4715010000000 1.0
C      1  0.4835700000000  0.5753170000000  0.4651030000000 1.0
C      1  0.5555850000000  0.5648140000000  0.4743570000000 1.0
C      1  0.5769070000000  0.4763710000000  0.4761570000000 1.0
C      1  0.4783130000000  0.4168560000000  0.4746040000000 1.0
C      1  0.5556060000000  0.4559920000000  0.4768760000000 1.0
C      1  0.5818790000000  0.5256320000000  0.4755020000000 1.0
C      1  0.5141480000000  0.5809740000000  0.4724020000000 1.0
C      1  0.4515120000000  0.5526470000000  0.4722950000000 1.0
C      1  0.4169420000000  0.4738320000000  0.4771060000000 1.0
C      1  0.5152960000000  0.5526820000000  0.4575380000000 1.0
C      1  0.5570950000000  0.5199770000000  0.4614790000000 1.0
C      1  0.5311170000000  0.4657030000000  0.4607800000000 1.0
C      1  0.4828030000000  0.4426720000000  0.4612910000000 1.0
C      1  0.4409210000000  0.4806500000000  0.4617540000000 1.0
C      1  0.4609410000000  0.5293430000000  0.4562440000000 1.0
C      1  0.4849330000000  0.5466680000000  0.4511860000000 1.0
C      1  0.4412640000000  0.5091460000000  0.4577270000000 1.0
C      1  0.4574360000000  0.4562320000000  0.4593170000000 1.0
C      1  0.5113490000000  0.4451110000000  0.4588890000000 1.0
C      1  0.5528740000000  0.4918190000000  0.4597990000000 1.0
C      1  0.5422530000000  0.5438410000000  0.4591400000000 1.0
C      1  0.4146420000000  0.5143650000000  0.4992890000000 1.0
C      1  0.4848540000000  0.5778320000000  0.4989870000000 1.0
C      1  0.5473670000000  0.5685530000000  0.5010260000000 1.0
C      1  0.5859590000000  0.4869180000000  0.5010220000000 1.0
C      1  0.5321930000000  0.4205090000000  0.4964460000000 1.0
C      1  0.4426720000000  0.4304280000000  0.5006790000000 1.0
C      1  0.5853770000000  0.5150410000000  0.5016360000000 1.0
C      1  0.5185300000000  0.5799060000000  0.5049760000000 1.0
C      1  0.4582140000000  0.5622970000000  0.4972850000000 1.0
C      1  0.4132490000000  0.4863080000000  0.5024740000000 1.0
C      1  0.4675600000000  0.4170770000000  0.5009570000000 1.0
C      1  0.5534630000000  0.4385960000000  0.4989260000000 1.0
C      1  0.4850960000000  0.4210320000000  0.5225500000000 1.0
C      1  0.4243840000000  0.4742140000000  0.5253150000000 1.0
C      1  0.4481140000000  0.5508700000000  0.5203270000000 1.0
C      1  0.5184190000000  0.5843180000000  0.5378840000000 1.0
C      1  0.5721150000000  0.5271140000000  0.5232650000000 1.0
C      1  0.5605160000000  0.4489440000000  0.5242460000000 1.0
C      1  0.5154260000000  0.4184310000000  0.5189430000000 1.0
C      1  0.5794970000000  0.4729240000000  0.5247020000000 1.0
C      1  0.5582270000000  0.5540030000000  0.5215750000000 1.0
C      1  0.4875610000000  0.5846330000000  0.5295930000000 1.0
C      1  0.4271150000000  0.5288600000000  0.5195410000000 1.0
C      1  0.4355340000000  0.4455570000000  0.5232030000000 1.0
C      1  0.5414360000000  0.5405320000000  0.5447150000000 1.0
C      1  0.5550820000000  0.4841920000000  0.5417570000000 1.0
C      1  0.5134370000000  0.4437530000000  0.5386650000000 1.0
C      1  0.4585940000000  0.4598260000000  0.5395150000000 1.0
C      1  0.4486510000000  0.5160340000000  0.5393450000000 1.0
C      1  0.4893660000000  0.5585150000000  0.5463980000000 1.0
C      1  0.4668330000000  0.5423140000000  0.5440200000000 1.0
C      1  0.4461400000000  0.4886380000000  0.5429660000000 1.0
C      1  0.4820530000000  0.4453200000000  0.5419870000000 1.0
C      1  0.5372030000000  0.4575030000000  0.5431710000000 1.0
C      1  0.5553030000000  0.5117870000000  0.5448590000000 1.0
C      1  0.5199690000000  0.5565250000000  0.5530690000000 1.0
END
