TITL C-1154823-9327-559 -0.000264484667482214 125000 -299.20059187101 0 0 60 (C1) n - 1
REM
REM in /home/nfs/bkarasulu/CARBON/AIRSS/Generating-Clusters/AIREBO/Higher-Symm/Only-C60
REM
REM
REM
REM
REM
REM ./C.cell (28575a23ae977d3b5fae324c64b13b57)
REM
REM compiler GCC version 9.2.1 20190827 (Red Hat 9.2.1-1)
REM options -cpp -mtune=generic -march=x86-64 -g -O0 -fpre-include=/usr/include/finclude/math-vector-fortran.h
REM seed 26649893 -691048803 -1504412330 1462545539 -86041816 -698186368 1662263644 1146126893 1151868727 1238322328 -1907791059 -1398905213 1837378663 -931087830 793928447 -1275132482 68349479 577992052 -1822876260 741327633 -504670277 -1977183896 800764212 1518560837 519078990 -514943146 -750642038 1823421515 2026821080 58410742 1027978033 -96491930 834229393
REM
CELL 1.54180   50.00000   50.00000   50.00000   90.00000   90.00000   90.00000
LATT -1
SFAC C  
C      1  0.5376780000000  0.4304370000000  0.4938420000000 1.0
C      1  0.5261410000000  0.4261480000000  0.5347640000000 1.0
C      1  0.4739850000000  0.4251340000000  0.5301080000000 1.0
C      1  0.4580170000000  0.4365380000000  0.4806650000000 1.0
C      1  0.5046230000000  0.4296310000000  0.4530420000000 1.0
C      1  0.5389650000000  0.5713240000000  0.4882270000000 1.0
C      1  0.5153560000000  0.5634120000000  0.5460090000000 1.0
C      1  0.4758740000000  0.5848580000000  0.5135040000000 1.0
C      1  0.4475800000000  0.5619940000000  0.4816740000000 1.0
C      1  0.5078120000000  0.5693480000000  0.4566600000000 1.0
C      1  0.4778890000000  0.4856960000000  0.4808990000000 1.0
C      1  0.5072040000000  0.4914640000000  0.4722940000000 1.0
C      1  0.5261010000000  0.4906940000000  0.4961240000000 1.0
C      1  0.5220730000000  0.4893270000000  0.5279200000000 1.0
C      1  0.4642950000000  0.4750330000000  0.5308590000000 1.0
C      1  0.4695160000000  0.5096090000000  0.4970420000000 1.0
C      1  0.5093430000000  0.5180980000000  0.4557490000000 1.0
C      1  0.5422810000000  0.5161000000000  0.4881310000000 1.0
C      1  0.5041750000000  0.5140120000000  0.5354550000000 1.0
C      1  0.4753590000000  0.5045310000000  0.5260570000000 1.0
C      1  0.4778860000000  0.4738690000000  0.5705660000000 1.0
C      1  0.4324520000000  0.4906930000000  0.4782540000000 1.0
C      1  0.4964570000000  0.4842350000000  0.4331930000000 1.0
C      1  0.5688950000000  0.4793900000000  0.4773360000000 1.0
C      1  0.5446220000000  0.4748640000000  0.5488690000000 1.0
C      1  0.4737100000000  0.5022840000000  0.5585440000000 1.0
C      1  0.4387650000000  0.5218290000000  0.4892120000000 1.0
C      1  0.4877420000000  0.5170900000000  0.4323880000000 1.0
C      1  0.5633000000000  0.5085570000000  0.4706860000000 1.0
C      1  0.5335450000000  0.5273670000000  0.5462030000000 1.0
C      1  0.5502440000000  0.5434810000000  0.5227850000000 1.0
C      1  0.5157290000000  0.5281920000000  0.5723150000000 1.0
C      1  0.4505350000000  0.5388920000000  0.5161630000000 1.0
C      1  0.4644470000000  0.5332510000000  0.4506770000000 1.0
C      1  0.5335840000000  0.5233850000000  0.4355030000000 1.0
C      1  0.5613480000000  0.4738300000000  0.5041360000000 1.0
C      1  0.5059220000000  0.4588300000000  0.5636430000000 1.0
C      1  0.4372680000000  0.4732390000000  0.5272590000000 1.0
C      1  0.4542310000000  0.4817020000000  0.4622720000000 1.0
C      1  0.5231640000000  0.4722620000000  0.4412990000000 1.0
C      1  0.5622820000000  0.5155340000000  0.5323970000000 1.0
C      1  0.4972470000000  0.5078960000000  0.5779280000000 1.0
C      1  0.4221490000000  0.5213940000000  0.5189690000000 1.0
C      1  0.4544540000000  0.5135870000000  0.4262580000000 1.0
C      1  0.5568140000000  0.5087610000000  0.4413290000000 1.0
C      1  0.5633960000000  0.4877920000000  0.5290370000000 1.0
C      1  0.5059800000000  0.4798060000000  0.5883480000000 1.0
C      1  0.4240140000000  0.4909730000000  0.5093960000000 1.0
C      1  0.4637490000000  0.4855190000000  0.4357710000000 1.0
C      1  0.5499570000000  0.4785970000000  0.4480880000000 1.0
C      1  0.4778340000000  0.5544910000000  0.5132330000000 1.0
C      1  0.4736290000000  0.5401650000000  0.4826800000000 1.0
C      1  0.5050240000000  0.5435550000000  0.4733290000000 1.0
C      1  0.5276300000000  0.5441110000000  0.4978120000000 1.0
C      1  0.5054580000000  0.5446270000000  0.5236020000000 1.0
C      1  0.4832430000000  0.4530510000000  0.5203450000000 1.0
C      1  0.4808760000000  0.4550020000000  0.4901520000000 1.0
C      1  0.5018040000000  0.4589670000000  0.4636490000000 1.0
C      1  0.5333910000000  0.4586600000000  0.5049300000000 1.0
C      1  0.5129530000000  0.4568790000000  0.5324160000000 1.0
END
