TITL C-1154802-8274-657 -0.00724024868813726 125000 -331.13396284164 0 0 60 (C1) n - 1
REM
REM in /home/nfs/bkarasulu/CARBON/AIRSS/Generating-Clusters/AIREBO/Higher-Symm/Only-C60
REM
REM
REM
REM
REM
REM ./C.cell (28575a23ae977d3b5fae324c64b13b57)
REM
REM compiler GCC version 9.2.1 20190827 (Red Hat 9.2.1-1)
REM options -cpp -mtune=generic -march=x86-64 -g -O0 -fpre-include=/usr/include/finclude/math-vector-fortran.h
REM seed -605694855 -1223914115 -72621410 -1196120437 -1151743411 -316120562 -1335656046 732386804 -302067016 -2146701451 524491443 2070555379 813804699 266601202 -1311047862 33751136 189018373 -1093582712 -646929746 -1645133847 -1999454299 1383461326 750273277 1954942983 510004563 571115784 -1121789498 -1882475792 751415023 -1752818304 1015202000 1626542011 1166554597
REM
CELL 1.54180   50.00000   50.00000   50.00000   90.00000   90.00000   90.00000
LATT -1
SFAC C  
C      1  0.4406130000000  0.4824900000000  0.4507650000000 1.0
C      1  0.4406180000000  0.5207510000000  0.5444130000000 1.0
C      1  0.5579030000000  0.4832590000000  0.4517830000000 1.0
C      1  0.5569970000000  0.5178770000000  0.5515310000000 1.0
C      1  0.5437860000000  0.4506350000000  0.5282810000000 1.0
C      1  0.5518100000000  0.5435130000000  0.4721470000000 1.0
C      1  0.4571930000000  0.4465930000000  0.5434160000000 1.0
C      1  0.4520560000000  0.5528400000000  0.4720180000000 1.0
C      1  0.5150420000000  0.5631310000000  0.5108970000000 1.0
C      1  0.5098490000000  0.4447720000000  0.4879210000000 1.0
C      1  0.4840640000000  0.5609190000000  0.5072660000000 1.0
C      1  0.4799810000000  0.4501340000000  0.4908570000000 1.0
C      1  0.4728560000000  0.5123670000000  0.5512370000000 1.0
C      1  0.4710800000000  0.4808260000000  0.4415340000000 1.0
C      1  0.5283870000000  0.5213060000000  0.5578630000000 1.0
C      1  0.5283870000000  0.4847350000000  0.4434430000000 1.0
C      1  0.4877220000000  0.4950680000000  0.4868350000000 1.0
C      1  0.4897510000000  0.5161170000000  0.5105880000000 1.0
C      1  0.5171880000000  0.4834640000000  0.4817320000000 1.0
C      1  0.5194770000000  0.5227020000000  0.5169000000000 1.0
C      1  0.5724490000000  0.5068860000000  0.4467990000000 1.0
C      1  0.5633100000000  0.4901870000000  0.5524990000000 1.0
C      1  0.4326090000000  0.5098340000000  0.4493050000000 1.0
C      1  0.4386770000000  0.4925040000000  0.5562760000000 1.0
C      1  0.4738600000000  0.5340850000000  0.4901560000000 1.0
C      1  0.4737930000000  0.4780720000000  0.5092190000000 1.0
C      1  0.5279030000000  0.5227180000000  0.4839420000000 1.0
C      1  0.5345810000000  0.4876610000000  0.5054930000000 1.0
C      1  0.4801850000000  0.5509960000000  0.5585540000000 1.0
C      1  0.4831410000000  0.4303570000000  0.4454670000000 1.0
C      1  0.5053570000000  0.5515230000000  0.5636130000000 1.0
C      1  0.5085780000000  0.4314870000000  0.4469050000000 1.0
C      1  0.5683870000000  0.5333850000000  0.4537420000000 1.0
C      1  0.5423410000000  0.4739120000000  0.5421290000000 1.0
C      1  0.4545340000000  0.5271330000000  0.4560290000000 1.0
C      1  0.4597510000000  0.4737460000000  0.5514810000000 1.0
C      1  0.4423650000000  0.5233470000000  0.4962250000000 1.0
C      1  0.4439540000000  0.4649260000000  0.4995740000000 1.0
C      1  0.5562230000000  0.5185130000000  0.5022850000000 1.0
C      1  0.5616090000000  0.4741830000000  0.5014340000000 1.0
C      1  0.5462800000000  0.5511450000000  0.5048180000000 1.0
C      1  0.5393830000000  0.4489790000000  0.4965490000000 1.0
C      1  0.4499800000000  0.5614680000000  0.5048520000000 1.0
C      1  0.4579510000000  0.4420820000000  0.5156920000000 1.0
C      1  0.4732120000000  0.5387630000000  0.5298620000000 1.0
C      1  0.4682090000000  0.4522750000000  0.4597720000000 1.0
C      1  0.5240990000000  0.5474000000000  0.5378300000000 1.0
C      1  0.5209960000000  0.4578240000000  0.4597180000000 1.0
C      1  0.5633880000000  0.5336290000000  0.5290980000000 1.0
C      1  0.5620400000000  0.4642190000000  0.4722040000000 1.0
C      1  0.4341880000000  0.5364480000000  0.5220740000000 1.0
C      1  0.4363940000000  0.4646510000000  0.4729580000000 1.0
C      1  0.4859480000000  0.4865300000000  0.5371420000000 1.0
C      1  0.4793490000000  0.5078090000000  0.4582610000000 1.0
C      1  0.5172390000000  0.4936330000000  0.5341370000000 1.0
C      1  0.5131120000000  0.5089750000000  0.4596170000000 1.0
C      1  0.4860420000000  0.5169270000000  0.5786540000000 1.0
C      1  0.4883880000000  0.4793800000000  0.4162170000000 1.0
C      1  0.5119410000000  0.5164970000000  0.5817440000000 1.0
C      1  0.5134960000000  0.4824140000000  0.4162470000000 1.0
END
