TITL C-1154830-9999-650 0.00145416849092471 125000 -317.201167804025 0 0 60 (C1) n - 1
REM
REM in /home/nfs/bkarasulu/CARBON/AIRSS/Generating-Clusters/AIREBO/Higher-Symm/Only-C60
REM
REM
REM
REM
REM
REM ./C.cell (28575a23ae977d3b5fae324c64b13b57)
REM
REM compiler GCC version 9.2.1 20190827 (Red Hat 9.2.1-1)
REM options -cpp -mtune=generic -march=x86-64 -g -O0 -fpre-include=/usr/include/finclude/math-vector-fortran.h
REM seed -1191574060 1267256921 -317026108 -587640706 56822079 -1652229349 -1949322188 -2086663111 1547167569 -252368664 2128647730 -1870231337 1963034555 411385772 -2026035969 -1679782089 -2106770481 1596573809 1349373584 1144734924 -1799861619 1050241690 -262341736 -762867269 -34082590 1766264240 1778372630 -712909935 -835372629 -2007010895 -1351607054 -746095159 -455805910
REM
CELL 1.54180   50.00000   50.00000   50.00000   90.00000   90.00000   90.00000
LATT -1
SFAC C  
C      1  0.4881660000000  0.4565450000000  0.4661500000000 1.0
C      1  0.4854600000000  0.4436860000000  0.5095380000000 1.0
C      1  0.4792030000000  0.4748940000000  0.5440070000000 1.0
C      1  0.4917260000000  0.5374380000000  0.5771280000000 1.0
C      1  0.4815800000000  0.5544300000000  0.5221260000000 1.0
C      1  0.4938470000000  0.5426600000000  0.4670840000000 1.0
C      1  0.4906370000000  0.5004170000000  0.4451240000000 1.0
C      1  0.4636380000000  0.4800880000000  0.4667770000000 1.0
C      1  0.4611880000000  0.4617040000000  0.4950720000000 1.0
C      1  0.4581620000000  0.4817840000000  0.5199010000000 1.0
C      1  0.4515900000000  0.5030450000000  0.5463410000000 1.0
C      1  0.4584000000000  0.5330660000000  0.5348800000000 1.0
C      1  0.4448530000000  0.5310470000000  0.4687790000000 1.0
C      1  0.4568200000000  0.5084900000000  0.4493270000000 1.0
C      1  0.5007940000000  0.4627380000000  0.4350800000000 1.0
C      1  0.4981350000000  0.4238830000000  0.4866670000000 1.0
C      1  0.4849600000000  0.4440130000000  0.5431720000000 1.0
C      1  0.4948800000000  0.5094680000000  0.5764920000000 1.0
C      1  0.5019830000000  0.5539140000000  0.5493810000000 1.0
C      1  0.4833720000000  0.5632980000000  0.4902200000000 1.0
C      1  0.5057440000000  0.5299930000000  0.4378280000000 1.0
C      1  0.5478410000000  0.4487810000000  0.4655510000000 1.0
C      1  0.5454090000000  0.4462310000000  0.5308190000000 1.0
C      1  0.5456510000000  0.4953320000000  0.5603180000000 1.0
C      1  0.5552630000000  0.5378290000000  0.5514610000000 1.0
C      1  0.5370920000000  0.5617640000000  0.4845770000000 1.0
C      1  0.5521110000000  0.5459640000000  0.4497440000000 1.0
C      1  0.5476840000000  0.4959900000000  0.4327770000000 1.0
C      1  0.5236070000000  0.4812230000000  0.4333230000000 1.0
C      1  0.5255710000000  0.4305850000000  0.4767380000000 1.0
C      1  0.5177070000000  0.4396300000000  0.5385200000000 1.0
C      1  0.5179520000000  0.4994360000000  0.5626470000000 1.0
C      1  0.5284490000000  0.5419160000000  0.5432100000000 1.0
C      1  0.5145890000000  0.5717990000000  0.4847590000000 1.0
C      1  0.5336990000000  0.5407660000000  0.4335900000000 1.0
C      1  0.5549920000000  0.4762950000000  0.4664670000000 1.0
C      1  0.5446290000000  0.4646480000000  0.5030970000000 1.0
C      1  0.5541970000000  0.4787930000000  0.5328510000000 1.0
C      1  0.5653720000000  0.5106200000000  0.5371450000000 1.0
C      1  0.5548770000000  0.5146600000000  0.5058110000000 1.0
C      1  0.5564040000000  0.5359800000000  0.4819670000000 1.0
C      1  0.5465570000000  0.5091840000000  0.4640930000000 1.0
C      1  0.4732150000000  0.5358380000000  0.4413090000000 1.0
C      1  0.4714720000000  0.4744170000000  0.4344990000000 1.0
C      1  0.4667790000000  0.4326910000000  0.4769080000000 1.0
C      1  0.4679300000000  0.4251420000000  0.5590200000000 1.0
C      1  0.4716730000000  0.4946590000000  0.5688590000000 1.0
C      1  0.4691350000000  0.5510550000000  0.5594760000000 1.0
C      1  0.4564000000000  0.5558300000000  0.4715520000000 1.0
C      1  0.5261160000000  0.5165930000000  0.5226560000000 1.0
C      1  0.5068850000000  0.5378050000000  0.5098580000000 1.0
C      1  0.5151200000000  0.5171910000000  0.4745450000000 1.0
C      1  0.5136100000000  0.4869980000000  0.4641820000000 1.0
C      1  0.5157160000000  0.4619620000000  0.4853690000000 1.0
C      1  0.5078670000000  0.4651360000000  0.5183010000000 1.0
C      1  0.5075270000000  0.4917290000000  0.5336380000000 1.0
C      1  0.4615550000000  0.5118160000000  0.5092740000000 1.0
C      1  0.4887870000000  0.5160460000000  0.4960600000000 1.0
C      1  0.5635000000000  0.4885150000000  0.4937430000000 1.0
C      1  0.4372270000000  0.5196740000000  0.4920520000000 1.0
END
