TITL C-1154804-8633-175 -0.000933143835625781 125000 -329.682055198459 0 0 60 (C1) n - 1
REM
REM in /home/nfs/bkarasulu/CARBON/AIRSS/Generating-Clusters/AIREBO/Higher-Symm/Only-C60
REM
REM
REM
REM
REM
REM ./C.cell (28575a23ae977d3b5fae324c64b13b57)
REM
REM compiler GCC version 9.2.1 20190827 (Red Hat 9.2.1-1)
REM options -cpp -mtune=generic -march=x86-64 -g -O0 -fpre-include=/usr/include/finclude/math-vector-fortran.h
REM seed -187620748 1717608985 1208089043 -1216912243 -110077932 90590002 -472756735 -1773148231 -784060760 877955024 -1895086381 -1934834507 1360485469 193150642 2108159593 -1596842880 28389726 -1048465513 -834707348 -1663325941 1481357317 210645830 1840440976 1738832347 1766880850 -234202951 1886685425 -1946234033 1973688199 625448406 -121918963 1107344757 -1774015660
REM
CELL 1.54180   50.00000   50.00000   50.00000   90.00000   90.00000   90.00000
LATT -1
SFAC C  
C      1  0.4869800000000  0.4766370000000  0.4964200000000 1.0
C      1  0.5162430000000  0.5153270000000  0.4956050000000 1.0
C      1  0.5162750000000  0.4841750000000  0.4980980000000 1.0
C      1  0.4860360000000  0.5253470000000  0.5014900000000 1.0
C      1  0.4851260000000  0.5278110000000  0.4260190000000 1.0
C      1  0.5116100000000  0.4659080000000  0.4349450000000 1.0
C      1  0.5096360000000  0.5337500000000  0.5686840000000 1.0
C      1  0.4843300000000  0.4724300000000  0.5710590000000 1.0
C      1  0.4735720000000  0.4858030000000  0.5248290000000 1.0
C      1  0.5184630000000  0.5290950000000  0.5244740000000 1.0
C      1  0.5247760000000  0.4699950000000  0.4722550000000 1.0
C      1  0.4739870000000  0.5122340000000  0.4739080000000 1.0
C      1  0.5580030000000  0.4727040000000  0.4938690000000 1.0
C      1  0.4487640000000  0.5361470000000  0.5104970000000 1.0
C      1  0.4475530000000  0.4713810000000  0.4984310000000 1.0
C      1  0.5530330000000  0.5275330000000  0.5051440000000 1.0
C      1  0.4418790000000  0.4825160000000  0.5300230000000 1.0
C      1  0.5468980000000  0.5225400000000  0.5382130000000 1.0
C      1  0.5538500000000  0.4784380000000  0.4606100000000 1.0
C      1  0.4426390000000  0.5160620000000  0.4649420000000 1.0
C      1  0.4421700000000  0.5050460000000  0.4969900000000 1.0
C      1  0.5566510000000  0.5049290000000  0.4804670000000 1.0
C      1  0.5547160000000  0.4956460000000  0.5190520000000 1.0
C      1  0.4307570000000  0.5129480000000  0.5280280000000 1.0
C      1  0.4561690000000  0.5186020000000  0.4386870000000 1.0
C      1  0.5352740000000  0.4813290000000  0.4349140000000 1.0
C      1  0.5335130000000  0.5179100000000  0.5656980000000 1.0
C      1  0.4545070000000  0.4773870000000  0.5589450000000 1.0
C      1  0.4871910000000  0.4788290000000  0.4374500000000 1.0
C      1  0.5135890000000  0.5238390000000  0.4407880000000 1.0
C      1  0.5118160000000  0.4770690000000  0.5550250000000 1.0
C      1  0.4804020000000  0.5231230000000  0.5604280000000 1.0
C      1  0.5381430000000  0.4416640000000  0.5273810000000 1.0
C      1  0.4531380000000  0.5329030000000  0.5440580000000 1.0
C      1  0.4498150000000  0.4610280000000  0.4693890000000 1.0
C      1  0.5465330000000  0.5569770000000  0.4656140000000 1.0
C      1  0.5357990000000  0.5537320000000  0.4977120000000 1.0
C      1  0.4724350000000  0.4474200000000  0.4993970000000 1.0
C      1  0.4735400000000  0.5552630000000  0.5013110000000 1.0
C      1  0.5464310000000  0.4449160000000  0.4998090000000 1.0
C      1  0.4766340000000  0.4811150000000  0.4657310000000 1.0
C      1  0.5326490000000  0.5261200000000  0.4690170000000 1.0
C      1  0.5297120000000  0.4736790000000  0.5262160000000 1.0
C      1  0.4777310000000  0.5149970000000  0.5282040000000 1.0
C      1  0.5319650000000  0.4916770000000  0.5727640000000 1.0
C      1  0.4696420000000  0.4997430000000  0.5766140000000 1.0
C      1  0.4741680000000  0.4979630000000  0.4215310000000 1.0
C      1  0.5336100000000  0.5065610000000  0.4250980000000 1.0
C      1  0.5035350000000  0.5505370000000  0.5426330000000 1.0
C      1  0.4920060000000  0.4625090000000  0.5334440000000 1.0
C      1  0.4942530000000  0.5357420000000  0.4638840000000 1.0
C      1  0.5138330000000  0.4427390000000  0.4551180000000 1.0
C      1  0.4784130000000  0.4316580000000  0.5278460000000 1.0
C      1  0.5225740000000  0.5685630000000  0.5209010000000 1.0
C      1  0.5281530000000  0.4319300000000  0.4833430000000 1.0
C      1  0.4816120000000  0.5655770000000  0.4733350000000 1.0
C      1  0.4943660000000  0.4338590000000  0.4809560000000 1.0
C      1  0.5140840000000  0.5612050000000  0.4724280000000 1.0
C      1  0.5101360000000  0.4365360000000  0.5279790000000 1.0
C      1  0.4886820000000  0.5708960000000  0.5223010000000 1.0
END
