TITL C-1154801-8518-368 -0.000432353364821335 125000 -318.836796425184 0 0 60 (C1) n - 1
REM
REM in /home/nfs/bkarasulu/CARBON/AIRSS/Generating-Clusters/AIREBO/Higher-Symm/Only-C60
REM
REM
REM
REM
REM
REM ./C.cell (28575a23ae977d3b5fae324c64b13b57)
REM
REM compiler GCC version 9.2.1 20190827 (Red Hat 9.2.1-1)
REM options -cpp -mtune=generic -march=x86-64 -g -O0 -fpre-include=/usr/include/finclude/math-vector-fortran.h
REM seed -518726752 896513945 -19967123 1182681525 776785153 1282023703 -2003672428 -1521600279 1808123398 -1727806866 -1960550058 -1697801590 966882634 -1090890960 -482470423 1219400034 1032286667 -482190174 -337035948 1517926027 1390235185 -401801042 -912391500 -2040896955 -384094749 1499936626 208079845 -112134485 2142745076 -136210075 -1426610992 1650747724 -1620897491
REM
CELL 1.54180   50.00000   50.00000   50.00000   90.00000   90.00000   90.00000
LATT -1
SFAC C  
C      1  0.4367780000000  0.4678040000000  0.5113900000000 1.0
C      1  0.4481850000000  0.5342000000000  0.4889900000000 1.0
C      1  0.5111240000000  0.4659240000000  0.4469230000000 1.0
C      1  0.5177690000000  0.4526240000000  0.5437440000000 1.0
C      1  0.4829560000000  0.5003700000000  0.5587310000000 1.0
C      1  0.4816540000000  0.5368060000000  0.4449630000000 1.0
C      1  0.5123800000000  0.4770600000000  0.4945550000000 1.0
C      1  0.4673610000000  0.4900780000000  0.4987720000000 1.0
C      1  0.4551270000000  0.4629270000000  0.4823520000000 1.0
C      1  0.5821470000000  0.5176780000000  0.5186960000000 1.0
C      1  0.5050630000000  0.4904510000000  0.5447160000000 1.0
C      1  0.5360900000000  0.4804550000000  0.5506020000000 1.0
C      1  0.5042060000000  0.4963810000000  0.5170110000000 1.0
C      1  0.5417740000000  0.5051700000000  0.5065910000000 1.0
C      1  0.4924330000000  0.4375840000000  0.4737630000000 1.0
C      1  0.4529880000000  0.5336520000000  0.4553340000000 1.0
C      1  0.5258800000000  0.5524880000000  0.4480170000000 1.0
C      1  0.4935660000000  0.4421250000000  0.5236560000000 1.0
C      1  0.4407810000000  0.5424210000000  0.5427050000000 1.0
C      1  0.5769590000000  0.4836740000000  0.4810820000000 1.0
C      1  0.5132820000000  0.5461000000000  0.5043710000000 1.0
C      1  0.5367520000000  0.5281810000000  0.4629460000000 1.0
C      1  0.4468510000000  0.4678730000000  0.5438700000000 1.0
C      1  0.4723150000000  0.5412940000000  0.5369130000000 1.0
C      1  0.5326990000000  0.5410100000000  0.5313930000000 1.0
C      1  0.5633470000000  0.5370470000000  0.5170740000000 1.0
C      1  0.4960980000000  0.5110610000000  0.4341930000000 1.0
C      1  0.4415450000000  0.5080060000000  0.4392080000000 1.0
C      1  0.4298870000000  0.4996140000000  0.5120390000000 1.0
C      1  0.4910870000000  0.5209240000000  0.5081700000000 1.0
C      1  0.4326120000000  0.5187920000000  0.5482260000000 1.0
C      1  0.5454250000000  0.4801120000000  0.4871480000000 1.0
C      1  0.5637810000000  0.4746180000000  0.5316800000000 1.0
C      1  0.5153920000000  0.5043930000000  0.4745560000000 1.0
C      1  0.4746780000000  0.5482360000000  0.4977350000000 1.0
C      1  0.4695150000000  0.4586890000000  0.5125700000000 1.0
C      1  0.4869880000000  0.4437050000000  0.5554140000000 1.0
C      1  0.4790250000000  0.4634510000000  0.4579020000000 1.0
C      1  0.5461250000000  0.4505960000000  0.5262350000000 1.0
C      1  0.4867460000000  0.4519300000000  0.4268480000000 1.0
C      1  0.4686720000000  0.4990200000000  0.4431040000000 1.0
C      1  0.4987650000000  0.5567650000000  0.4549550000000 1.0
C      1  0.4953770000000  0.5637800000000  0.4820380000000 1.0
C      1  0.5431020000000  0.5031010000000  0.4460270000000 1.0
C      1  0.5185350000000  0.4933470000000  0.4363180000000 1.0
C      1  0.5042850000000  0.4483800000000  0.4960550000000 1.0
C      1  0.4845430000000  0.4941250000000  0.4715020000000 1.0
C      1  0.5045030000000  0.5519100000000  0.5428350000000 1.0
C      1  0.5681660000000  0.4918230000000  0.4534600000000 1.0
C      1  0.4584730000000  0.5173280000000  0.5170980000000 1.0
C      1  0.5028980000000  0.5505290000000  0.5739200000000 1.0
C      1  0.5321970000000  0.4561450000000  0.4669530000000 1.0
C      1  0.4294290000000  0.5541990000000  0.4688820000000 1.0
C      1  0.5782640000000  0.4898990000000  0.5122760000000 1.0
C      1  0.4837890000000  0.5275600000000  0.5656630000000 1.0
C      1  0.5399670000000  0.5329580000000  0.4929090000000 1.0
C      1  0.5387060000000  0.5084620000000  0.5332520000000 1.0
C      1  0.4560350000000  0.4968060000000  0.5441330000000 1.0
C      1  0.4609060000000  0.4504360000000  0.5595130000000 1.0
C      1  0.5440150000000  0.4479210000000  0.4980230000000 1.0
END
