TITL C-1154808-8168-352 0.00245624924334284 125000 -347.12524335884 0 0 60 (D5h) n - 1
REM
REM in /home/nfs/bkarasulu/CARBON/AIRSS/Generating-Clusters/AIREBO/Higher-Symm/Only-C60
REM
REM
REM
REM
REM
REM ./C.cell (28575a23ae977d3b5fae324c64b13b57)
REM
REM compiler GCC version 9.2.1 20190827 (Red Hat 9.2.1-1)
REM options -cpp -mtune=generic -march=x86-64 -g -O0 -fpre-include=/usr/include/finclude/math-vector-fortran.h
REM seed -1102791545 -1099064520 -1435476319 -1251373404 -1092897174 632995968 -495065535 903685155 -433653145 -1145726637 1716491450 470643058 -1800097954 266839936 1313658703 839389712 962968920 -316369802 -382519254 1958970686 -689909332 -159070250 -1183429121 -1706575573 1191291015 389464147 30920621 790183373 -750672697 -1023885656 -1030177480 -1734242426 -1690549486
REM
CELL 1.54180   50.00000   50.00000   50.00000   90.00000   90.00000   90.00000
LATT -1
SFAC C  
C      1  0.4557300000000  0.5387730000000  0.5286670000000 1.0
C      1  0.4557530000000  0.5392680000000  0.4719780000000 1.0
C      1  0.4557510000000  0.4855070000000  0.4539910000000 1.0
C      1  0.4557260000000  0.4517860000000  0.4995620000000 1.0
C      1  0.4557130000000  0.4847070000000  0.5457140000000 1.0
C      1  0.5422900000000  0.5392510000000  0.4720140000000 1.0
C      1  0.5422670000000  0.5387570000000  0.5287020000000 1.0
C      1  0.5422500000000  0.4846900000000  0.5457490000000 1.0
C      1  0.5422630000000  0.4517700000000  0.4995970000000 1.0
C      1  0.5422880000000  0.4854900000000  0.4540260000000 1.0
C      1  0.4740240000000  0.5638430000000  0.5226230000000 1.0
C      1  0.4740510000000  0.5412570000000  0.4462700000000 1.0
C      1  0.4740370000000  0.4616620000000  0.4441560000000 1.0
C      1  0.4740010000000  0.4350550000000  0.5192020000000 1.0
C      1  0.4739930000000  0.4982060000000  0.5676980000000 1.0
C      1  0.5240060000000  0.5642190000000  0.4784940000000 1.0
C      1  0.5239710000000  0.5403050000000  0.5544410000000 1.0
C      1  0.5239550000000  0.4606850000000  0.5551670000000 1.0
C      1  0.5239810000000  0.4353910000000  0.4796680000000 1.0
C      1  0.5240130000000  0.4993780000000  0.4322810000000 1.0
C      1  0.4847910000000  0.5704390000000  0.4497520000000 1.0
C      1  0.4847860000000  0.4739850000000  0.4174800000000 1.0
C      1  0.4847410000000  0.4134870000000  0.4992400000000 1.0
C      1  0.4847190000000  0.4725500000000  0.5820420000000 1.0
C      1  0.4847500000000  0.5695520000000  0.5514570000000 1.0
C      1  0.5132410000000  0.5695470000000  0.5514690000000 1.0
C      1  0.5132100000000  0.4725450000000  0.5820540000000 1.0
C      1  0.5132330000000  0.4134820000000  0.4992510000000 1.0
C      1  0.5132780000000  0.4739800000000  0.4174910000000 1.0
C      1  0.5132830000000  0.5704340000000  0.4497630000000 1.0
C      1  0.4413060000000  0.4753080000000  0.4997610000000 1.0
C      1  0.4413000000000  0.4921730000000  0.5234030000000 1.0
C      1  0.4413090000000  0.5198690000000  0.5146710000000 1.0
C      1  0.4413210000000  0.5201220000000  0.4856310000000 1.0
C      1  0.4413190000000  0.4925820000000  0.4764170000000 1.0
C      1  0.5566910000000  0.4752870000000  0.4998080000000 1.0
C      1  0.5567030000000  0.4925610000000  0.4764640000000 1.0
C      1  0.5567050000000  0.5201000000000  0.4856780000000 1.0
C      1  0.5566930000000  0.5198470000000  0.5147170000000 1.0
C      1  0.5566840000000  0.4921510000000  0.5234500000000 1.0
C      1  0.4740170000000  0.4354000000000  0.4796470000000 1.0
C      1  0.4739910000000  0.4606940000000  0.5551460000000 1.0
C      1  0.4740070000000  0.5403140000000  0.5544210000000 1.0
C      1  0.4740420000000  0.5642280000000  0.4784740000000 1.0
C      1  0.4740490000000  0.4993880000000  0.4322610000000 1.0
C      1  0.5239650000000  0.4350460000000  0.5192230000000 1.0
C      1  0.5240010000000  0.4616520000000  0.4441760000000 1.0
C      1  0.5240150000000  0.5412480000000  0.4462900000000 1.0
C      1  0.5239880000000  0.5638340000000  0.5226430000000 1.0
C      1  0.5239570000000  0.4981970000000  0.5677180000000 1.0
C      1  0.4990140000000  0.5076770000000  0.4770550000000 1.0
C      1  0.4989950000000  0.5072760000000  0.5230760000000 1.0
C      1  0.4990080000000  0.5241950000000  0.5002110000000 1.0
C      1  0.4990050000000  0.4805500000000  0.4856080000000 1.0
C      1  0.4989940000000  0.4803020000000  0.5140510000000 1.0
C      1  0.4989810000000  0.4533090000000  0.5333050000000 1.0
C      1  0.4990290000000  0.5181980000000  0.4456110000000 1.0
C      1  0.4990080000000  0.4538970000000  0.4658860000000 1.0
C      1  0.4989840000000  0.5172470000000  0.5546980000000 1.0
C      1  0.4990140000000  0.5573500000000  0.5005000000000 1.0
END
