TITL C-1154825-9328-241 0.00117772215729209 125000 -317.152409435934 0 0 60 (C2) n - 1
REM
REM in /home/nfs/bkarasulu/CARBON/AIRSS/Generating-Clusters/AIREBO/Higher-Symm/Only-C60
REM
REM
REM
REM
REM
REM ./C.cell (28575a23ae977d3b5fae324c64b13b57)
REM
REM compiler GCC version 9.2.1 20190827 (Red Hat 9.2.1-1)
REM options -cpp -mtune=generic -march=x86-64 -g -O0 -fpre-include=/usr/include/finclude/math-vector-fortran.h
REM seed 1127336351 -630021293 -1299124723 -264789528 2099097216 751322087 66629322 -1396574144 1787026553 -335570712 340501109 89071124 -842056608 -890136258 -1639188083 -495091306 -99180549 -1036138347 -1547258983 -1190050035 -374316583 -781684500 -597189848 300626420 1938945997 1384046901 -2103332043 -707937644 341420054 44072525 -174738054 -1422820596 -1209011866
REM
CELL 1.54180   50.00000   50.00000   50.00000   90.00000   90.00000   90.00000
LATT -1
SFAC C  
C      1  0.5224340000000  0.4998140000000  0.4563020000000 1.0
C      1  0.4581740000000  0.5196890000000  0.5014330000000 1.0
C      1  0.4983040000000  0.4599300000000  0.5202080000000 1.0
C      1  0.5224340000000  0.5001860000000  0.5436980000000 1.0
C      1  0.4826710000000  0.4993260000000  0.4579990000000 1.0
C      1  0.4826710000000  0.5006740000000  0.5420010000000 1.0
C      1  0.4581740000000  0.4803110000000  0.4985670000000 1.0
C      1  0.5438310000000  0.4758320000000  0.5000370000000 1.0
C      1  0.5438310000000  0.5241680000000  0.4999630000000 1.0
C      1  0.4983040000000  0.5400700000000  0.4797920000000 1.0
C      1  0.4988220000000  0.5419380000000  0.5195100000000 1.0
C      1  0.4988220000000  0.4580620000000  0.4804900000000 1.0
C      1  0.5212640000000  0.4576630000000  0.5015920000000 1.0
C      1  0.4576840000000  0.4993990000000  0.5246240000000 1.0
C      1  0.5013360000000  0.5238980000000  0.4551930000000 1.0
C      1  0.5212640000000  0.5423370000000  0.4984080000000 1.0
C      1  0.4749640000000  0.4565530000000  0.4995930000000 1.0
C      1  0.4749640000000  0.5434470000000  0.5004070000000 1.0
C      1  0.4576840000000  0.5006010000000  0.4753760000000 1.0
C      1  0.5404000000000  0.5004880000000  0.4802330000000 1.0
C      1  0.5404000000000  0.4995120000000  0.5197670000000 1.0
C      1  0.5013360000000  0.4761020000000  0.5448070000000 1.0
C      1  0.5010550000000  0.5246890000000  0.5434540000000 1.0
C      1  0.5010550000000  0.4753110000000  0.4565460000000 1.0
C      1  0.4934320000000  0.5427190000000  0.4303010000000 1.0
C      1  0.4319390000000  0.4942780000000  0.5436100000000 1.0
C      1  0.5432890000000  0.4357200000000  0.4937470000000 1.0
C      1  0.4934320000000  0.4572810000000  0.5696990000000 1.0
C      1  0.5056010000000  0.4566410000000  0.4307340000000 1.0
C      1  0.5056010000000  0.5433590000000  0.5692660000000 1.0
C      1  0.4319390000000  0.5057220000000  0.4563900000000 1.0
C      1  0.5623520000000  0.5022340000000  0.5430860000000 1.0
C      1  0.5623520000000  0.4977660000000  0.4569140000000 1.0
C      1  0.5432890000000  0.5642800000000  0.5062530000000 1.0
C      1  0.4574200000000  0.5688370000000  0.4927220000000 1.0
C      1  0.4574200000000  0.4311630000000  0.5072780000000 1.0
C      1  0.4958650000000  0.4366190000000  0.5427170000000 1.0
C      1  0.4355100000000  0.5427150000000  0.4950370000000 1.0
C      1  0.5416830000000  0.4959360000000  0.4302510000000 1.0
C      1  0.4958650000000  0.5633810000000  0.4572830000000 1.0
C      1  0.5045810000000  0.4356220000000  0.4575290000000 1.0
C      1  0.5045810000000  0.5643780000000  0.5424710000000 1.0
C      1  0.4355100000000  0.4572850000000  0.5049630000000 1.0
C      1  0.5691740000000  0.5422940000000  0.5088960000000 1.0
C      1  0.5691740000000  0.4577060000000  0.4911040000000 1.0
C      1  0.5416830000000  0.5040640000000  0.5697490000000 1.0
C      1  0.4581780000000  0.4971150000000  0.5643060000000 1.0
C      1  0.4581780000000  0.5028850000000  0.4356940000000 1.0
C      1  0.5783270000000  0.4900820000000  0.4861730000000 1.0
C      1  0.5783270000000  0.5099180000000  0.5138270000000 1.0
C      1  0.4216240000000  0.5121920000000  0.4881220000000 1.0
C      1  0.4216240000000  0.4878080000000  0.5118780000000 1.0
C      1  0.4897500000000  0.5781310000000  0.4875770000000 1.0
C      1  0.5128860000000  0.4215100000000  0.4873590000000 1.0
C      1  0.4874090000000  0.4892340000000  0.5797990000000 1.0
C      1  0.4897500000000  0.4218690000000  0.5124230000000 1.0
C      1  0.5128860000000  0.5784900000000  0.5126410000000 1.0
C      1  0.4874090000000  0.5107660000000  0.4202010000000 1.0
C      1  0.5100410000000  0.5112830000000  0.5799050000000 1.0
C      1  0.5100410000000  0.4887170000000  0.4200950000000 1.0
END
