TITL C-1154826-9507-536 0.000816546703881681 125000 -301.4210514799 0 0 60 (C1) n - 1
REM
REM in /home/nfs/bkarasulu/CARBON/AIRSS/Generating-Clusters/AIREBO/Higher-Symm/Only-C60
REM
REM
REM
REM
REM
REM ./C.cell (28575a23ae977d3b5fae324c64b13b57)
REM
REM compiler GCC version 9.2.1 20190827 (Red Hat 9.2.1-1)
REM options -cpp -mtune=generic -march=x86-64 -g -O0 -fpre-include=/usr/include/finclude/math-vector-fortran.h
REM seed 479037870 944776989 977482988 -1582777176 -332559007 1496330263 -1766181633 -1036482310 514976729 -1628254294 1766212670 -190378728 -767682554 1558530288 -2063696159 1975214381 -1523158135 -387963787 1911903463 989951207 1641324964 558442344 -1651037876 -1186320623 560009727 415839434 468038597 1246786086 593488513 1655014851 -1402096998 -693791370 -1051622135
REM
CELL 1.54180   50.00000   50.00000   50.00000   90.00000   90.00000   90.00000
LATT -1
SFAC C  
C      1  0.5217590000000  0.5343580000000  0.4358740000000 1.0
C      1  0.4450570000000  0.5343610000000  0.4606460000000 1.0
C      1  0.4454980000000  0.5340980000000  0.5403610000000 1.0
C      1  0.5215860000000  0.5338920000000  0.5644260000000 1.0
C      1  0.5678680000000  0.5342940000000  0.4995070000000 1.0
C      1  0.4388660000000  0.5175070000000  0.4890180000000 1.0
C      1  0.4706540000000  0.5170310000000  0.5547930000000 1.0
C      1  0.5431280000000  0.5170770000000  0.5447810000000 1.0
C      1  0.5555400000000  0.5172850000000  0.4733240000000 1.0
C      1  0.4896220000000  0.5165700000000  0.4374930000000 1.0
C      1  0.5382970000000  0.4856940000000  0.5435550000000 1.0
C      1  0.5537440000000  0.4854020000000  0.4771940000000 1.0
C      1  0.4945830000000  0.4861250000000  0.4421420000000 1.0
C      1  0.4434880000000  0.4859170000000  0.4870740000000 1.0
C      1  0.4702860000000  0.4855080000000  0.5499170000000 1.0
C      1  0.4600740000000  0.4546460000000  0.5161330000000 1.0
C      1  0.5031450000000  0.4545840000000  0.5428530000000 1.0
C      1  0.5418670000000  0.4545910000000  0.5102200000000 1.0
C      1  0.5228680000000  0.4545880000000  0.4633140000000 1.0
C      1  0.4722310000000  0.4545960000000  0.4669560000000 1.0
C      1  0.5019170000000  0.4332260000000  0.5244980000000 1.0
C      1  0.5240220000000  0.4332310000000  0.5056810000000 1.0
C      1  0.5129530000000  0.4332330000000  0.4788440000000 1.0
C      1  0.4839920000000  0.4332360000000  0.4810680000000 1.0
C      1  0.4771650000000  0.4332680000000  0.5093050000000 1.0
C      1  0.4813880000000  0.4626690000000  0.5602380000000 1.0
C      1  0.5516540000000  0.4628740000000  0.5362660000000 1.0
C      1  0.5507980000000  0.4625130000000  0.4623270000000 1.0
C      1  0.4793310000000  0.4632710000000  0.4401420000000 1.0
C      1  0.4368520000000  0.4631430000000  0.5008670000000 1.0
C      1  0.5479390000000  0.5581480000000  0.5126200000000 1.0
C      1  0.5259470000000  0.5580910000000  0.4586710000000 1.0
C      1  0.4689910000000  0.5581040000000  0.4620190000000 1.0
C      1  0.4541730000000  0.5581000000000  0.5183280000000 1.0
C      1  0.5031430000000  0.5578680000000  0.5495460000000 1.0
C      1  0.5055560000000  0.4892130000000  0.5775820000000 1.0
C      1  0.5757690000000  0.4894680000000  0.5189160000000 1.0
C      1  0.5413060000000  0.4898030000000  0.4348330000000 1.0
C      1  0.4489010000000  0.4889730000000  0.4431210000000 1.0
C      1  0.4277390000000  0.4893870000000  0.5294770000000 1.0
C      1  0.5500990000000  0.5084410000000  0.5126380000000 1.0
C      1  0.5283430000000  0.5073660000000  0.4554840000000 1.0
C      1  0.4657990000000  0.5074190000000  0.4599660000000 1.0
C      1  0.4519370000000  0.5083850000000  0.5190560000000 1.0
C      1  0.5033490000000  0.5083530000000  0.5513230000000 1.0
C      1  0.5019870000000  0.5244870000000  0.5229360000000 1.0
C      1  0.5227910000000  0.5245550000000  0.5050520000000 1.0
C      1  0.5122310000000  0.5238390000000  0.4795880000000 1.0
C      1  0.4847870000000  0.5237160000000  0.4818980000000 1.0
C      1  0.4786060000000  0.5241060000000  0.5086930000000 1.0
C      1  0.4943230000000  0.5473340000000  0.4511890000000 1.0
C      1  0.4527900000000  0.5485410000000  0.4905650000000 1.0
C      1  0.4763820000000  0.5481840000000  0.5423300000000 1.0
C      1  0.5328130000000  0.5481680000000  0.5356610000000 1.0
C      1  0.5436860000000  0.5484100000000  0.4801780000000 1.0
C      1  0.4761480000000  0.4846150000000  0.5164310000000 1.0
C      1  0.5083140000000  0.4845120000000  0.5275520000000 1.0
C      1  0.5290530000000  0.4845770000000  0.5005650000000 1.0
C      1  0.5097210000000  0.4845620000000  0.4725530000000 1.0
C      1  0.4771450000000  0.4844880000000  0.4824110000000 1.0
END
