TITL C-1154801-8518-252 -0.000551381023370185 125000 -302.204875681329 0 0 60 (C1) n - 1
REM
REM in /home/nfs/bkarasulu/CARBON/AIRSS/Generating-Clusters/AIREBO/Higher-Symm/Only-C60
REM
REM
REM
REM
REM
REM ./C.cell (28575a23ae977d3b5fae324c64b13b57)
REM
REM compiler GCC version 9.2.1 20190827 (Red Hat 9.2.1-1)
REM options -cpp -mtune=generic -march=x86-64 -g -O0 -fpre-include=/usr/include/finclude/math-vector-fortran.h
REM seed 1029613956 1892868832 890164911 -864059164 477658196 832991924 -1424400884 -416657455 -473450402 1145711588 1727587860 -144126563 -206577886 1073704044 1961870869 175867577 1143410606 -1214665764 -987256511 812181785 -1592499711 1904524054 -1945485261 574984717 -521408682 332003089 -1012074814 954614824 113989002 821646140 1634265941 1596024519 -1325718476
REM
CELL 1.54180   50.00000   50.00000   50.00000   90.00000   90.00000   90.00000
LATT -1
SFAC C  
C      1  0.4444790000000  0.4942180000000  0.5174340000000 1.0
C      1  0.4424850000000  0.4884850000000  0.4884470000000 1.0
C      1  0.4157030000000  0.5049180000000  0.4792150000000 1.0
C      1  0.4239760000000  0.5172100000000  0.5087750000000 1.0
C      1  0.5047950000000  0.5775060000000  0.4899290000000 1.0
C      1  0.5008820000000  0.5071740000000  0.5708720000000 1.0
C      1  0.5049180000000  0.4293490000000  0.5157980000000 1.0
C      1  0.4983720000000  0.4760660000000  0.4366590000000 1.0
C      1  0.5321890000000  0.4723890000000  0.5565950000000 1.0
C      1  0.5360130000000  0.4429440000000  0.4804550000000 1.0
C      1  0.5327450000000  0.5137430000000  0.4433930000000 1.0
C      1  0.5304570000000  0.5542120000000  0.5221690000000 1.0
C      1  0.4581290000000  0.4404310000000  0.4902690000000 1.0
C      1  0.4586590000000  0.5155370000000  0.4484600000000 1.0
C      1  0.4612910000000  0.5676850000000  0.5161280000000 1.0
C      1  0.4553130000000  0.4861900000000  0.5646550000000 1.0
C      1  0.4406500000000  0.5255230000000  0.4737050000000 1.0
C      1  0.4549900000000  0.5303810000000  0.5041940000000 1.0
C      1  0.4687340000000  0.4858440000000  0.5276130000000 1.0
C      1  0.4665340000000  0.4779950000000  0.4800620000000 1.0
C      1  0.4989970000000  0.4799050000000  0.4896820000000 1.0
C      1  0.5056970000000  0.5097060000000  0.4745480000000 1.0
C      1  0.4844590000000  0.5253350000000  0.4960160000000 1.0
C      1  0.4961480000000  0.5009610000000  0.5162400000000 1.0
C      1  0.4718660000000  0.5683210000000  0.4873910000000 1.0
C      1  0.4697410000000  0.5161530000000  0.5596990000000 1.0
C      1  0.4708870000000  0.4438890000000  0.5162120000000 1.0
C      1  0.4647280000000  0.4819480000000  0.4405770000000 1.0
C      1  0.4847000000000  0.5655560000000  0.5381140000000 1.0
C      1  0.4904340000000  0.4469040000000  0.5611960000000 1.0
C      1  0.4934360000000  0.4414460000000  0.4560130000000 1.0
C      1  0.4835890000000  0.5471500000000  0.4411350000000 1.0
C      1  0.5798510000000  0.4711910000000  0.5142110000000 1.0
C      1  0.5765560000000  0.4847970000000  0.4632090000000 1.0
C      1  0.5707940000000  0.5338010000000  0.4871400000000 1.0
C      1  0.5668520000000  0.5115390000000  0.5343390000000 1.0
C      1  0.5617630000000  0.4645810000000  0.4861770000000 1.0
C      1  0.5614270000000  0.5133240000000  0.4616490000000 1.0
C      1  0.5471050000000  0.5293210000000  0.5123820000000 1.0
C      1  0.5513810000000  0.4812750000000  0.5332460000000 1.0
C      1  0.5209480000000  0.4935170000000  0.4286570000000 1.0
C      1  0.5266980000000  0.5771880000000  0.5058180000000 1.0
C      1  0.5218810000000  0.4912110000000  0.5749830000000 1.0
C      1  0.5316100000000  0.4279700000000  0.5067680000000 1.0
C      1  0.4647720000000  0.4537490000000  0.4596370000000 1.0
C      1  0.4614690000000  0.5483460000000  0.4618180000000 1.0
C      1  0.4633790000000  0.5393060000000  0.5355030000000 1.0
C      1  0.4657650000000  0.4595780000000  0.5461600000000 1.0
C      1  0.4977280000000  0.5485740000000  0.4784280000000 1.0
C      1  0.4983880000000  0.5212150000000  0.5421000000000 1.0
C      1  0.4986130000000  0.4611600000000  0.5180530000000 1.0
C      1  0.4879810000000  0.5037210000000  0.4488310000000 1.0
C      1  0.5376420000000  0.4864700000000  0.4822600000000 1.0
C      1  0.5356650000000  0.5163380000000  0.4831140000000 1.0
C      1  0.5290060000000  0.5013960000000  0.5193870000000 1.0
C      1  0.5514620000000  0.4519440000000  0.5160220000000 1.0
C      1  0.5116540000000  0.5356130000000  0.4530690000000 1.0
C      1  0.5082100000000  0.5486890000000  0.5376510000000 1.0
C      1  0.5131680000000  0.4547200000000  0.5467290000000 1.0
C      1  0.5122350000000  0.4543910000000  0.4710110000000 1.0
END
