TITL C-1154823-9327-533 -0.000154550733194178 125000 -333.843387736168 0 0 60 (C1) n - 1
REM
REM in /home/nfs/bkarasulu/CARBON/AIRSS/Generating-Clusters/AIREBO/Higher-Symm/Only-C60
REM
REM
REM
REM
REM
REM ./C.cell (28575a23ae977d3b5fae324c64b13b57)
REM
REM compiler GCC version 9.2.1 20190827 (Red Hat 9.2.1-1)
REM options -cpp -mtune=generic -march=x86-64 -g -O0 -fpre-include=/usr/include/finclude/math-vector-fortran.h
REM seed 2065130616 2111002334 -1454558058 1433722648 -104591759 468984894 361735878 271526822 -982874284 1776662779 1787774038 819248048 -874347325 -1831580221 877702678 -591210005 735651477 1676765049 2113833707 -255228953 -1323808646 1840984231 -960486747 1853721678 2014524224 -691248177 411894523 466466786 1367419082 -1665369125 -105957149 1068943470 1330292317
REM
CELL 1.54180   50.00000   50.00000   50.00000   90.00000   90.00000   90.00000
LATT -1
SFAC C  
C      1  0.5536880000000  0.4572080000000  0.5386850000000 1.0
C      1  0.4840510000000  0.4988020000000  0.5635590000000 1.0
C      1  0.5118450000000  0.4348620000000  0.5562190000000 1.0
C      1  0.4879310000000  0.4460270000000  0.5636710000000 1.0
C      1  0.5512260000000  0.4794110000000  0.4969170000000 1.0
C      1  0.5080120000000  0.5058810000000  0.5816570000000 1.0
C      1  0.5107800000000  0.5109430000000  0.4841740000000 1.0
C      1  0.4681720000000  0.5308900000000  0.5260310000000 1.0
C      1  0.5421960000000  0.5517540000000  0.5203690000000 1.0
C      1  0.4950270000000  0.5675140000000  0.5245790000000 1.0
C      1  0.4609450000000  0.4683250000000  0.4523430000000 1.0
C      1  0.4725110000000  0.4462530000000  0.4974130000000 1.0
C      1  0.4330330000000  0.5032960000000  0.4551920000000 1.0
C      1  0.5528430000000  0.5253850000000  0.5203390000000 1.0
C      1  0.5404660000000  0.4825330000000  0.5479890000000 1.0
C      1  0.4413970000000  0.5282130000000  0.5116350000000 1.0
C      1  0.5093280000000  0.4759000000000  0.4650770000000 1.0
C      1  0.4608400000000  0.4603260000000  0.4003920000000 1.0
C      1  0.4936850000000  0.5545020000000  0.4724430000000 1.0
C      1  0.5309000000000  0.4599030000000  0.4814980000000 1.0
C      1  0.4376090000000  0.4818340000000  0.4971250000000 1.0
C      1  0.4613440000000  0.5610480000000  0.4358410000000 1.0
C      1  0.5181480000000  0.5542960000000  0.5354380000000 1.0
C      1  0.4341600000000  0.5178620000000  0.5424290000000 1.0
C      1  0.4962500000000  0.4045590000000  0.5006390000000 1.0
C      1  0.5602060000000  0.5170720000000  0.5455640000000 1.0
C      1  0.4220160000000  0.5509400000000  0.4950300000000 1.0
C      1  0.5206950000000  0.4758900000000  0.5261040000000 1.0
C      1  0.4540270000000  0.4924330000000  0.5519140000000 1.0
C      1  0.4204420000000  0.4903560000000  0.4762380000000 1.0
C      1  0.5058240000000  0.5001710000000  0.5152200000000 1.0
C      1  0.4435230000000  0.5493480000000  0.5509830000000 1.0
C      1  0.4897890000000  0.5138750000000  0.5358060000000 1.0
C      1  0.4940620000000  0.4317550000000  0.5024350000000 1.0
C      1  0.4628360000000  0.4715850000000  0.4842010000000 1.0
C      1  0.4428330000000  0.5332790000000  0.4795160000000 1.0
C      1  0.5175760000000  0.5092480000000  0.3906530000000 1.0
C      1  0.4629040000000  0.5161960000000  0.4609310000000 1.0
C      1  0.5445480000000  0.5764170000000  0.4531240000000 1.0
C      1  0.5448190000000  0.5487170000000  0.4568630000000 1.0
C      1  0.5672980000000  0.4619460000000  0.5134590000000 1.0
C      1  0.4383410000000  0.4900900000000  0.5229470000000 1.0
C      1  0.4724170000000  0.4673120000000  0.5643340000000 1.0
C      1  0.5179320000000  0.4479450000000  0.5083040000000 1.0
C      1  0.5125540000000  0.5304240000000  0.5498800000000 1.0
C      1  0.5969810000000  0.4239340000000  0.4993800000000 1.0
C      1  0.4846440000000  0.4942860000000  0.4713410000000 1.0
C      1  0.4619340000000  0.4650490000000  0.4261490000000 1.0
C      1  0.5762080000000  0.4403960000000  0.4961290000000 1.0
C      1  0.4702040000000  0.5589280000000  0.5370730000000 1.0
C      1  0.5212060000000  0.5210810000000  0.4137530000000 1.0
C      1  0.5162890000000  0.5355400000000  0.4684870000000 1.0
C      1  0.4722490000000  0.5466090000000  0.4563780000000 1.0
C      1  0.4944700000000  0.5698050000000  0.4960530000000 1.0
C      1  0.5259910000000  0.5305690000000  0.4370530000000 1.0
C      1  0.5566190000000  0.4407970000000  0.4745230000000 1.0
C      1  0.5312180000000  0.4387640000000  0.5360210000000 1.0
C      1  0.5691340000000  0.5376060000000  0.4647250000000 1.0
C      1  0.5343090000000  0.5093050000000  0.5635810000000 1.0
C      1  0.5375160000000  0.5048090000000  0.5041960000000 1.0
END
