TITL C-1154830-9999-419 -0.00212429473180112 125000 -338.17849419117 0 0 60 (C1) n - 1
REM
REM in /home/nfs/bkarasulu/CARBON/AIRSS/Generating-Clusters/AIREBO/Higher-Symm/Only-C60
REM
REM
REM
REM
REM
REM ./C.cell (28575a23ae977d3b5fae324c64b13b57)
REM
REM compiler GCC version 9.2.1 20190827 (Red Hat 9.2.1-1)
REM options -cpp -mtune=generic -march=x86-64 -g -O0 -fpre-include=/usr/include/finclude/math-vector-fortran.h
REM seed -203731409 1680296639 -1780446504 1957435485 60230938 1390570698 934063604 766513578 338926693 1196212759 1272351607 -1765032876 -1682857896 1611515602 1109942312 -1991934134 179279391 1637796791 1260770638 364758915 -1460695879 1879171787 142377831 216854153 -1418830663 -528548255 -1375212432 -485779493 -1652892000 962083370 1398276175 1039016268 -670635673
REM
CELL 1.54180   50.00000   50.00000   50.00000   90.00000   90.00000   90.00000
LATT -1
SFAC C  
C      1  0.4561620000000  0.5423910000000  0.5629230000000 1.0
C      1  0.4322760000000  0.5386540000000  0.4696670000000 1.0
C      1  0.4983610000000  0.5425360000000  0.4326950000000 1.0
C      1  0.5594030000000  0.5418480000000  0.4846860000000 1.0
C      1  0.5346050000000  0.5390270000000  0.5612570000000 1.0
C      1  0.5201260000000  0.5506370000000  0.5043940000000 1.0
C      1  0.5001530000000  0.5550130000000  0.5241760000000 1.0
C      1  0.4743060000000  0.5528970000000  0.5113730000000 1.0
C      1  0.4794990000000  0.5502150000000  0.4834120000000 1.0
C      1  0.5075280000000  0.5495620000000  0.4793810000000 1.0
C      1  0.4934930000000  0.5066860000000  0.5770920000000 1.0
C      1  0.4282210000000  0.5212000000000  0.5155720000000 1.0
C      1  0.4690060000000  0.5059340000000  0.4245850000000 1.0
C      1  0.5635790000000  0.5156060000000  0.4445150000000 1.0
C      1  0.5644340000000  0.5091420000000  0.5312510000000 1.0
C      1  0.5194390000000  0.5117940000000  0.5291500000000 1.0
C      1  0.4758470000000  0.5195340000000  0.5349420000000 1.0
C      1  0.4675880000000  0.5039020000000  0.4758350000000 1.0
C      1  0.5242570000000  0.5052340000000  0.4560790000000 1.0
C      1  0.5451720000000  0.4978160000000  0.4962420000000 1.0
C      1  0.4436870000000  0.4847080000000  0.4640090000000 1.0
C      1  0.5470770000000  0.4859900000000  0.4437580000000 1.0
C      1  0.5725080000000  0.4859050000000  0.5038060000000 1.0
C      1  0.5197550000000  0.4974530000000  0.5575350000000 1.0
C      1  0.4480970000000  0.5021840000000  0.5399370000000 1.0
C      1  0.4283330000000  0.4870880000000  0.5167490000000 1.0
C      1  0.4706650000000  0.4805300000000  0.4436550000000 1.0
C      1  0.5777270000000  0.4898890000000  0.4566270000000 1.0
C      1  0.5587600000000  0.4755550000000  0.5319840000000 1.0
C      1  0.4931940000000  0.4785150000000  0.5587390000000 1.0
C      1  0.4190270000000  0.5326300000000  0.4902560000000 1.0
C      1  0.4740630000000  0.5303170000000  0.4364400000000 1.0
C      1  0.5511540000000  0.5354030000000  0.4592130000000 1.0
C      1  0.5571400000000  0.5323320000000  0.5510500000000 1.0
C      1  0.4802490000000  0.5332210000000  0.5722480000000 1.0
C      1  0.4940740000000  0.4393960000000  0.5239800000000 1.0
C      1  0.4719490000000  0.4426920000000  0.5060100000000 1.0
C      1  0.4824640000000  0.4400670000000  0.4788010000000 1.0
C      1  0.5109340000000  0.4356500000000  0.4801200000000 1.0
C      1  0.5187050000000  0.4372900000000  0.5080450000000 1.0
C      1  0.5305160000000  0.4679520000000  0.5493210000000 1.0
C      1  0.4509110000000  0.4687700000000  0.5345260000000 1.0
C      1  0.4382620000000  0.4573060000000  0.4750880000000 1.0
C      1  0.5366200000000  0.4577260000000  0.4400710000000 1.0
C      1  0.5890790000000  0.4832950000000  0.4799870000000 1.0
C      1  0.4624780000000  0.5327790000000  0.4653100000000 1.0
C      1  0.5201190000000  0.5372090000000  0.4544280000000 1.0
C      1  0.5438080000000  0.5271670000000  0.5110940000000 1.0
C      1  0.5038190000000  0.5340270000000  0.5477560000000 1.0
C      1  0.4499450000000  0.5406630000000  0.5301330000000 1.0
C      1  0.5176380000000  0.4915630000000  0.4853580000000 1.0
C      1  0.5028820000000  0.4947420000000  0.5112170000000 1.0
C      1  0.4799020000000  0.4800830000000  0.5305260000000 1.0
C      1  0.4719890000000  0.5026380000000  0.5056870000000 1.0
C      1  0.4946030000000  0.4920310000000  0.4620740000000 1.0
C      1  0.4646860000000  0.4513660000000  0.4601360000000 1.0
C      1  0.5270620000000  0.4392590000000  0.4575420000000 1.0
C      1  0.5397510000000  0.4490300000000  0.5224330000000 1.0
C      1  0.5017850000000  0.4488410000000  0.5495300000000 1.0
C      1  0.4411280000000  0.4571080000000  0.5055930000000 1.0
END
