TITL C-1154801-8518-210 0.00290896540963007 125000 -329.73732317734 0 0 60 (C1) n - 1
REM
REM in /home/nfs/bkarasulu/CARBON/AIRSS/Generating-Clusters/AIREBO/Higher-Symm/Only-C60
REM
REM
REM
REM
REM
REM ./C.cell (28575a23ae977d3b5fae324c64b13b57)
REM
REM compiler GCC version 9.2.1 20190827 (Red Hat 9.2.1-1)
REM options -cpp -mtune=generic -march=x86-64 -g -O0 -fpre-include=/usr/include/finclude/math-vector-fortran.h
REM seed 2130724248 -1922261153 1798442954 -1851604116 1967014174 117621190 2051912652 -1803930264 -1937647870 -2019751006 -777041792 -1670331419 1217893447 -960326316 -795681974 -1277489384 -1056375598 2133942744 -1633101201 773486376 1660073853 -1656904882 -838819544 -1960266429 551095878 1083086739 -243898582 -92997671 -202010470 -1588872175 -2040586410 -1781917593 -726779345
REM
CELL 1.54180   50.00000   50.00000   50.00000   90.00000   90.00000   90.00000
LATT -1
SFAC C  
C      1  0.5312440000000  0.5811760000000  0.4789010000000 1.0
C      1  0.4673040000000  0.5854210000000  0.5215860000000 1.0
C      1  0.5352580000000  0.4217290000000  0.5091600000000 1.0
C      1  0.4689990000000  0.4244520000000  0.4790270000000 1.0
C      1  0.5641770000000  0.5230110000000  0.4420120000000 1.0
C      1  0.4364110000000  0.5271600000000  0.5606620000000 1.0
C      1  0.5568770000000  0.4795910000000  0.5587910000000 1.0
C      1  0.4432880000000  0.4814780000000  0.4424300000000 1.0
C      1  0.4905580000000  0.5058140000000  0.4138650000000 1.0
C      1  0.5110230000000  0.5094100000000  0.5858090000000 1.0
C      1  0.4785650000000  0.4799260000000  0.5713740000000 1.0
C      1  0.5202430000000  0.4773770000000  0.4281070000000 1.0
C      1  0.5130630000000  0.5496460000000  0.4421750000000 1.0
C      1  0.4870290000000  0.5485160000000  0.5504810000000 1.0
C      1  0.5179130000000  0.4521070000000  0.5452770000000 1.0
C      1  0.4872490000000  0.4448690000000  0.4605090000000 1.0
C      1  0.4638580000000  0.5419450000000  0.4659040000000 1.0
C      1  0.5404950000000  0.5455890000000  0.5313000000000 1.0
C      1  0.4644730000000  0.4496000000000  0.5311130000000 1.0
C      1  0.5349080000000  0.4572110000000  0.4675290000000 1.0
C      1  0.4740540000000  0.5565780000000  0.4866270000000 1.0
C      1  0.5267340000000  0.5585800000000  0.5115650000000 1.0
C      1  0.4731620000000  0.4236260000000  0.5262000000000 1.0
C      1  0.5160530000000  0.4350490000000  0.4677370000000 1.0
C      1  0.5236970000000  0.5076230000000  0.4819000000000 1.0
C      1  0.4755100000000  0.5049830000000  0.5202020000000 1.0
C      1  0.5208600000000  0.4984050000000  0.5140720000000 1.0
C      1  0.4756610000000  0.4944140000000  0.4878550000000 1.0
C      1  0.4574500000000  0.5058480000000  0.5652260000000 1.0
C      1  0.5427050000000  0.5021480000000  0.4342670000000 1.0
C      1  0.4693760000000  0.4959440000000  0.4368600000000 1.0
C      1  0.5327760000000  0.4982700000000  0.5637620000000 1.0
C      1  0.4639370000000  0.5579610000000  0.5339350000000 1.0
C      1  0.5312450000000  0.5520240000000  0.4683730000000 1.0
C      1  0.4629650000000  0.4571900000000  0.4806070000000 1.0
C      1  0.5368000000000  0.4508870000000  0.5192580000000 1.0
C      1  0.5069120000000  0.4788200000000  0.5604210000000 1.0
C      1  0.4969860000000  0.4791850000000  0.4430030000000 1.0
C      1  0.5146350000000  0.5168570000000  0.4263760000000 1.0
C      1  0.4869950000000  0.5188300000000  0.5715750000000 1.0
C      1  0.5581390000000  0.4631050000000  0.5399470000000 1.0
C      1  0.4401550000000  0.4688240000000  0.4640130000000 1.0
C      1  0.5588710000000  0.5406250000000  0.4593790000000 1.0
C      1  0.4382960000000  0.5472270000000  0.5453860000000 1.0
C      1  0.5062290000000  0.5210770000000  0.4584840000000 1.0
C      1  0.4977640000000  0.5197970000000  0.5400610000000 1.0
C      1  0.5014230000000  0.4753560000000  0.5269530000000 1.0
C      1  0.4991800000000  0.4731170000000  0.4752130000000 1.0
C      1  0.5382580000000  0.4871940000000  0.4622780000000 1.0
C      1  0.4623030000000  0.4819100000000  0.5415720000000 1.0
C      1  0.5292800000000  0.5174310000000  0.5383360000000 1.0
C      1  0.4771070000000  0.5137300000000  0.4624280000000 1.0
C      1  0.5135920000000  0.4181430000000  0.4914400000000 1.0
C      1  0.4854550000000  0.4156830000000  0.5009510000000 1.0
C      1  0.5121800000000  0.5842420000000  0.5014320000000 1.0
C      1  0.4835010000000  0.5822340000000  0.4979690000000 1.0
C      1  0.4775790000000  0.4672420000000  0.5080850000000 1.0
C      1  0.5259650000000  0.4702960000000  0.4960790000000 1.0
C      1  0.4814640000000  0.5365640000000  0.5097700000000 1.0
C      1  0.5118140000000  0.5369550000000  0.4943940000000 1.0
END
