TITL C-1154824-75-443 5.61081415267871 125000 -331.130043111521 0 0 60 (D3h) n - 1
REM
REM in /home/nfs/bkarasulu/CARBON/AIRSS/Generating-Clusters/AIREBO/Higher-Symm/Only-C60
REM
REM
REM
REM
REM
REM ./C.cell (28575a23ae977d3b5fae324c64b13b57)
REM
REM compiler GCC version 9.2.1 20190827 (Red Hat 9.2.1-1)
REM options -cpp -mtune=generic -march=x86-64 -g -O0 -fpre-include=/usr/include/finclude/math-vector-fortran.h
REM seed 1679879569 163429355 -1627052571 553223836 -2147390884 733487628 664434757 -1635757436 1472255196 -327437653 1935098833 -1273050716 1096661734 -479002753 -895686201 -282705902 -1782126800 -1587610340 1384317027 -452680416 -100674452 250227925 372571656 -1982315262 -1385684532 -259304397 584973470 457257515 1151367895 -472793212 564367243 1404322526 -58053034
REM
CELL 1.54180   50.00000   50.00000   50.00000   90.00000   90.00000   90.00000
LATT -1
SFAC C  
C      1  0.4817510000000  0.5606060000000  0.4770370000000 1.0
C      1  0.5098830000000  0.5710980000000  0.4735360000000 1.0
C      1  0.5281870000000  0.5609700000000  0.4953570000000 1.0
C      1  0.5170110000000  0.5714490000000  0.5214150000000 1.0
C      1  0.4891020000000  0.5609680000000  0.5264120000000 1.0
C      1  0.4719810000000  0.5710960000000  0.5036500000000 1.0
C      1  0.4823910000000  0.4389100000000  0.4778330000000 1.0
C      1  0.5106330000000  0.4286690000000  0.4744680000000 1.0
C      1  0.5288270000000  0.4392740000000  0.4961530000000 1.0
C      1  0.5177610000000  0.4290210000000  0.5223480000000 1.0
C      1  0.4897420000000  0.4392720000000  0.5272080000000 1.0
C      1  0.4727310000000  0.4286670000000  0.5045830000000 1.0
C      1  0.4828270000000  0.4704490000000  0.4783850000000 1.0
C      1  0.5099090000000  0.4837430000000  0.4752070000000 1.0
C      1  0.5277040000000  0.4708010000000  0.4960890000000 1.0
C      1  0.5167360000000  0.4840790000000  0.5210620000000 1.0
C      1  0.4899310000000  0.4707990000000  0.5261020000000 1.0
C      1  0.4736110000000  0.4837400000000  0.5040480000000 1.0
C      1  0.4825190000000  0.5290830000000  0.4780010000000 1.0
C      1  0.5097390000000  0.5160350000000  0.4749960000000 1.0
C      1  0.5273950000000  0.5294350000000  0.4957060000000 1.0
C      1  0.5165660000000  0.5163710000000  0.5208500000000 1.0
C      1  0.4896230000000  0.5294330000000  0.5257180000000 1.0
C      1  0.4734410000000  0.5160320000000  0.5038370000000 1.0
C      1  0.4901500000000  0.4849600000000  0.4406240000000 1.0
C      1  0.5479380000000  0.4854140000000  0.4634220000000 1.0
C      1  0.5565450000000  0.4858380000000  0.5212330000000 1.0
C      1  0.5079050000000  0.4858350000000  0.5598800000000 1.0
C      1  0.4535350000000  0.4854080000000  0.5384300000000 1.0
C      1  0.4443870000000  0.4849580000000  0.4769850000000 1.0
C      1  0.4899970000000  0.5141560000000  0.4404330000000 1.0
C      1  0.5477840000000  0.5146100000000  0.4632310000000 1.0
C      1  0.5563910000000  0.5150340000000  0.5210420000000 1.0
C      1  0.5077510000000  0.5150310000000  0.5596890000000 1.0
C      1  0.4533820000000  0.5146040000000  0.5382390000000 1.0
C      1  0.4442340000000  0.5141540000000  0.4767940000000 1.0
C      1  0.4791140000000  0.5699830000000  0.5515470000000 1.0
C      1  0.4535050000000  0.5893140000000  0.5062670000000 1.0
C      1  0.4648560000000  0.5692810000000  0.4557740000000 1.0
C      1  0.5166070000000  0.5893180000000  0.4561300000000 1.0
C      1  0.5549280000000  0.5699880000000  0.4913090000000 1.0
C      1  0.5284750000000  0.5899030000000  0.5358450000000 1.0
C      1  0.4798490000000  0.4304820000000  0.5524610000000 1.0
C      1  0.4544470000000  0.4102910000000  0.5074400000000 1.0
C      1  0.4655900000000  0.4297800000000  0.4566870000000 1.0
C      1  0.5175490000000  0.4102950000000  0.4573020000000 1.0
C      1  0.5556630000000  0.4304870000000  0.4922230000000 1.0
C      1  0.5294170000000  0.4108790000000  0.5370170000000 1.0
C      1  0.5365400000000  0.4758040000000  0.5459860000000 1.0
C      1  0.4782570000000  0.4755910000000  0.5555990000000 1.0
C      1  0.4422390000000  0.4750640000000  0.5087820000000 1.0
C      1  0.4630560000000  0.4748420000000  0.4535020000000 1.0
C      1  0.5216120000000  0.4750690000000  0.4457160000000 1.0
C      1  0.5590760000000  0.4755950000000  0.4913840000000 1.0
C      1  0.5362800000000  0.5251790000000  0.5456630000000 1.0
C      1  0.4779970000000  0.5249060000000  0.5552760000000 1.0
C      1  0.4419790000000  0.5244390000000  0.5084590000000 1.0
C      1  0.4627970000000  0.5241570000000  0.4531790000000 1.0
C      1  0.5213520000000  0.5244440000000  0.4453930000000 1.0
C      1  0.5588170000000  0.5249100000000  0.4910610000000 1.0
END
