TITL C-1154810-7815-102 -0.00437439459292309 125000 -344.440892909047 0 0 60 (C1) n - 1
REM
REM in /home/nfs/bkarasulu/CARBON/AIRSS/Generating-Clusters/AIREBO/Higher-Symm/Only-C60
REM
REM
REM
REM
REM
REM ./C.cell (28575a23ae977d3b5fae324c64b13b57)
REM
REM compiler GCC version 9.2.1 20190827 (Red Hat 9.2.1-1)
REM options -cpp -mtune=generic -march=x86-64 -g -O0 -fpre-include=/usr/include/finclude/math-vector-fortran.h
REM seed 1979358171 -1027214710 -2050260051 333002559 2040102114 -564721351 -520374099 886380254 -1013604994 -1060791542 -1927320518 1274717836 1662267496 -157377900 71355535 -397779657 303140130 1582990704 -1321270216 -564223222 -285653495 -297913245 -1814107826 1990044183 -644530844 213843445 1283709379 358300565 -245327607 1170317715 -352483971 1229788076 -1502538807
REM
CELL 1.54180   50.00000   50.00000   50.00000   90.00000   90.00000   90.00000
LATT -1
SFAC C  
C      1  0.4180850000000  0.5053660000000  0.4071140000000 1.0
C      1  0.4181930000000  0.4862480000000  0.6051010000000 1.0
C      1  0.5239660000000  0.4433740000000  0.5058370000000 1.0
C      1  0.5209760000000  0.5531040000000  0.4876050000000 1.0
C      1  0.4378130000000  0.4885180000000  0.5880280000000 1.0
C      1  0.4391050000000  0.5080830000000  0.4223780000000 1.0
C      1  0.5462780000000  0.5206150000000  0.3804060000000 1.0
C      1  0.5503420000000  0.4834100000000  0.6110100000000 1.0
C      1  0.5352830000000  0.5124920000000  0.4988910000000 1.0
C      1  0.5337760000000  0.4911510000000  0.5156660000000 1.0
C      1  0.4554330000000  0.5554840000000  0.4761530000000 1.0
C      1  0.4605370000000  0.4459110000000  0.5248540000000 1.0
C      1  0.5567670000000  0.5652670000000  0.5193460000000 1.0
C      1  0.5896670000000  0.4115880000000  0.4963330000000 1.0
C      1  0.5145740000000  0.4721250000000  0.5135120000000 1.0
C      1  0.5096210000000  0.5231560000000  0.4832640000000 1.0
C      1  0.5140270000000  0.5528070000000  0.5408270000000 1.0
C      1  0.5192430000000  0.4475310000000  0.4496670000000 1.0
C      1  0.5701110000000  0.4241450000000  0.5084550000000 1.0
C      1  0.5686000000000  0.5635020000000  0.4941730000000 1.0
C      1  0.5155390000000  0.4948640000000  0.5802310000000 1.0
C      1  0.5178310000000  0.5107900000000  0.4177910000000 1.0
C      1  0.4358600000000  0.5661830000000  0.4933800000000 1.0
C      1  0.4403380000000  0.4418890000000  0.5059570000000 1.0
C      1  0.5293100000000  0.5575270000000  0.5185210000000 1.0
C      1  0.5276750000000  0.4435700000000  0.4747970000000 1.0
C      1  0.5506030000000  0.4669450000000  0.5660470000000 1.0
C      1  0.5551130000000  0.5381080000000  0.4243060000000 1.0
C      1  0.4816280000000  0.4280980000000  0.5268610000000 1.0
C      1  0.4780640000000  0.5700350000000  0.4692380000000 1.0
C      1  0.5036410000000  0.5758250000000  0.4776550000000 1.0
C      1  0.5052840000000  0.4210720000000  0.5144410000000 1.0
C      1  0.4385780000000  0.5622750000000  0.5205400000000 1.0
C      1  0.4436360000000  0.4477200000000  0.4792710000000 1.0
C      1  0.5137720000000  0.6013210000000  0.4782030000000 1.0
C      1  0.5125480000000  0.3951190000000  0.5093390000000 1.0
C      1  0.5506460000000  0.4395830000000  0.5201140000000 1.0
C      1  0.5498630000000  0.5555620000000  0.4744420000000 1.0
C      1  0.5053880000000  0.4638240000000  0.4331380000000 1.0
C      1  0.5032550000000  0.5403240000000  0.5620620000000 1.0
C      1  0.4826730000000  0.4805760000000  0.4783680000000 1.0
C      1  0.4716230000000  0.5226490000000  0.5233900000000 1.0
C      1  0.4650030000000  0.5024710000000  0.5787950000000 1.0
C      1  0.4693900000000  0.5012710000000  0.4279820000000 1.0
C      1  0.4791580000000  0.5164660000000  0.4952410000000 1.0
C      1  0.4868890000000  0.4829500000000  0.5082710000000 1.0
C      1  0.4785730000000  0.5035460000000  0.5413480000000 1.0
C      1  0.4973390000000  0.4994180000000  0.4641810000000 1.0
C      1  0.4669290000000  0.4737530000000  0.5342150000000 1.0
C      1  0.4588290000000  0.5271800000000  0.4746810000000 1.0
C      1  0.5516950000000  0.4496760000000  0.5457240000000 1.0
C      1  0.5529030000000  0.5508890000000  0.4477490000000 1.0
C      1  0.4979790000000  0.4943250000000  0.4338570000000 1.0
C      1  0.4929340000000  0.5115970000000  0.5685120000000 1.0
C      1  0.4589970000000  0.5464900000000  0.5295290000000 1.0
C      1  0.4662770000000  0.4598310000000  0.4698300000000 1.0
C      1  0.4504580000000  0.4821790000000  0.5594930000000 1.0
C      1  0.4522820000000  0.5154010000000  0.4508860000000 1.0
C      1  0.5391640000000  0.4817970000000  0.5865390000000 1.0
C      1  0.5399370000000  0.5230260000000  0.4064590000000 1.0
END
