TITL C-1154827-9204-24 0.00252665503020812 125000 -317.315990975222 0 0 60 (C1) n - 1
REM
REM in /home/nfs/bkarasulu/CARBON/AIRSS/Generating-Clusters/AIREBO/Higher-Symm/Only-C60
REM
REM
REM
REM
REM
REM ./C.cell (28575a23ae977d3b5fae324c64b13b57)
REM
REM compiler GCC version 9.2.1 20190827 (Red Hat 9.2.1-1)
REM options -cpp -mtune=generic -march=x86-64 -g -O0 -fpre-include=/usr/include/finclude/math-vector-fortran.h
REM seed -1439898385 -927952383 -118994589 1067802247 1604541080 112413770 1802978759 454564628 -213454679 -1669642847 317990700 676638168 -1384422483 -1256197112 -140771441 -840284443 -1739580666 -133051321 -2127531345 1434279670 -459175215 -1980253982 -1269099851 1975823545 -1943962881 -1828159707 -1531899326 -2142947883 105625749 -4495705 -1089175877 517524225 524659867
REM
CELL 1.54180   50.00000   50.00000   50.00000   90.00000   90.00000   90.00000
LATT -1
SFAC C  
C      1  0.4988290000000  0.5195820000000  0.4652470000000 1.0
C      1  0.4793100000000  0.4800760000000  0.4633690000000 1.0
C      1  0.5311110000000  0.4962400000000  0.4670930000000 1.0
C      1  0.5359630000000  0.5494520000000  0.4584180000000 1.0
C      1  0.4444780000000  0.5172030000000  0.4612300000000 1.0
C      1  0.5164950000000  0.4457690000000  0.4603900000000 1.0
C      1  0.5183040000000  0.4870720000000  0.5565640000000 1.0
C      1  0.5153050000000  0.5148030000000  0.5472330000000 1.0
C      1  0.4628640000000  0.4909810000000  0.5450900000000 1.0
C      1  0.4682740000000  0.5577810000000  0.5551380000000 1.0
C      1  0.4625540000000  0.4461150000000  0.5591250000000 1.0
C      1  0.5809700000000  0.4934190000000  0.5579550000000 1.0
C      1  0.4806350000000  0.4556700000000  0.5410120000000 1.0
C      1  0.5624110000000  0.5008370000000  0.5394220000000 1.0
C      1  0.4649180000000  0.5391780000000  0.5347800000000 1.0
C      1  0.5060440000000  0.4354790000000  0.5061150000000 1.0
C      1  0.5541130000000  0.5342170000000  0.5013840000000 1.0
C      1  0.4297650000000  0.5353840000000  0.5010080000000 1.0
C      1  0.4257870000000  0.5092060000000  0.5180870000000 1.0
C      1  0.5318410000000  0.4521810000000  0.5214470000000 1.0
C      1  0.5475650000000  0.5466820000000  0.5282260000000 1.0
C      1  0.5518820000000  0.4593380000000  0.4949240000000 1.0
C      1  0.5015540000000  0.5530460000000  0.4984300000000 1.0
C      1  0.4403510000000  0.4841750000000  0.5006700000000 1.0
C      1  0.5269560000000  0.5212680000000  0.4462130000000 1.0
C      1  0.4740480000000  0.5093070000000  0.4464190000000 1.0
C      1  0.4973820000000  0.4577430000000  0.4438420000000 1.0
C      1  0.4120370000000  0.4826390000000  0.4915460000000 1.0
C      1  0.5666030000000  0.4343440000000  0.4853570000000 1.0
C      1  0.5137120000000  0.5763130000000  0.5138360000000 1.0
C      1  0.4000850000000  0.5041380000000  0.5277420000000 1.0
C      1  0.5492910000000  0.4336410000000  0.5369330000000 1.0
C      1  0.5365620000000  0.5721610000000  0.5282270000000 1.0
C      1  0.5246030000000  0.5011600000000  0.5002510000000 1.0
C      1  0.4874240000000  0.5221390000000  0.4971840000000 1.0
C      1  0.4984780000000  0.4832620000000  0.4912800000000 1.0
C      1  0.4792370000000  0.4454180000000  0.5120330000000 1.0
C      1  0.5668340000000  0.5065470000000  0.5083750000000 1.0
C      1  0.4532580000000  0.5492420000000  0.5081170000000 1.0
C      1  0.4574180000000  0.4549990000000  0.4702960000000 1.0
C      1  0.5626460000000  0.4946440000000  0.4634360000000 1.0
C      1  0.4690200000000  0.5599880000000  0.4617160000000 1.0
C      1  0.5689820000000  0.4856490000000  0.4896140000000 1.0
C      1  0.4718400000000  0.5580560000000  0.4896050000000 1.0
C      1  0.4560280000000  0.4546820000000  0.4988150000000 1.0
C      1  0.5102060000000  0.4611790000000  0.5457790000000 1.0
C      1  0.5408500000000  0.5249690000000  0.5440310000000 1.0
C      1  0.4481230000000  0.5131000000000  0.5391130000000 1.0
C      1  0.4254270000000  0.5321190000000  0.4732190000000 1.0
C      1  0.5115810000000  0.4251940000000  0.4801100000000 1.0
C      1  0.5582520000000  0.5534490000000  0.4766410000000 1.0
C      1  0.4610320000000  0.5008290000000  0.4831510000000 1.0
C      1  0.5259600000000  0.4672250000000  0.4792940000000 1.0
C      1  0.5241240000000  0.5314090000000  0.4847010000000 1.0
C      1  0.5548220000000  0.5044010000000  0.4361350000000 1.0
C      1  0.4756740000000  0.5422640000000  0.4418700000000 1.0
C      1  0.4692730000000  0.4465520000000  0.4441170000000 1.0
C      1  0.4867570000000  0.4833050000000  0.5221440000000 1.0
C      1  0.5345490000000  0.4864510000000  0.5266940000000 1.0
C      1  0.4896030000000  0.5163280000000  0.5298060000000 1.0
END
