TITL C-1154827-9204-590 -0.000877369986087299 125000 -321.336171367859 0 0 60 (C1) n - 1
REM
REM in /home/nfs/bkarasulu/CARBON/AIRSS/Generating-Clusters/AIREBO/Higher-Symm/Only-C60
REM
REM
REM
REM
REM
REM ./C.cell (28575a23ae977d3b5fae324c64b13b57)
REM
REM compiler GCC version 9.2.1 20190827 (Red Hat 9.2.1-1)
REM options -cpp -mtune=generic -march=x86-64 -g -O0 -fpre-include=/usr/include/finclude/math-vector-fortran.h
REM seed 909266635 -1338671962 -786527320 1881147751 736256224 -662242794 732762786 982235469 626768268 1986227140 -1340936695 -1506502012 212222011 -542833724 1240560858 906331619 -127657332 -9621752 37210040 2079089574 -1618691333 -1868642030 1964960223 1534188326 -442935636 1216768192 290701662 531468848 -609862872 -1437109872 -1791809424 2124100712 73775609
REM
CELL 1.54180   50.00000   50.00000   50.00000   90.00000   90.00000   90.00000
LATT -1
SFAC C  
C      1  0.5719720000000  0.5220040000000  0.4599680000000 1.0
C      1  0.4204660000000  0.5376280000000  0.5184680000000 1.0
C      1  0.5741940000000  0.4796940000000  0.5299240000000 1.0
C      1  0.4281650000000  0.4654870000000  0.4795770000000 1.0
C      1  0.4706700000000  0.4614290000000  0.4550920000000 1.0
C      1  0.5316430000000  0.5489880000000  0.4617830000000 1.0
C      1  0.4661670000000  0.5264790000000  0.5540770000000 1.0
C      1  0.5316590000000  0.4447330000000  0.5263250000000 1.0
C      1  0.5385820000000  0.5083000000000  0.5594590000000 1.0
C      1  0.4617060000000  0.4462330000000  0.5200790000000 1.0
C      1  0.5310120000000  0.4859940000000  0.4464180000000 1.0
C      1  0.4706380000000  0.5605340000000  0.4893480000000 1.0
C      1  0.4631710000000  0.4337280000000  0.4932960000000 1.0
C      1  0.5323260000000  0.5114270000000  0.4327170000000 1.0
C      1  0.4673150000000  0.5650850000000  0.5166090000000 1.0
C      1  0.5370610000000  0.4813750000000  0.5660450000000 1.0
C      1  0.4643310000000  0.4800930000000  0.5539690000000 1.0
C      1  0.5383280000000  0.4456060000000  0.4764350000000 1.0
C      1  0.4647510000000  0.5094070000000  0.4494930000000 1.0
C      1  0.5293010000000  0.5484130000000  0.5094930000000 1.0
C      1  0.4296960000000  0.4875970000000  0.4971400000000 1.0
C      1  0.5715560000000  0.5043040000000  0.4816440000000 1.0
C      1  0.4401210000000  0.5183530000000  0.4996300000000 1.0
C      1  0.5625680000000  0.5041800000000  0.5118790000000 1.0
C      1  0.5056530000000  0.5348520000000  0.4695290000000 1.0
C      1  0.4950240000000  0.5178280000000  0.5383030000000 1.0
C      1  0.5068280000000  0.4665160000000  0.5182190000000 1.0
C      1  0.4986430000000  0.4705910000000  0.4695100000000 1.0
C      1  0.5261560000000  0.5351980000000  0.5611930000000 1.0
C      1  0.4548030000000  0.4547890000000  0.5458870000000 1.0
C      1  0.5400990000000  0.4583070000000  0.4507830000000 1.0
C      1  0.4759780000000  0.5597390000000  0.4599000000000 1.0
C      1  0.4892260000000  0.5711170000000  0.5318080000000 1.0
C      1  0.5107780000000  0.4745330000000  0.5694690000000 1.0
C      1  0.4898030000000  0.4248760000000  0.4882650000000 1.0
C      1  0.5075660000000  0.5220630000000  0.4226860000000 1.0
C      1  0.4515660000000  0.4499490000000  0.4726880000000 1.0
C      1  0.5481610000000  0.5311980000000  0.4471260000000 1.0
C      1  0.4496030000000  0.5440110000000  0.5312900000000 1.0
C      1  0.5504550000000  0.4640190000000  0.5445390000000 1.0
C      1  0.4754910000000  0.5274190000000  0.4833530000000 1.0
C      1  0.5270610000000  0.5132140000000  0.5278500000000 1.0
C      1  0.4768450000000  0.4714200000000  0.5029340000000 1.0
C      1  0.5212610000000  0.4938240000000  0.4773040000000 1.0
C      1  0.4504390000000  0.4841440000000  0.5170650000000 1.0
C      1  0.5521930000000  0.4828320000000  0.4798630000000 1.0
C      1  0.4441380000000  0.5265080000000  0.4687820000000 1.0
C      1  0.5550230000000  0.5327710000000  0.5228400000000 1.0
C      1  0.5383740000000  0.5641040000000  0.4839370000000 1.0
C      1  0.4561950000000  0.5040420000000  0.5667250000000 1.0
C      1  0.5424740000000  0.4326870000000  0.5038140000000 1.0
C      1  0.4624390000000  0.4805140000000  0.4372800000000 1.0
C      1  0.4940630000000  0.4842770000000  0.5445910000000 1.0
C      1  0.5090930000000  0.4489840000000  0.4891590000000 1.0
C      1  0.4854720000000  0.5313820000000  0.4436570000000 1.0
C      1  0.5096160000000  0.5484110000000  0.5351980000000 1.0
C      1  0.5185600000000  0.5193280000000  0.4954950000000 1.0
C      1  0.4704610000000  0.5203120000000  0.5149230000000 1.0
C      1  0.5364630000000  0.4832040000000  0.5177830000000 1.0
C      1  0.4765980000000  0.4939640000000  0.4773830000000 1.0
END
