TITL C-1154828-9214-419 0.000937176706739612 125000 -351.324164936762 0 0 60 (C1) n - 1
REM
REM in /home/nfs/bkarasulu/CARBON/AIRSS/Generating-Clusters/AIREBO/Higher-Symm/Only-C60
REM
REM
REM
REM
REM
REM ./C.cell (28575a23ae977d3b5fae324c64b13b57)
REM
REM compiler GCC version 9.2.1 20190827 (Red Hat 9.2.1-1)
REM options -cpp -mtune=generic -march=x86-64 -g -O0 -fpre-include=/usr/include/finclude/math-vector-fortran.h
REM seed 1788213539 -2119051351 1956598372 2078105349 -1400059032 -1409289135 130849587 -548476676 1349833792 -2003316772 1335243555 -142888198 -1465468134 -2057402878 608341958 915558506 -1055884528 -729361500 -86423387 1664001188 -2141316806 -1127878696 794543052 1785586805 -1997578143 -995349363 -21627644 2142932669 1225375549 64534288 -835527099 441010595 1897643320
REM
CELL 1.54180   50.00000   50.00000   50.00000   90.00000   90.00000   90.00000
LATT -1
SFAC C  
C      1  0.5525630000000  0.4820460000000  0.5324700000000 1.0
C      1  0.5530440000000  0.4676210000000  0.4842480000000 1.0
C      1  0.5553460000000  0.5184560000000  0.4645730000000 1.0
C      1  0.5542080000000  0.5328440000000  0.5161400000000 1.0
C      1  0.5567390000000  0.4907000000000  0.4653330000000 1.0
C      1  0.5585620000000  0.4623810000000  0.5112390000000 1.0
C      1  0.5571010000000  0.5092370000000  0.5339290000000 1.0
C      1  0.5590790000000  0.5352080000000  0.4890140000000 1.0
C      1  0.5120140000000  0.5238980000000  0.4235490000000 1.0
C      1  0.5113200000000  0.5730610000000  0.5230680000000 1.0
C      1  0.5100960000000  0.4763600000000  0.5713100000000 1.0
C      1  0.5106350000000  0.4296120000000  0.4773440000000 1.0
C      1  0.5116000000000  0.5229350000000  0.5689300000000 1.0
C      1  0.5183690000000  0.5751490000000  0.4757990000000 1.0
C      1  0.5145430000000  0.4759470000000  0.4295220000000 1.0
C      1  0.5148750000000  0.4242950000000  0.5242100000000 1.0
C      1  0.4436750000000  0.5154370000000  0.4675650000000 1.0
C      1  0.4399950000000  0.5311590000000  0.5153250000000 1.0
C      1  0.4334500000000  0.4830940000000  0.5416120000000 1.0
C      1  0.4423300000000  0.4688690000000  0.4932620000000 1.0
C      1  0.4367010000000  0.5101260000000  0.5367720000000 1.0
C      1  0.4311710000000  0.5292780000000  0.4887190000000 1.0
C      1  0.4467380000000  0.4883070000000  0.4702140000000 1.0
C      1  0.4425860000000  0.4641150000000  0.5202460000000 1.0
C      1  0.4928330000000  0.5738020000000  0.4635700000000 1.0
C      1  0.4856360000000  0.5295230000000  0.5650990000000 1.0
C      1  0.4896810000000  0.4254230000000  0.5350740000000 1.0
C      1  0.4892300000000  0.4654180000000  0.4302530000000 1.0
C      1  0.4846670000000  0.5705770000000  0.5299690000000 1.0
C      1  0.4855730000000  0.5317380000000  0.4247340000000 1.0
C      1  0.4841330000000  0.4307350000000  0.4708460000000 1.0
C      1  0.4852780000000  0.4657040000000  0.5748580000000 1.0
C      1  0.4688950000000  0.5452250000000  0.5195410000000 1.0
C      1  0.4621350000000  0.4688500000000  0.5547050000000 1.0
C      1  0.4698090000000  0.4569170000000  0.4779500000000 1.0
C      1  0.4675210000000  0.5303910000000  0.4515510000000 1.0
C      1  0.4780040000000  0.5510580000000  0.4705930000000 1.0
C      1  0.4715130000000  0.4761760000000  0.4526440000000 1.0
C      1  0.4694920000000  0.4481100000000  0.5299640000000 1.0
C      1  0.4685100000000  0.5213180000000  0.5411460000000 1.0
C      1  0.5281450000000  0.5230640000000  0.5445560000000 1.0
C      1  0.5298560000000  0.4501100000000  0.5250940000000 1.0
C      1  0.5264590000000  0.4798280000000  0.4572720000000 1.0
C      1  0.5312470000000  0.5479390000000  0.4761490000000 1.0
C      1  0.5278410000000  0.5287680000000  0.4487610000000 1.0
C      1  0.5230260000000  0.4568460000000  0.4796140000000 1.0
C      1  0.5230250000000  0.4761480000000  0.5446360000000 1.0
C      1  0.5261470000000  0.5479400000000  0.5233540000000 1.0
C      1  0.4708760000000  0.4904210000000  0.5302980000000 1.0
C      1  0.4806990000000  0.4693120000000  0.5066070000000 1.0
C      1  0.4854020000000  0.5389400000000  0.4952580000000 1.0
C      1  0.4823680000000  0.5041010000000  0.4613750000000 1.0
C      1  0.5161490000000  0.5002630000000  0.5849330000000 1.0
C      1  0.5177440000000  0.4124300000000  0.4986570000000 1.0
C      1  0.5184650000000  0.4984390000000  0.4125500000000 1.0
C      1  0.5191790000000  0.5887050000000  0.5007450000000 1.0
C      1  0.5113910000000  0.4720040000000  0.5067650000000 1.0
C      1  0.5119230000000  0.5067320000000  0.4691840000000 1.0
C      1  0.5161330000000  0.5258990000000  0.4971860000000 1.0
C      1  0.5196200000000  0.5010120000000  0.5201140000000 1.0
END
