TITL C-1154821-8623-465 0.00463159391125621 125000 -302.251996346354 0 0 60 (C1) n - 1
REM
REM in /home/nfs/bkarasulu/CARBON/AIRSS/Generating-Clusters/AIREBO/Higher-Symm/Only-C60
REM
REM
REM
REM
REM
REM ./C.cell (28575a23ae977d3b5fae324c64b13b57)
REM
REM compiler GCC version 9.2.1 20190827 (Red Hat 9.2.1-1)
REM options -cpp -mtune=generic -march=x86-64 -g -O0 -fpre-include=/usr/include/finclude/math-vector-fortran.h
REM seed 1297032539 2016244282 1619165234 992594073 1903707709 -1793835975 1376574442 1311671934 -90663120 15588250 350191645 66232604 -43870976 1738056484 -1296511537 1964996198 -232359484 -1380467155 2147433532 375680817 -2106095281 1770367380 -332807357 -622010361 -1242137005 -704403614 -507084054 1894687248 61891536 2097885299 -25326449 1748470188 918845839
REM
CELL 1.54180   50.00000   50.00000   50.00000   90.00000   90.00000   90.00000
LATT -1
SFAC C  
C      1  0.4449710000000  0.4889290000000  0.4600980000000 1.0
C      1  0.4815530000000  0.5587410000000  0.4641830000000 1.0
C      1  0.5568540000000  0.5137220000000  0.4604680000000 1.0
C      1  0.5131250000000  0.4457080000000  0.4626500000000 1.0
C      1  0.5595180000000  0.4810400000000  0.4627360000000 1.0
C      1  0.5123880000000  0.5546330000000  0.4621850000000 1.0
C      1  0.4418810000000  0.5187330000000  0.4625690000000 1.0
C      1  0.4814810000000  0.4437560000000  0.4633030000000 1.0
C      1  0.4434610000000  0.5302420000000  0.4903380000000 1.0
C      1  0.5281600000000  0.5538700000000  0.4883340000000 1.0
C      1  0.5557770000000  0.4664340000000  0.4897940000000 1.0
C      1  0.4677130000000  0.4528750000000  0.4860640000000 1.0
C      1  0.5551200000000  0.5322400000000  0.4884810000000 1.0
C      1  0.4676910000000  0.5543280000000  0.4909170000000 1.0
C      1  0.4445640000000  0.4737590000000  0.4858260000000 1.0
C      1  0.5284250000000  0.4453480000000  0.4904430000000 1.0
C      1  0.4864100000000  0.4647070000000  0.4401500000000 1.0
C      1  0.4642950000000  0.5172320000000  0.4400710000000 1.0
C      1  0.5159050000000  0.5356080000000  0.4376970000000 1.0
C      1  0.5389600000000  0.4850180000000  0.4393470000000 1.0
C      1  0.5183110000000  0.4653730000000  0.4376110000000 1.0
C      1  0.5361960000000  0.5164550000000  0.4359300000000 1.0
C      1  0.4839150000000  0.5374480000000  0.4405440000000 1.0
C      1  0.4665040000000  0.4847690000000  0.4371040000000 1.0
C      1  0.4285560000000  0.4832680000000  0.5148240000000 1.0
C      1  0.4802040000000  0.5741630000000  0.5166690000000 1.0
C      1  0.5743060000000  0.5181680000000  0.5142340000000 1.0
C      1  0.5154950000000  0.4262470000000  0.5161030000000 1.0
C      1  0.5742670000000  0.4840010000000  0.5143250000000 1.0
C      1  0.5139450000000  0.5741880000000  0.5121090000000 1.0
C      1  0.4232590000000  0.5154960000000  0.5139170000000 1.0
C      1  0.4851150000000  0.4253800000000  0.5271370000000 1.0
C      1  0.4679300000000  0.4404020000000  0.5474480000000 1.0
C      1  0.4430870000000  0.5292600000000  0.5379090000000 1.0
C      1  0.5293420000000  0.5542760000000  0.5340890000000 1.0
C      1  0.5580600000000  0.4677480000000  0.5404750000000 1.0
C      1  0.5292410000000  0.4498260000000  0.5357130000000 1.0
C      1  0.5559800000000  0.5319990000000  0.5407150000000 1.0
C      1  0.4669070000000  0.5552480000000  0.5427230000000 1.0
C      1  0.4465150000000  0.4661430000000  0.5395610000000 1.0
C      1  0.5110980000000  0.4655450000000  0.5116160000000 1.0
C      1  0.4625040000000  0.4815020000000  0.5137740000000 1.0
C      1  0.4839500000000  0.5403730000000  0.5173300000000 1.0
C      1  0.5403490000000  0.5165160000000  0.5147820000000 1.0
C      1  0.4828030000000  0.4542250000000  0.5131850000000 1.0
C      1  0.5403160000000  0.4824970000000  0.5154830000000 1.0
C      1  0.5131270000000  0.5343640000000  0.5117860000000 1.0
C      1  0.4629760000000  0.5155180000000  0.5139860000000 1.0
C      1  0.5333240000000  0.4841850000000  0.5553270000000 1.0
C      1  0.4822080000000  0.4649440000000  0.5575270000000 1.0
C      1  0.4666510000000  0.5149610000000  0.5538000000000 1.0
C      1  0.5156130000000  0.5321580000000  0.5525610000000 1.0
C      1  0.4645980000000  0.4885310000000  0.5576770000000 1.0
C      1  0.5096990000000  0.4660880000000  0.5581340000000 1.0
C      1  0.5348710000000  0.5109220000000  0.5570310000000 1.0
C      1  0.4890340000000  0.5333350000000  0.5563710000000 1.0
C      1  0.4779940000000  0.4987900000000  0.4884690000000 1.0
C      1  0.5051000000000  0.5163350000000  0.4863420000000 1.0
C      1  0.5330040000000  0.4990900000000  0.4864780000000 1.0
C      1  0.5053970000000  0.4833390000000  0.4866080000000 1.0
END
