TITL C-1154804-8633-262 0.00112194396416701 125000 -302.427359378055 0 0 60 (C1) n - 1
REM
REM in /home/nfs/bkarasulu/CARBON/AIRSS/Generating-Clusters/AIREBO/Higher-Symm/Only-C60
REM
REM
REM
REM
REM
REM ./C.cell (28575a23ae977d3b5fae324c64b13b57)
REM
REM compiler GCC version 9.2.1 20190827 (Red Hat 9.2.1-1)
REM options -cpp -mtune=generic -march=x86-64 -g -O0 -fpre-include=/usr/include/finclude/math-vector-fortran.h
REM seed -703021263 670946113 846607663 -412397624 427439763 -1974346674 -248649547 -2005773569 256782075 -603145806 624221226 -1619766586 1777159154 -383806277 -1864868382 -1239001781 58524756 -1456675239 762330124 -1152573114 1004327651 1166858270 -1024248876 -655607245 -383945666 747322288 -1435143495 -1616191189 957422686 -1132654080 -97517359 -2065154442 1060817108
REM
CELL 1.54180   50.00000   50.00000   50.00000   90.00000   90.00000   90.00000
LATT -1
SFAC C  
C      1  0.4294860000000  0.5528970000000  0.4825500000000 1.0
C      1  0.4859860000000  0.4337400000000  0.5535060000000 1.0
C      1  0.5487270000000  0.4808730000000  0.4349270000000 1.0
C      1  0.5733450000000  0.5577130000000  0.5249910000000 1.0
C      1  0.4266300000000  0.4424450000000  0.5247510000000 1.0
C      1  0.5707000000000  0.4470830000000  0.4822420000000 1.0
C      1  0.5082350000000  0.4568660000000  0.4426700000000 1.0
C      1  0.4918710000000  0.5433230000000  0.4424350000000 1.0
C      1  0.5141490000000  0.5664800000000  0.5534280000000 1.0
C      1  0.4441950000000  0.4843850000000  0.5592270000000 1.0
C      1  0.5557600000000  0.5154260000000  0.5591890000000 1.0
C      1  0.4504450000000  0.5184460000000  0.4339180000000 1.0
C      1  0.4362620000000  0.4421200000000  0.4963100000000 1.0
C      1  0.4900360000000  0.5476160000000  0.5496030000000 1.0
C      1  0.5560020000000  0.5072410000000  0.4461200000000 1.0
C      1  0.5515270000000  0.4475160000000  0.5053660000000 1.0
C      1  0.4487240000000  0.5526560000000  0.5056740000000 1.0
C      1  0.5637280000000  0.5579430000000  0.4965610000000 1.0
C      1  0.5156630000000  0.5614380000000  0.4407010000000 1.0
C      1  0.4845820000000  0.4384790000000  0.4409450000000 1.0
C      1  0.5101310000000  0.4525960000000  0.5494920000000 1.0
C      1  0.4317330000000  0.5154470000000  0.5571180000000 1.0
C      1  0.5679900000000  0.4842770000000  0.5568170000000 1.0
C      1  0.4433410000000  0.4922750000000  0.4458200000000 1.0
C      1  0.4919420000000  0.5591370000000  0.5213070000000 1.0
C      1  0.5367150000000  0.4844050000000  0.5427550000000 1.0
C      1  0.5532900000000  0.5273770000000  0.4910820000000 1.0
C      1  0.5192770000000  0.5461440000000  0.4711030000000 1.0
C      1  0.4805720000000  0.4537450000000  0.4710680000000 1.0
C      1  0.5084300000000  0.4402770000000  0.5213960000000 1.0
C      1  0.4683750000000  0.4833320000000  0.4670370000000 1.0
C      1  0.5315460000000  0.5166720000000  0.4677920000000 1.0
C      1  0.4631250000000  0.5157410000000  0.5433170000000 1.0
C      1  0.4446390000000  0.5228120000000  0.5162340000000 1.0
C      1  0.5554630000000  0.4773560000000  0.5158660000000 1.0
C      1  0.4467420000000  0.4727690000000  0.4908200000000 1.0
C      1  0.4760300000000  0.4430610000000  0.5222960000000 1.0
C      1  0.5261480000000  0.5155330000000  0.5431950000000 1.0
C      1  0.5581540000000  0.4788610000000  0.4820010000000 1.0
C      1  0.5143500000000  0.4551120000000  0.4758680000000 1.0
C      1  0.4856010000000  0.5446490000000  0.4756010000000 1.0
C      1  0.5242430000000  0.5571620000000  0.5222560000000 1.0
C      1  0.4697660000000  0.5170290000000  0.4626270000000 1.0
C      1  0.5297160000000  0.4829440000000  0.4638010000000 1.0
C      1  0.4737220000000  0.4847190000000  0.5429190000000 1.0
C      1  0.4515420000000  0.4666100000000  0.5239150000000 1.0
C      1  0.5485300000000  0.5334330000000  0.5242020000000 1.0
C      1  0.4423750000000  0.5212480000000  0.4823420000000 1.0
C      1  0.4307790000000  0.4939300000000  0.4738970000000 1.0
C      1  0.5037340000000  0.4828220000000  0.5477430000000 1.0
C      1  0.4960600000000  0.5172380000000  0.5491610000000 1.0
C      1  0.4971170000000  0.5132680000000  0.4427680000000 1.0
C      1  0.5674280000000  0.5055400000000  0.5288200000000 1.0
C      1  0.4327300000000  0.4945050000000  0.5288590000000 1.0
C      1  0.5694110000000  0.5065280000000  0.4739750000000 1.0
C      1  0.5248110000000  0.4427240000000  0.5003240000000 1.0
C      1  0.4754520000000  0.5570030000000  0.5003150000000 1.0
C      1  0.5029850000000  0.4868870000000  0.4428210000000 1.0
C      1  0.4662020000000  0.4380840000000  0.4931600000000 1.0
C      1  0.5337480000000  0.5620590000000  0.4929940000000 1.0
END
