TITL C-1154823-9327-655 -0.00246399615754475 125000 -340.288045630274 0 0 60 (C1) n - 1
REM
REM in /home/nfs/bkarasulu/CARBON/AIRSS/Generating-Clusters/AIREBO/Higher-Symm/Only-C60
REM
REM
REM
REM
REM
REM ./C.cell (28575a23ae977d3b5fae324c64b13b57)
REM
REM compiler GCC version 9.2.1 20190827 (Red Hat 9.2.1-1)
REM options -cpp -mtune=generic -march=x86-64 -g -O0 -fpre-include=/usr/include/finclude/math-vector-fortran.h
REM seed 627332527 488230160 -20731746 1716007440 -1110945229 1047638830 -1284201481 1219937747 -610124366 -617159794 -1226750618 -1144896533 571656032 2006643189 -1504505744 -340101263 1188797645 489086553 692016586 -461900333 -162612406 238515666 234534580 1999581409 -1345436611 -716226930 585963050 -498527214 1190323982 1220419883 -983771347 -984835800 -729308516
REM
CELL 1.54180   50.00000   50.00000   50.00000   90.00000   90.00000   90.00000
LATT -1
SFAC C  
C      1  0.4739120000000  0.4992000000000  0.4543300000000 1.0
C      1  0.5199880000000  0.5228670000000  0.4600940000000 1.0
C      1  0.5073620000000  0.4723130000000  0.4523590000000 1.0
C      1  0.4742160000000  0.4953550000000  0.5422820000000 1.0
C      1  0.5191240000000  0.4779730000000  0.5470880000000 1.0
C      1  0.5187840000000  0.5261090000000  0.5328090000000 1.0
C      1  0.5450850000000  0.5579090000000  0.4669160000000 1.0
C      1  0.5249580000000  0.4298280000000  0.4619550000000 1.0
C      1  0.4258180000000  0.5109750000000  0.4615430000000 1.0
C      1  0.5456980000000  0.4430390000000  0.5354940000000 1.0
C      1  0.5249640000000  0.5761960000000  0.5402180000000 1.0
C      1  0.4292890000000  0.4908870000000  0.5369510000000 1.0
C      1  0.5007350000000  0.5462200000000  0.4431710000000 1.0
C      1  0.5389340000000  0.4762040000000  0.4412230000000 1.0
C      1  0.4566080000000  0.4743420000000  0.4392010000000 1.0
C      1  0.5013450000000  0.4530850000000  0.5597360000000 1.0
C      1  0.5446370000000  0.5255200000000  0.5556090000000 1.0
C      1  0.4635730000000  0.5238250000000  0.5575270000000 1.0
C      1  0.5489810000000  0.5064910000000  0.4532490000000 1.0
C      1  0.4809560000000  0.4515770000000  0.4469980000000 1.0
C      1  0.4700710000000  0.5321550000000  0.4484510000000 1.0
C      1  0.5490950000000  0.4920950000000  0.5520070000000 1.0
C      1  0.4933600000000  0.5384270000000  0.5496110000000 1.0
C      1  0.4701670000000  0.4629760000000  0.5504520000000 1.0
C      1  0.4372970000000  0.4851410000000  0.4619810000000 1.0
C      1  0.5171690000000  0.5622680000000  0.4654080000000 1.0
C      1  0.5409670000000  0.4530880000000  0.4622130000000 1.0
C      1  0.4409010000000  0.5165960000000  0.5365280000000 1.0
C      1  0.5177440000000  0.4395930000000  0.5362740000000 1.0
C      1  0.5437410000000  0.5557450000000  0.5425130000000 1.0
C      1  0.4880330000000  0.4819640000000  0.5719210000000 1.0
C      1  0.4924340000000  0.5140200000000  0.5725320000000 1.0
C      1  0.5211910000000  0.5038380000000  0.5673660000000 1.0
C      1  0.4934330000000  0.5151320000000  0.4314930000000 1.0
C      1  0.4874260000000  0.4762200000000  0.4249560000000 1.0
C      1  0.5226120000000  0.5040750000000  0.4318780000000 1.0
C      1  0.5082900000000  0.5300100000000  0.4873040000000 1.0
C      1  0.5072630000000  0.4770890000000  0.4857430000000 1.0
C      1  0.4790760000000  0.4900510000000  0.4841540000000 1.0
C      1  0.5131510000000  0.4773600000000  0.5177330000000 1.0
C      1  0.5045750000000  0.5092250000000  0.5093940000000 1.0
C      1  0.4725540000000  0.5059400000000  0.5125060000000 1.0
C      1  0.5041720000000  0.5742150000000  0.5149170000000 1.0
C      1  0.5541990000000  0.4613700000000  0.5102330000000 1.0
C      1  0.4376590000000  0.4725510000000  0.5113570000000 1.0
C      1  0.5046820000000  0.4299360000000  0.4873910000000 1.0
C      1  0.5577680000000  0.5423130000000  0.4932510000000 1.0
C      1  0.4350420000000  0.5307640000000  0.4858090000000 1.0
C      1  0.4487080000000  0.4782070000000  0.4871610000000 1.0
C      1  0.5037590000000  0.5595440000000  0.4917200000000 1.0
C      1  0.5393460000000  0.4660260000000  0.4878290000000 1.0
C      1  0.4471600000000  0.5252410000000  0.5093220000000 1.0
C      1  0.5055050000000  0.4451680000000  0.5097610000000 1.0
C      1  0.5471650000000  0.5372840000000  0.5177540000000 1.0
C      1  0.5640520000000  0.4693260000000  0.5398250000000 1.0
C      1  0.4419940000000  0.4613610000000  0.5409880000000 1.0
C      1  0.4945080000000  0.5674500000000  0.5443230000000 1.0
C      1  0.5633600000000  0.5313180000000  0.4635040000000 1.0
C      1  0.4425530000000  0.5382200000000  0.4557980000000 1.0
C      1  0.4928480000000  0.4267820000000  0.4578890000000 1.0
END
