TITL C-1154823-9327-154 0.000233208853623952 125000 -362.141181614909 0 0 60 (C1) n - 1
REM
REM in /home/nfs/bkarasulu/CARBON/AIRSS/Generating-Clusters/AIREBO/Higher-Symm/Only-C60
REM
REM
REM
REM
REM
REM ./C.cell (28575a23ae977d3b5fae324c64b13b57)
REM
REM compiler GCC version 9.2.1 20190827 (Red Hat 9.2.1-1)
REM options -cpp -mtune=generic -march=x86-64 -g -O0 -fpre-include=/usr/include/finclude/math-vector-fortran.h
REM seed 667935648 -449170626 -34679647 716629198 2085068958 -985671295 1091000035 947882714 676387525 -761973804 950007161 397329248 1631007163 998470943 -1112102409 180275527 -771868075 442305018 1381036730 1685328757 -928452234 490525188 -978518540 11627745 238090324 -1740142919 388058710 -2002020227 990552901 1479899326 -2043891038 -146321388 -843371254
REM
CELL 1.54180   50.00000   50.00000   50.00000   90.00000   90.00000   90.00000
LATT -1
SFAC C  
C      1  0.4811440000000  0.4414610000000  0.4872200000000 1.0
C      1  0.4813520000000  0.4825920000000  0.4460480000000 1.0
C      1  0.4744750000000  0.5447630000000  0.4625960000000 1.0
C      1  0.4720110000000  0.5568520000000  0.5166350000000 1.0
C      1  0.4716570000000  0.5273000000000  0.5606430000000 1.0
C      1  0.4750740000000  0.4469930000000  0.5477750000000 1.0
C      1  0.4677510000000  0.4429260000000  0.5160520000000 1.0
C      1  0.4715800000000  0.4723660000000  0.5579960000000 1.0
C      1  0.4805220000000  0.5495920000000  0.5470650000000 1.0
C      1  0.4822260000000  0.5631290000000  0.4877270000000 1.0
C      1  0.4742750000000  0.5149170000000  0.4487990000000 1.0
C      1  0.4708980000000  0.4575940000000  0.4600720000000 1.0
C      1  0.5267460000000  0.5265440000000  0.4388610000000 1.0
C      1  0.5324250000000  0.5689180000000  0.4713460000000 1.0
C      1  0.5283840000000  0.5381640000000  0.5538330000000 1.0
C      1  0.5256850000000  0.4830330000000  0.5549570000000 1.0
C      1  0.5207260000000  0.4459930000000  0.5086190000000 1.0
C      1  0.5234920000000  0.4459900000000  0.4526230000000 1.0
C      1  0.5196740000000  0.5146950000000  0.5655080000000 1.0
C      1  0.5258400000000  0.5660310000000  0.5045790000000 1.0
C      1  0.5240280000000  0.5535990000000  0.4437440000000 1.0
C      1  0.5290970000000  0.4701400000000  0.4404420000000 1.0
C      1  0.5350480000000  0.4399500000000  0.4823450000000 1.0
C      1  0.5258830000000  0.4522300000000  0.5405440000000 1.0
C      1  0.4409970000000  0.4617600000000  0.4633080000000 1.0
C      1  0.4410670000000  0.5107690000000  0.4510730000000 1.0
C      1  0.4323900000000  0.5476930000000  0.4880020000000 1.0
C      1  0.4328880000000  0.5324800000000  0.5346860000000 1.0
C      1  0.4489150000000  0.4865620000000  0.5482480000000 1.0
C      1  0.4392700000000  0.4517840000000  0.5126150000000 1.0
C      1  0.4315580000000  0.4704890000000  0.5323990000000 1.0
C      1  0.4486130000000  0.5146900000000  0.5501390000000 1.0
C      1  0.4423620000000  0.5495110000000  0.5142190000000 1.0
C      1  0.4448920000000  0.5354350000000  0.4662840000000 1.0
C      1  0.4313670000000  0.4849270000000  0.4508450000000 1.0
C      1  0.4298980000000  0.4503260000000  0.4863280000000 1.0
C      1  0.5651040000000  0.5298260000000  0.4666550000000 1.0
C      1  0.5504420000000  0.5496020000000  0.5135640000000 1.0
C      1  0.5679220000000  0.5145930000000  0.5450380000000 1.0
C      1  0.5548830000000  0.4645630000000  0.5348590000000 1.0
C      1  0.5623960000000  0.4518740000000  0.4856170000000 1.0
C      1  0.5512730000000  0.4850200000000  0.4497680000000 1.0
C      1  0.5514790000000  0.5363280000000  0.5377990000000 1.0
C      1  0.5555460000000  0.5495200000000  0.4840310000000 1.0
C      1  0.5491610000000  0.5131350000000  0.4502460000000 1.0
C      1  0.5696260000000  0.4695270000000  0.4648840000000 1.0
C      1  0.5690980000000  0.4545070000000  0.5128940000000 1.0
C      1  0.5587370000000  0.4888630000000  0.5502350000000 1.0
C      1  0.5040520000000  0.5677200000000  0.5207800000000 1.0
C      1  0.4910020000000  0.5132950000000  0.5756260000000 1.0
C      1  0.5017940000000  0.4334290000000  0.5527620000000 1.0
C      1  0.5053460000000  0.4235520000000  0.4796520000000 1.0
C      1  0.5067620000000  0.4828800000000  0.4295010000000 1.0
C      1  0.4979840000000  0.5648140000000  0.4515920000000 1.0
C      1  0.5023890000000  0.5836450000000  0.4774800000000 1.0
C      1  0.5035870000000  0.5125580000000  0.4327740000000 1.0
C      1  0.4948160000000  0.4356350000000  0.4508790000000 1.0
C      1  0.4988590000000  0.4301390000000  0.5210890000000 1.0
C      1  0.4943960000000  0.4842810000000  0.5683690000000 1.0
C      1  0.5091360000000  0.5584940000000  0.5497300000000 1.0
END
