TITL C-1154829-9094-541 0.00186896479712482 125000 -355.694137480259 0 0 60 (C1) n - 1
REM
REM in /home/nfs/bkarasulu/CARBON/AIRSS/Generating-Clusters/AIREBO/Higher-Symm/Only-C60
REM
REM
REM
REM
REM
REM ./C.cell (28575a23ae977d3b5fae324c64b13b57)
REM
REM compiler GCC version 9.2.1 20190827 (Red Hat 9.2.1-1)
REM options -cpp -mtune=generic -march=x86-64 -g -O0 -fpre-include=/usr/include/finclude/math-vector-fortran.h
REM seed -1023908484 -833274015 -316078153 879394343 -1528821987 -689825379 1636613592 1910464182 450625343 -2112138428 96905641 1382201759 1059602410 -552934182 322266171 1113158884 317184043 1062705669 1573258536 -426040900 406890861 679305876 898475313 820638548 -1191666242 961603432 -1056362786 194742796 1115999339 -343041861 -1203105067 -240571451 -499697361
REM
CELL 1.54180   50.00000   50.00000   50.00000   90.00000   90.00000   90.00000
LATT -1
SFAC C  
C      1  0.4625030000000  0.5570000000000  0.5606490000000 1.0
C      1  0.5006120000000  0.4157850000000  0.4909500000000 1.0
C      1  0.5127340000000  0.5457930000000  0.4570770000000 1.0
C      1  0.5143140000000  0.4780150000000  0.5476610000000 1.0
C      1  0.5036490000000  0.4584800000000  0.4194270000000 1.0
C      1  0.4285480000000  0.4912570000000  0.5527900000000 1.0
C      1  0.4981000000000  0.4936660000000  0.5649440000000 1.0
C      1  0.4431450000000  0.5338860000000  0.5022400000000 1.0
C      1  0.5519810000000  0.5004270000000  0.4283470000000 1.0
C      1  0.4292690000000  0.4393460000000  0.4632980000000 1.0
C      1  0.4670150000000  0.5448360000000  0.4898210000000 1.0
C      1  0.4944510000000  0.5521730000000  0.5085160000000 1.0
C      1  0.5125770000000  0.5252400000000  0.5119990000000 1.0
C      1  0.4512850000000  0.4862610000000  0.4910830000000 1.0
C      1  0.4356510000000  0.4600790000000  0.4895880000000 1.0
C      1  0.5688500000000  0.4782300000000  0.5014800000000 1.0
C      1  0.5406010000000  0.4867900000000  0.5415130000000 1.0
C      1  0.5552040000000  0.5864880000000  0.4916270000000 1.0
C      1  0.5010340000000  0.5216930000000  0.5693330000000 1.0
C      1  0.4554550000000  0.4524230000000  0.5324860000000 1.0
C      1  0.5247080000000  0.5364520000000  0.5656220000000 1.0
C      1  0.5461880000000  0.4886390000000  0.5142710000000 1.0
C      1  0.5449850000000  0.4313030000000  0.4806620000000 1.0
C      1  0.5609510000000  0.4987580000000  0.4599140000000 1.0
C      1  0.5370120000000  0.5445650000000  0.4721540000000 1.0
C      1  0.5421350000000  0.5626250000000  0.4934630000000 1.0
C      1  0.5340890000000  0.5543430000000  0.5473110000000 1.0
C      1  0.4818530000000  0.4559300000000  0.5151460000000 1.0
C      1  0.4332560000000  0.4523620000000  0.5199180000000 1.0
C      1  0.5112930000000  0.5232160000000  0.4400400000000 1.0
C      1  0.5260790000000  0.4242300000000  0.4998860000000 1.0
C      1  0.4692160000000  0.4973710000000  0.4406720000000 1.0
C      1  0.4749790000000  0.5788860000000  0.4862410000000 1.0
C      1  0.4984160000000  0.4969620000000  0.4509930000000 1.0
C      1  0.6083890000000  0.4903160000000  0.4742190000000 1.0
C      1  0.5324680000000  0.5181850000000  0.4217530000000 1.0
C      1  0.4234510000000  0.4985890000000  0.5272120000000 1.0
C      1  0.4788540000000  0.4811370000000  0.4963490000000 1.0
C      1  0.5004170000000  0.4922570000000  0.4818740000000 1.0
C      1  0.5497970000000  0.4466600000000  0.4592210000000 1.0
C      1  0.4789640000000  0.4333130000000  0.4929700000000 1.0
C      1  0.4562100000000  0.4358920000000  0.4791030000000 1.0
C      1  0.5435670000000  0.4732490000000  0.4459050000000 1.0
C      1  0.4332460000000  0.5514690000000  0.5221820000000 1.0
C      1  0.5440630000000  0.5175750000000  0.4760530000000 1.0
C      1  0.5264920000000  0.5542030000000  0.5175520000000 1.0
C      1  0.4448810000000  0.4997220000000  0.4332870000000 1.0
C      1  0.4536100000000  0.5661290000000  0.5355790000000 1.0
C      1  0.5259020000000  0.5034190000000  0.4964050000000 1.0
C      1  0.5065800000000  0.4558350000000  0.5322660000000 1.0
C      1  0.4740620000000  0.4825700000000  0.5743560000000 1.0
C      1  0.5815620000000  0.4877470000000  0.4782910000000 1.0
C      1  0.4480780000000  0.4796210000000  0.5674640000000 1.0
C      1  0.4908830000000  0.5572200000000  0.4690080000000 1.0
C      1  0.5248930000000  0.4352130000000  0.5259600000000 1.0
C      1  0.5587560000000  0.4924750000000  0.5605800000000 1.0
C      1  0.4732860000000  0.5750000000000  0.5176420000000 1.0
C      1  0.4378270000000  0.5070160000000  0.5044900000000 1.0
C      1  0.4776490000000  0.5373360000000  0.5717440000000 1.0
C      1  0.5139760000000  0.4743400000000  0.4374110000000 1.0
END
