TITL C-1154821-8623-47 0.000392376502512993 125000 -320.043043623887 0 0 60 (C1) n - 1
REM
REM in /home/nfs/bkarasulu/CARBON/AIRSS/Generating-Clusters/AIREBO/Higher-Symm/Only-C60
REM
REM
REM
REM
REM
REM ./C.cell (28575a23ae977d3b5fae324c64b13b57)
REM
REM compiler GCC version 9.2.1 20190827 (Red Hat 9.2.1-1)
REM options -cpp -mtune=generic -march=x86-64 -g -O0 -fpre-include=/usr/include/finclude/math-vector-fortran.h
REM seed -1740411843 1754668983 1400858627 627652779 -1385144572 1914299584 241801221 -524906713 -972087636 194426968 -1201255935 2056518612 -320129124 1272127699 -1495519671 630316549 -1366831702 760438884 1370380333 -1190979814 -867323280 813145782 -76521669 2083152445 1885733772 2118722523 1153388460 -983350305 -1704769215 -809642857 -85408209 1101662193 -2054410390
REM
CELL 1.54180   50.00000   50.00000   50.00000   90.00000   90.00000   90.00000
LATT -1
SFAC C  
C      1  0.5516040000000  0.5180330000000  0.5263040000000 1.0
C      1  0.5477940000000  0.4862480000000  0.5202130000000 1.0
C      1  0.4826950000000  0.5280110000000  0.5601740000000 1.0
C      1  0.4839860000000  0.4726490000000  0.5608870000000 1.0
C      1  0.5109610000000  0.4874910000000  0.5554000000000 1.0
C      1  0.5107430000000  0.5149030000000  0.5568400000000 1.0
C      1  0.5559040000000  0.4833640000000  0.4687440000000 1.0
C      1  0.5545200000000  0.5121790000000  0.4745720000000 1.0
C      1  0.5636300000000  0.4630110000000  0.5024230000000 1.0
C      1  0.5656590000000  0.5382190000000  0.5044810000000 1.0
C      1  0.4590850000000  0.4344140000000  0.4426690000000 1.0
C      1  0.4600700000000  0.5684690000000  0.4442240000000 1.0
C      1  0.5007090000000  0.5669250000000  0.4755870000000 1.0
C      1  0.4993370000000  0.4334790000000  0.4743960000000 1.0
C      1  0.4947470000000  0.5822460000000  0.5031790000000 1.0
C      1  0.4946540000000  0.4186470000000  0.5022870000000 1.0
C      1  0.4845990000000  0.4416260000000  0.5620660000000 1.0
C      1  0.4814980000000  0.5589930000000  0.5619690000000 1.0
C      1  0.4937560000000  0.4838140000000  0.4739520000000 1.0
C      1  0.4905000000000  0.5136780000000  0.4715010000000 1.0
C      1  0.4545190000000  0.5132340000000  0.5618600000000 1.0
C      1  0.4550680000000  0.4859570000000  0.5623300000000 1.0
C      1  0.5278920000000  0.5311990000000  0.5425340000000 1.0
C      1  0.5277300000000  0.4725800000000  0.5395510000000 1.0
C      1  0.4724090000000  0.5591500000000  0.4651390000000 1.0
C      1  0.4711450000000  0.4418830000000  0.4644640000000 1.0
C      1  0.4657810000000  0.4317820000000  0.5100060000000 1.0
C      1  0.4658860000000  0.5677350000000  0.5093930000000 1.0
C      1  0.5496480000000  0.5636290000000  0.4648320000000 1.0
C      1  0.5487630000000  0.4318090000000  0.4660220000000 1.0
C      1  0.4975770000000  0.5170540000000  0.4413840000000 1.0
C      1  0.5003120000000  0.4865160000000  0.4441280000000 1.0
C      1  0.5690670000000  0.5374800000000  0.4696770000000 1.0
C      1  0.5691060000000  0.4569990000000  0.4686830000000 1.0
C      1  0.5154030000000  0.4501880000000  0.5269240000000 1.0
C      1  0.5150490000000  0.5523720000000  0.5283220000000 1.0
C      1  0.4437810000000  0.4872780000000  0.4790950000000 1.0
C      1  0.4457610000000  0.5121830000000  0.4769170000000 1.0
C      1  0.4352610000000  0.5384230000000  0.5144380000000 1.0
C      1  0.4348900000000  0.4599410000000  0.5161330000000 1.0
C      1  0.4578720000000  0.5415440000000  0.4892370000000 1.0
C      1  0.4562870000000  0.4574550000000  0.4898240000000 1.0
C      1  0.5101860000000  0.4701030000000  0.4255450000000 1.0
C      1  0.4974740000000  0.5328150000000  0.4201810000000 1.0
C      1  0.4841460000000  0.4716560000000  0.5016700000000 1.0
C      1  0.4861210000000  0.5267360000000  0.5004400000000 1.0
C      1  0.5146280000000  0.5448310000000  0.4973890000000 1.0
C      1  0.5137820000000  0.4563860000000  0.4949730000000 1.0
C      1  0.5244440000000  0.5728730000000  0.4549800000000 1.0
C      1  0.5232930000000  0.4242420000000  0.4554460000000 1.0
C      1  0.4903510000000  0.4319220000000  0.5333210000000 1.0
C      1  0.4888910000000  0.5689130000000  0.5339100000000 1.0
C      1  0.4462150000000  0.5269060000000  0.5359700000000 1.0
C      1  0.4461910000000  0.4718280000000  0.5372390000000 1.0
C      1  0.4772630000000  0.5149270000000  0.5290660000000 1.0
C      1  0.4778170000000  0.4844650000000  0.5295940000000 1.0
C      1  0.5452300000000  0.5577340000000  0.4939990000000 1.0
C      1  0.5437180000000  0.4408890000000  0.4945310000000 1.0
C      1  0.5316590000000  0.4837820000000  0.4905800000000 1.0
C      1  0.5329350000000  0.5161980000000  0.4984060000000 1.0
END
