TITL C-1154828-9214-719 0.000329417927183181 125000 -342.627959872264 0 0 60 (C1) n - 1
REM
REM in /home/nfs/bkarasulu/CARBON/AIRSS/Generating-Clusters/AIREBO/Higher-Symm/Only-C60
REM
REM
REM
REM
REM
REM ./C.cell (28575a23ae977d3b5fae324c64b13b57)
REM
REM compiler GCC version 9.2.1 20190827 (Red Hat 9.2.1-1)
REM options -cpp -mtune=generic -march=x86-64 -g -O0 -fpre-include=/usr/include/finclude/math-vector-fortran.h
REM seed -557136482 -553797438 1651949922 1913736631 -2097172049 1386841746 -2111916665 543944577 2011931993 1454156325 -677486709 2038703415 -1281925445 -1061838832 -331699582 -1949069301 550107168 -2139423463 -2139774638 -799694199 1262356617 873587770 -725760592 -943037674 2104494413 -1977975904 398744108 368561124 -348926799 -1185304312 2997233 635881323 1177186766
REM
CELL 1.54180   50.00000   50.00000   50.00000   90.00000   90.00000   90.00000
LATT -1
SFAC C  
C      1  0.5492540000000  0.4972350000000  0.5493990000000 1.0
C      1  0.4773780000000  0.5108130000000  0.5786060000000 1.0
C      1  0.4251560000000  0.4981970000000  0.4977100000000 1.0
C      1  0.4891460000000  0.5012220000000  0.4241720000000 1.0
C      1  0.5731240000000  0.5096600000000  0.4549410000000 1.0
C      1  0.5212880000000  0.5585820000000  0.5114890000000 1.0
C      1  0.4941990000000  0.5599420000000  0.5228500000000 1.0
C      1  0.4746450000000  0.5583130000000  0.5010370000000 1.0
C      1  0.4894150000000  0.5588820000000  0.4757160000000 1.0
C      1  0.5184800000000  0.5589370000000  0.4820830000000 1.0
C      1  0.5275020000000  0.5090870000000  0.4304610000000 1.0
C      1  0.5608480000000  0.4990810000000  0.5023050000000 1.0
C      1  0.5136810000000  0.4996740000000  0.5668580000000 1.0
C      1  0.4410450000000  0.5063330000000  0.5431280000000 1.0
C      1  0.4543770000000  0.4988970000000  0.4583450000000 1.0
C      1  0.4876330000000  0.4460160000000  0.4800890000000 1.0
C      1  0.5172650000000  0.4495690000000  0.4854130000000 1.0
C      1  0.5217750000000  0.4478640000000  0.5133820000000 1.0
C      1  0.4965730000000  0.4438780000000  0.5264740000000 1.0
C      1  0.4753850000000  0.4460820000000  0.5052760000000 1.0
C      1  0.5340320000000  0.5406560000000  0.4380980000000 1.0
C      1  0.5629550000000  0.5309130000000  0.5127750000000 1.0
C      1  0.4995990000000  0.5305630000000  0.5688410000000 1.0
C      1  0.4407730000000  0.5366890000000  0.5297130000000 1.0
C      1  0.4555520000000  0.5316210000000  0.4502800000000 1.0
C      1  0.5628370000000  0.4815220000000  0.4760930000000 1.0
C      1  0.5387630000000  0.4787940000000  0.5713150000000 1.0
C      1  0.4535140000000  0.4919790000000  0.5674330000000 1.0
C      1  0.4347910000000  0.4814300000000  0.4753610000000 1.0
C      1  0.5120760000000  0.4871030000000  0.4114320000000 1.0
C      1  0.4527980000000  0.4604330000000  0.5713100000000 1.0
C      1  0.4412190000000  0.4567800000000  0.4863240000000 1.0
C      1  0.5114600000000  0.4609190000000  0.4209050000000 1.0
C      1  0.5639760000000  0.4532570000000  0.4616450000000 1.0
C      1  0.5410800000000  0.4525810000000  0.5584650000000 1.0
C      1  0.5273300000000  0.5193120000000  0.5426440000000 1.0
C      1  0.4728710000000  0.5166950000000  0.5426630000000 1.0
C      1  0.4490890000000  0.5169770000000  0.4867000000000 1.0
C      1  0.5004790000000  0.5211340000000  0.4472200000000 1.0
C      1  0.5493540000000  0.5191100000000  0.4773440000000 1.0
C      1  0.4719770000000  0.4572000000000  0.5434220000000 1.0
C      1  0.4489370000000  0.4598120000000  0.5185300000000 1.0
C      1  0.4983370000000  0.4594650000000  0.4518660000000 1.0
C      1  0.5314110000000  0.4628720000000  0.4598840000000 1.0
C      1  0.5436500000000  0.4560200000000  0.5293860000000 1.0
C      1  0.5002010000000  0.5081470000000  0.4748520000000 1.0
C      1  0.5231250000000  0.5081850000000  0.4909470000000 1.0
C      1  0.5143240000000  0.5085570000000  0.5171100000000 1.0
C      1  0.4865710000000  0.5062840000000  0.5178960000000 1.0
C      1  0.4777870000000  0.5058250000000  0.4912140000000 1.0
C      1  0.4318240000000  0.4863920000000  0.5227870000000 1.0
C      1  0.4756940000000  0.4834540000000  0.4436280000000 1.0
C      1  0.5448760000000  0.4919040000000  0.4483880000000 1.0
C      1  0.5552550000000  0.4821710000000  0.5260340000000 1.0
C      1  0.4856100000000  0.4812520000000  0.5632140000000 1.0
C      1  0.4805990000000  0.5428150000000  0.4542050000000 1.0
C      1  0.5364090000000  0.5447200000000  0.4653980000000 1.0
C      1  0.5399470000000  0.5410800000000  0.5240820000000 1.0
C      1  0.4888120000000  0.5454010000000  0.5458860000000 1.0
C      1  0.4519360000000  0.5417110000000  0.5049780000000 1.0
END
