TITL C-1154804-8633-416 4.06044066565619e-05 125000 -340.610236050438 0 0 60 (C3h) n - 1
REM
REM in /home/nfs/bkarasulu/CARBON/AIRSS/Generating-Clusters/AIREBO/Higher-Symm/Only-C60
REM
REM
REM
REM
REM
REM ./C.cell (28575a23ae977d3b5fae324c64b13b57)
REM
REM compiler GCC version 9.2.1 20190827 (Red Hat 9.2.1-1)
REM options -cpp -mtune=generic -march=x86-64 -g -O0 -fpre-include=/usr/include/finclude/math-vector-fortran.h
REM seed 1349477312 1366594146 -1582413101 -306427771 -2023442246 1476877397 930071415 1016330236 -1155132148 210307068 -1912457716 1255938608 -1787756840 -1054550458 654851642 2122938698 -1101941261 1005786700 2060539866 -718133434 1965446026 247689343 1018397980 1527647490 -295466352 -1998138306 1936373104 1763043756 2140973988 -119812844 817499852 -189148202 1733426719
REM
CELL 1.54180   50.00000   50.00000   50.00000   90.00000   90.00000   90.00000
LATT -1
SFAC C  
C      1  0.5292910000000  0.5047790000000  0.5354010000000 1.0
C      1  0.4812870000000  0.5227910000000  0.5353190000000 1.0
C      1  0.4896170000000  0.4723720000000  0.5352500000000 1.0
C      1  0.5291230000000  0.5047110000000  0.4648100000000 1.0
C      1  0.4812920000000  0.5230580000000  0.4647270000000 1.0
C      1  0.4893810000000  0.4722960000000  0.4646520000000 1.0
C      1  0.5279990000000  0.5503420000000  0.4831550000000 1.0
C      1  0.4423350000000  0.4991600000000  0.4831650000000 1.0
C      1  0.5289580000000  0.4516040000000  0.4829880000000 1.0
C      1  0.5274530000000  0.5493070000000  0.5171440000000 1.0
C      1  0.4436190000000  0.4990500000000  0.5171490000000 1.0
C      1  0.5295920000000  0.4505550000000  0.5169750000000 1.0
C      1  0.5000050000000  0.4328200000000  0.4851040000000 1.0
C      1  0.5582230000000  0.5337940000000  0.4850300000000 1.0
C      1  0.4416020000000  0.5336380000000  0.4850120000000 1.0
C      1  0.5005750000000  0.4329760000000  0.5146580000000 1.0
C      1  0.5576270000000  0.5338360000000  0.5145870000000 1.0
C      1  0.4419130000000  0.5329130000000  0.5145590000000 1.0
C      1  0.5089060000000  0.4662600000000  0.4404900000000 1.0
C      1  0.5243210000000  0.5245130000000  0.4407490000000 1.0
C      1  0.4664660000000  0.5088900000000  0.4407310000000 1.0
C      1  0.5091090000000  0.4666280000000  0.5593460000000 1.0
C      1  0.5247890000000  0.5246470000000  0.5596010000000 1.0
C      1  0.4664230000000  0.5090550000000  0.5595770000000 1.0
C      1  0.4781270000000  0.4457590000000  0.4727970000000 1.0
C      1  0.5576780000000  0.5084110000000  0.4727930000000 1.0
C      1  0.4638380000000  0.5459350000000  0.4727450000000 1.0
C      1  0.4787070000000  0.4457720000000  0.5271080000000 1.0
C      1  0.5578430000000  0.5084480000000  0.5270960000000 1.0
C      1  0.4638150000000  0.5456900000000  0.5270490000000 1.0
C      1  0.5076250000000  0.5218010000000  0.4835200000000 1.0
C      1  0.4772700000000  0.4958650000000  0.4833560000000 1.0
C      1  0.5148910000000  0.4825520000000  0.4837160000000 1.0
C      1  0.5076260000000  0.5216940000000  0.5163790000000 1.0
C      1  0.4774340000000  0.4956070000000  0.5162100000000 1.0
C      1  0.5151350000000  0.4824990000000  0.5165780000000 1.0
C      1  0.5055010000000  0.4823470000000  0.5816600000000 1.0
C      1  0.5127400000000  0.5137120000000  0.5818150000000 1.0
C      1  0.4819400000000  0.5042830000000  0.5818180000000 1.0
C      1  0.5054070000000  0.4821140000000  0.4182440000000 1.0
C      1  0.5125990000000  0.5134980000000  0.4183990000000 1.0
C      1  0.4818420000000  0.5040490000000  0.4184060000000 1.0
C      1  0.5029680000000  0.5728990000000  0.5147420000000 1.0
C      1  0.4354920000000  0.4661250000000  0.5147040000000 1.0
C      1  0.5621620000000  0.4607110000000  0.5151250000000 1.0
C      1  0.5030440000000  0.5733570000000  0.4850900000000 1.0
C      1  0.4348260000000  0.4659070000000  0.4850590000000 1.0
C      1  0.5615460000000  0.4609770000000  0.4854800000000 1.0
C      1  0.5289150000000  0.5501610000000  0.4496980000000 1.0
C      1  0.4419500000000  0.5001160000000  0.4497150000000 1.0
C      1  0.5289400000000  0.4495450000000  0.4497580000000 1.0
C      1  0.5293090000000  0.5503400000000  0.5503170000000 1.0
C      1  0.4419220000000  0.5000510000000  0.5503360000000 1.0
C      1  0.5289730000000  0.4497690000000  0.5503810000000 1.0
C      1  0.4505560000000  0.4459960000000  0.5277130000000 1.0
C      1  0.5717490000000  0.4839980000000  0.5280210000000 1.0
C      1  0.4780480000000  0.5699380000000  0.5277920000000 1.0
C      1  0.4500230000000  0.4460180000000  0.4719370000000 1.0
C      1  0.5714840000000  0.4839050000000  0.4722430000000 1.0
C      1  0.4781670000000  0.5701540000000  0.4720200000000 1.0
END
