TITL C-1154816-9297-726 0.000300483820901435 125000 -294.196024901715 0 0 60 (C2) n - 1
REM
REM in /home/nfs/bkarasulu/CARBON/AIRSS/Generating-Clusters/AIREBO/Higher-Symm/Only-C60
REM
REM
REM
REM
REM
REM ./C.cell (28575a23ae977d3b5fae324c64b13b57)
REM
REM compiler GCC version 9.2.1 20190827 (Red Hat 9.2.1-1)
REM options -cpp -mtune=generic -march=x86-64 -g -O0 -fpre-include=/usr/include/finclude/math-vector-fortran.h
REM seed 1842208904 -465175398 -2046833033 -1745794253 29293649 1371685974 -1149980932 -1040391009 -381812000 1518122907 -2120549057 1388876175 -124780058 -1124454180 -1422606934 1290425878 1641890896 243285214 1047977576 -792754563 -1908415523 204331911 712506660 -1303595670 1531143188 -1607237468 -2092095953 -98878625 -1323276959 1287848102 -282681073 -1544953178 1589579746
REM
CELL 1.54180   50.00000   50.00000   50.00000   90.00000   90.00000   90.00000
LATT -1
SFAC C  
C      1  0.5211200000000  0.5172430000000  0.5782700000000 1.0
C      1  0.5281960000000  0.5077690000000  0.4340560000000 1.0
C      1  0.5282440000000  0.4913960000000  0.5644390000000 1.0
C      1  0.5189540000000  0.4756170000000  0.4379280000000 1.0
C      1  0.5036410000000  0.4699450000000  0.5674970000000 1.0
C      1  0.4923420000000  0.4731400000000  0.4237750000000 1.0
C      1  0.4788540000000  0.4827050000000  0.5782520000000 1.0
C      1  0.4718260000000  0.4922740000000  0.4340410000000 1.0
C      1  0.4717340000000  0.5085620000000  0.5644350000000 1.0
C      1  0.4810670000000  0.5244240000000  0.4379380000000 1.0
C      1  0.4963360000000  0.5300100000000  0.5675160000000 1.0
C      1  0.5076840000000  0.5269100000000  0.4237950000000 1.0
C      1  0.4725180000000  0.4473340000000  0.4797490000000 1.0
C      1  0.4507640000000  0.4677030000000  0.5104980000000 1.0
C      1  0.4354160000000  0.5006830000000  0.4740420000000 1.0
C      1  0.4450790000000  0.5184280000000  0.5175900000000 1.0
C      1  0.4694330000000  0.5533520000000  0.4846870000000 1.0
C      1  0.4942930000000  0.5635620000000  0.5197480000000 1.0
C      1  0.5274890000000  0.5526800000000  0.4797930000000 1.0
C      1  0.5492320000000  0.5322900000000  0.5105360000000 1.0
C      1  0.5645930000000  0.4993340000000  0.4740630000000 1.0
C      1  0.5549150000000  0.4815600000000  0.5175960000000 1.0
C      1  0.5305720000000  0.4466590000000  0.4846620000000 1.0
C      1  0.5057010000000  0.4364250000000  0.5197070000000 1.0
C      1  0.5296160000000  0.4587500000000  0.5162030000000 1.0
C      1  0.5027370000000  0.4391450000000  0.4742120000000 1.0
C      1  0.4776130000000  0.4448710000000  0.5132760000000 1.0
C      1  0.4510970000000  0.4741790000000  0.4796910000000 1.0
C      1  0.4347990000000  0.4893840000000  0.5231460000000 1.0
C      1  0.4500950000000  0.5241440000000  0.4862930000000 1.0
C      1  0.4703780000000  0.5412400000000  0.5162210000000 1.0
C      1  0.4972720000000  0.5608720000000  0.4742510000000 1.0
C      1  0.5223830000000  0.5551200000000  0.5133200000000 1.0
C      1  0.5489100000000  0.5258350000000  0.4797250000000 1.0
C      1  0.5651930000000  0.5106010000000  0.5231750000000 1.0
C      1  0.5499100000000  0.4758650000000  0.4862940000000 1.0
C      1  0.4602840000000  0.5443810000000  0.4276180000000 1.0
C      1  0.4904330000000  0.5575810000000  0.5785700000000 1.0
C      1  0.5112360000000  0.5418540000000  0.4026830000000 1.0
C      1  0.5332100000000  0.5254590000000  0.5999170000000 1.0
C      1  0.5560040000000  0.5108440000000  0.4222490000000 1.0
C      1  0.5547960000000  0.4799620000000  0.5746930000000 1.0
C      1  0.5397400000000  0.4556670000000  0.4276020000000 1.0
C      1  0.5095410000000  0.4423670000000  0.5785350000000 1.0
C      1  0.4887970000000  0.4582100000000  0.4026510000000 1.0
C      1  0.4667570000000  0.4744750000000  0.5998890000000 1.0
C      1  0.4440230000000  0.4892080000000  0.4222230000000 1.0
C      1  0.4451790000000  0.5199880000000  0.5746880000000 1.0
C      1  0.4906020000000  0.4756090000000  0.4851960000000 1.0
C      1  0.4819550000000  0.4781960000000  0.5184620000000 1.0
C      1  0.4735190000000  0.4932690000000  0.4649940000000 1.0
C      1  0.4706930000000  0.5045660000000  0.5320020000000 1.0
C      1  0.4809970000000  0.5239590000000  0.4720940000000 1.0
C      1  0.4929410000000  0.5273030000000  0.5363680000000 1.0
C      1  0.5094030000000  0.5244000000000  0.4852150000000 1.0
C      1  0.5180390000000  0.5217910000000  0.5184820000000 1.0
C      1  0.5264920000000  0.5067550000000  0.4650070000000 1.0
C      1  0.5292970000000  0.4954130000000  0.5320090000000 1.0
C      1  0.5190130000000  0.4760600000000  0.4720840000000 1.0
C      1  0.5070460000000  0.4726730000000  0.5363520000000 1.0
END
