TITL C-1154829-9094-470 -0.000821184509455118 125000 -319.520177294606 0 0 60 (C1) n - 1
REM
REM in /home/nfs/bkarasulu/CARBON/AIRSS/Generating-Clusters/AIREBO/Higher-Symm/Only-C60
REM
REM
REM
REM
REM
REM ./C.cell (28575a23ae977d3b5fae324c64b13b57)
REM
REM compiler GCC version 9.2.1 20190827 (Red Hat 9.2.1-1)
REM options -cpp -mtune=generic -march=x86-64 -g -O0 -fpre-include=/usr/include/finclude/math-vector-fortran.h
REM seed 320504468 -150309261 -826171233 -633249170 1063025205 -1623809484 -975811265 -1676018435 733064393 113953675 1728756554 -720338162 1585188141 -2107675016 -1112899512 1755582602 9168228 -2145467334 -1494711144 -90806246 -1185751556 1580003065 759779053 -222485559 68637098 1763640272 -2015436588 316844693 -1566927943 -896260956 -183733076 17236793 368694349
REM
CELL 1.54180   50.00000   50.00000   50.00000   90.00000   90.00000   90.00000
LATT -1
SFAC C  
C      1  0.5325370000000  0.5212440000000  0.4946380000000 1.0
C      1  0.5486580000000  0.4828980000000  0.5045090000000 1.0
C      1  0.4648680000000  0.5039870000000  0.4892790000000 1.0
C      1  0.4550340000000  0.4617220000000  0.5237800000000 1.0
C      1  0.5168590000000  0.4486630000000  0.5330250000000 1.0
C      1  0.5145890000000  0.5589630000000  0.4710260000000 1.0
C      1  0.4858220000000  0.4487330000000  0.5300800000000 1.0
C      1  0.4852720000000  0.5534500000000  0.4728370000000 1.0
C      1  0.5251480000000  0.4735790000000  0.5467280000000 1.0
C      1  0.5320130000000  0.5420960000000  0.4577080000000 1.0
C      1  0.4730720000000  0.4602460000000  0.5591400000000 1.0
C      1  0.4746610000000  0.5347190000000  0.4554810000000 1.0
C      1  0.5394110000000  0.4460930000000  0.4704960000000 1.0
C      1  0.5511780000000  0.5530790000000  0.5248050000000 1.0
C      1  0.4518460000000  0.4502440000000  0.4755790000000 1.0
C      1  0.4566320000000  0.5527910000000  0.5372540000000 1.0
C      1  0.4931770000000  0.4932720000000  0.4265180000000 1.0
C      1  0.4799230000000  0.4856410000000  0.5685830000000 1.0
C      1  0.5218670000000  0.4973440000000  0.4330260000000 1.0
C      1  0.5108650000000  0.4937210000000  0.5679860000000 1.0
C      1  0.4618680000000  0.5057680000000  0.5657050000000 1.0
C      1  0.4756510000000  0.4711140000000  0.4287810000000 1.0
C      1  0.5318110000000  0.5164880000000  0.5731860000000 1.0
C      1  0.5421460000000  0.4782740000000  0.4253300000000 1.0
C      1  0.5526140000000  0.4795040000000  0.5374850000000 1.0
C      1  0.5575550000000  0.5284740000000  0.4519670000000 1.0
C      1  0.4445770000000  0.4503630000000  0.5541780000000 1.0
C      1  0.4474380000000  0.5316170000000  0.4547890000000 1.0
C      1  0.5028550000000  0.4970470000000  0.5354970000000 1.0
C      1  0.5245530000000  0.5097910000000  0.4645560000000 1.0
C      1  0.4739460000000  0.4865700000000  0.5290560000000 1.0
C      1  0.4904380000000  0.5098330000000  0.4541750000000 1.0
C      1  0.5551210000000  0.5397680000000  0.5004420000000 1.0
C      1  0.5613250000000  0.4579740000000  0.4887470000000 1.0
C      1  0.4349840000000  0.5598880000000  0.5190220000000 1.0
C      1  0.4414310000000  0.4648070000000  0.4978080000000 1.0
C      1  0.4801190000000  0.4323020000000  0.4751690000000 1.0
C      1  0.4861650000000  0.5614360000000  0.5336020000000 1.0
C      1  0.5101900000000  0.4389420000000  0.4732070000000 1.0
C      1  0.5191780000000  0.5541280000000  0.5362550000000 1.0
C      1  0.4768960000000  0.5494010000000  0.5031340000000 1.0
C      1  0.4844950000000  0.4576500000000  0.4972630000000 1.0
C      1  0.5106820000000  0.5531910000000  0.5035210000000 1.0
C      1  0.5170430000000  0.4540810000000  0.5024100000000 1.0
C      1  0.5410720000000  0.5302440000000  0.5468120000000 1.0
C      1  0.5460040000000  0.4767220000000  0.4572620000000 1.0
C      1  0.4524270000000  0.5213890000000  0.5411000000000 1.0
C      1  0.4693010000000  0.4654470000000  0.4556880000000 1.0
C      1  0.5818350000000  0.4714190000000  0.4738160000000 1.0
C      1  0.5720420000000  0.5140360000000  0.4954770000000 1.0
C      1  0.4286110000000  0.4891600000000  0.4970080000000 1.0
C      1  0.4243610000000  0.5377850000000  0.5042680000000 1.0
C      1  0.5677940000000  0.5012680000000  0.4666070000000 1.0
C      1  0.5571800000000  0.5089480000000  0.5256390000000 1.0
C      1  0.4368400000000  0.5174090000000  0.4799600000000 1.0
C      1  0.4299880000000  0.5111890000000  0.5185950000000 1.0
C      1  0.5231270000000  0.4806950000000  0.4821290000000 1.0
C      1  0.5088290000000  0.5214680000000  0.5157260000000 1.0
C      1  0.4890660000000  0.4839760000000  0.4762330000000 1.0
C      1  0.4750120000000  0.5179510000000  0.5159160000000 1.0
END
