TITL C-1154821-8623-409 -0.0027298423189406 125000 -346.500205866312 0 0 60 (C1) n - 1
REM
REM in /home/nfs/bkarasulu/CARBON/AIRSS/Generating-Clusters/AIREBO/Higher-Symm/Only-C60
REM
REM
REM
REM
REM
REM ./C.cell (28575a23ae977d3b5fae324c64b13b57)
REM
REM compiler GCC version 9.2.1 20190827 (Red Hat 9.2.1-1)
REM options -cpp -mtune=generic -march=x86-64 -g -O0 -fpre-include=/usr/include/finclude/math-vector-fortran.h
REM seed 604394085 1723539616 280175046 89178936 -1428029015 -666622207 -1977773407 1550087574 312556954 -1840971040 968172073 1626501426 -185694822 -2106514975 -1377370487 885041517 5686736 -2084711536 -1222085258 1004259946 -2061701508 335762977 -1643035017 60602554 624705786 -1690641956 -2032571609 -129444843 1864003820 7435747 -1754617716 2101332388 1190873232
REM
CELL 1.54180   50.00000   50.00000   50.00000   90.00000   90.00000   90.00000
LATT -1
SFAC C  
C      1  0.5414750000000  0.4841570000000  0.4660060000000 1.0
C      1  0.5403600000000  0.5294420000000  0.5541270000000 1.0
C      1  0.4289800000000  0.4938380000000  0.4494160000000 1.0
C      1  0.4641020000000  0.5238560000000  0.5472670000000 1.0
C      1  0.5525250000000  0.5110020000000  0.4580440000000 1.0
C      1  0.5391710000000  0.4754610000000  0.5537460000000 1.0
C      1  0.4437140000000  0.5158410000000  0.4551610000000 1.0
C      1  0.4616040000000  0.4720060000000  0.5573580000000 1.0
C      1  0.4649810000000  0.4447680000000  0.4534950000000 1.0
C      1  0.4727930000000  0.5502830000000  0.5353290000000 1.0
C      1  0.5235960000000  0.4392350000000  0.4671410000000 1.0
C      1  0.5245100000000  0.5673980000000  0.5291070000000 1.0
C      1  0.4751030000000  0.5580380000000  0.4614020000000 1.0
C      1  0.4797000000000  0.4461250000000  0.5321510000000 1.0
C      1  0.5250220000000  0.5537110000000  0.4622510000000 1.0
C      1  0.5289610000000  0.4394860000000  0.5206690000000 1.0
C      1  0.4951030000000  0.5460160000000  0.5585810000000 1.0
C      1  0.4869950000000  0.4414190000000  0.4373130000000 1.0
C      1  0.5220880000000  0.5536120000000  0.5545600000000 1.0
C      1  0.5111140000000  0.4521270000000  0.4467810000000 1.0
C      1  0.4968360000000  0.4540610000000  0.5519070000000 1.0
C      1  0.4852210000000  0.5369290000000  0.4454990000000 1.0
C      1  0.5241440000000  0.4501770000000  0.5477690000000 1.0
C      1  0.5129240000000  0.5359750000000  0.4439760000000 1.0
C      1  0.4672340000000  0.4688270000000  0.4756430000000 1.0
C      1  0.4816620000000  0.5490460000000  0.5080710000000 1.0
C      1  0.5328600000000  0.4546650000000  0.4923160000000 1.0
C      1  0.5139060000000  0.5433680000000  0.5092570000000 1.0
C      1  0.4641160000000  0.5492920000000  0.4864420000000 1.0
C      1  0.4752970000000  0.4647100000000  0.5043620000000 1.0
C      1  0.5337980000000  0.5427840000000  0.4858050000000 1.0
C      1  0.5081270000000  0.4662760000000  0.5125690000000 1.0
C      1  0.4918910000000  0.5129420000000  0.5567790000000 1.0
C      1  0.4834360000000  0.4902720000000  0.4597950000000 1.0
C      1  0.5160430000000  0.5199460000000  0.5338840000000 1.0
C      1  0.5116320000000  0.4825720000000  0.4507060000000 1.0
C      1  0.4910270000000  0.4832290000000  0.5634330000000 1.0
C      1  0.4711490000000  0.5131070000000  0.4501440000000 1.0
C      1  0.5133700000000  0.4867600000000  0.5358810000000 1.0
C      1  0.5265960000000  0.5117050000000  0.4419090000000 1.0
C      1  0.5603600000000  0.4679220000000  0.4844440000000 1.0
C      1  0.5643960000000  0.5163870000000  0.5504450000000 1.0
C      1  0.4355400000000  0.4677530000000  0.4676930000000 1.0
C      1  0.4458130000000  0.5066640000000  0.5378980000000 1.0
C      1  0.5619320000000  0.5298120000000  0.4808120000000 1.0
C      1  0.5638430000000  0.4874220000000  0.5511220000000 1.0
C      1  0.4358100000000  0.5365240000000  0.4781840000000 1.0
C      1  0.4543450000000  0.4764970000000  0.5266270000000 1.0
C      1  0.5734070000000  0.5133500000000  0.5030790000000 1.0
C      1  0.5796290000000  0.4761990000000  0.5301760000000 1.0
C      1  0.4232400000000  0.5143270000000  0.4953260000000 1.0
C      1  0.4238530000000  0.4809490000000  0.5171320000000 1.0
C      1  0.5732120000000  0.4859290000000  0.5044460000000 1.0
C      1  0.5794020000000  0.5256870000000  0.5278960000000 1.0
C      1  0.4202500000000  0.4861350000000  0.4875130000000 1.0
C      1  0.4203720000000  0.5150220000000  0.5251230000000 1.0
C      1  0.4172650000000  0.5564540000000  0.4707370000000 1.0
C      1  0.5807340000000  0.5491360000000  0.4718990000000 1.0
C      1  0.4249790000000  0.4428080000000  0.4615720000000 1.0
C      1  0.5784520000000  0.4505570000000  0.4718240000000 1.0
END
