TITL C-1154827-9204-455 0.00148722215306373 125000 -317.482868102231 0 0 60 (C1) n - 1
REM
REM in /home/nfs/bkarasulu/CARBON/AIRSS/Generating-Clusters/AIREBO/Higher-Symm/Only-C60
REM
REM
REM
REM
REM
REM ./C.cell (28575a23ae977d3b5fae324c64b13b57)
REM
REM compiler GCC version 9.2.1 20190827 (Red Hat 9.2.1-1)
REM options -cpp -mtune=generic -march=x86-64 -g -O0 -fpre-include=/usr/include/finclude/math-vector-fortran.h
REM seed -1635602668 891589895 -1190824933 127998099 1109683698 1579502605 -1247462433 1084403391 1358597545 77858610 535715185 590726120 1349726532 711912645 -501656339 369192406 -677699354 -1550731219 -620626341 -1037069955 -214452051 180489776 -955415365 1735005715 1007516273 -545997957 297588405 1923027537 -1813933285 495543423 186436815 -590164681 549503821
REM
CELL 1.54180   50.00000   50.00000   50.00000   90.00000   90.00000   90.00000
LATT -1
SFAC C  
C      1  0.4761850000000  0.5667230000000  0.4843990000000 1.0
C      1  0.5141860000000  0.5266150000000  0.5213330000000 1.0
C      1  0.5272720000000  0.4509880000000  0.5373150000000 1.0
C      1  0.5209720000000  0.5040060000000  0.5548290000000 1.0
C      1  0.5731150000000  0.4803570000000  0.4705130000000 1.0
C      1  0.4128710000000  0.4948790000000  0.5147160000000 1.0
C      1  0.4781580000000  0.5496820000000  0.4616360000000 1.0
C      1  0.4256530000000  0.4700030000000  0.5080190000000 1.0
C      1  0.5524100000000  0.4639290000000  0.4635020000000 1.0
C      1  0.5108500000000  0.5053950000000  0.4458450000000 1.0
C      1  0.4729440000000  0.4579780000000  0.5554180000000 1.0
C      1  0.4430010000000  0.5076290000000  0.4917650000000 1.0
C      1  0.4857650000000  0.5550350000000  0.5597340000000 1.0
C      1  0.4536780000000  0.5184910000000  0.4665590000000 1.0
C      1  0.5636490000000  0.4823190000000  0.5188190000000 1.0
C      1  0.4924890000000  0.5165710000000  0.5511010000000 1.0
C      1  0.4389850000000  0.4695890000000  0.4803600000000 1.0
C      1  0.4989740000000  0.5363500000000  0.4966510000000 1.0
C      1  0.5266280000000  0.5008060000000  0.4756200000000 1.0
C      1  0.5192790000000  0.4714580000000  0.4871530000000 1.0
C      1  0.4812270000000  0.4537950000000  0.5089130000000 1.0
C      1  0.4631690000000  0.4817430000000  0.5009830000000 1.0
C      1  0.4771230000000  0.4998130000000  0.5258120000000 1.0
C      1  0.5039080000000  0.4596430000000  0.4591980000000 1.0
C      1  0.4628200000000  0.4830540000000  0.4270240000000 1.0
C      1  0.4746800000000  0.5311170000000  0.5185060000000 1.0
C      1  0.5077990000000  0.4723110000000  0.5193430000000 1.0
C      1  0.4651430000000  0.5298700000000  0.4414940000000 1.0
C      1  0.4614700000000  0.4471160000000  0.5326030000000 1.0
C      1  0.4769430000000  0.4958650000000  0.4743940000000 1.0
C      1  0.5390290000000  0.5534370000000  0.5316920000000 1.0
C      1  0.5401530000000  0.4452650000000  0.4875650000000 1.0
C      1  0.5297220000000  0.5473320000000  0.4738060000000 1.0
C      1  0.4311660000000  0.5499010000000  0.5093930000000 1.0
C      1  0.5527540000000  0.4604650000000  0.5425030000000 1.0
C      1  0.5210970000000  0.4241120000000  0.5007790000000 1.0
C      1  0.4591180000000  0.5560050000000  0.5048090000000 1.0
C      1  0.5702100000000  0.4973180000000  0.4918630000000 1.0
C      1  0.4901820000000  0.4796320000000  0.5475020000000 1.0
C      1  0.4491350000000  0.4689430000000  0.4548350000000 1.0
C      1  0.5654240000000  0.4515530000000  0.5059530000000 1.0
C      1  0.5612830000000  0.5527520000000  0.4970470000000 1.0
C      1  0.5090890000000  0.5673810000000  0.4919340000000 1.0
C      1  0.5479200000000  0.5221000000000  0.5219270000000 1.0
C      1  0.4669670000000  0.5499380000000  0.5435080000000 1.0
C      1  0.5137120000000  0.5431420000000  0.5510440000000 1.0
C      1  0.4807820000000  0.5082430000000  0.4303260000000 1.0
C      1  0.4944770000000  0.4293470000000  0.4929050000000 1.0
C      1  0.4809960000000  0.4753160000000  0.4529650000000 1.0
C      1  0.4932510000000  0.4319540000000  0.4657140000000 1.0
C      1  0.4933880000000  0.5219640000000  0.4697260000000 1.0
C      1  0.5433730000000  0.6005890000000  0.5103970000000 1.0
C      1  0.4239670000000  0.5222420000000  0.5083450000000 1.0
C      1  0.5290150000000  0.4766020000000  0.4487270000000 1.0
C      1  0.5246580000000  0.4244160000000  0.5286240000000 1.0
C      1  0.5330980000000  0.4925120000000  0.5297540000000 1.0
C      1  0.4344720000000  0.4494340000000  0.5253400000000 1.0
C      1  0.5750650000000  0.5186270000000  0.5320000000000 1.0
C      1  0.5367800000000  0.5737140000000  0.5075380000000 1.0
C      1  0.5483680000000  0.5226320000000  0.4879240000000 1.0
END
