TITL C-1154810-7815-295 -0.00087260667711048 125000 -368.110105449123 0 0 60 (C1) n - 1
REM
REM in /home/nfs/bkarasulu/CARBON/AIRSS/Generating-Clusters/AIREBO/Higher-Symm/Only-C60
REM
REM
REM
REM
REM
REM ./C.cell (28575a23ae977d3b5fae324c64b13b57)
REM
REM compiler GCC version 9.2.1 20190827 (Red Hat 9.2.1-1)
REM options -cpp -mtune=generic -march=x86-64 -g -O0 -fpre-include=/usr/include/finclude/math-vector-fortran.h
REM seed 1759058121 -560166073 1445298106 715290811 872023455 -852837341 895391847 -1349674100 -558443461 74226024 -1089993795 2090359533 1293350814 179197218 -1209030855 -692920388 -667905558 1454196341 373989943 -141563559 -1909565964 -640096183 -1969645138 -31280571 1931652152 -1669097782 1589101811 -1295358828 287189421 828639846 1710071161 -1621706954 -245445661
REM
CELL 1.54180   50.00000   50.00000   50.00000   90.00000   90.00000   90.00000
LATT -1
SFAC C  
C      1  0.4398780000000  0.5483680000000  0.4976700000000 1.0
C      1  0.4350740000000  0.5217500000000  0.5373250000000 1.0
C      1  0.4496970000000  0.4728190000000  0.5336310000000 1.0
C      1  0.4402030000000  0.4688030000000  0.4842460000000 1.0
C      1  0.4385150000000  0.5136160000000  0.4625050000000 1.0
C      1  0.4483510000000  0.5425110000000  0.5238820000000 1.0
C      1  0.4477940000000  0.5383600000000  0.4725850000000 1.0
C      1  0.4466990000000  0.4864000000000  0.4626110000000 1.0
C      1  0.4512780000000  0.4585230000000  0.5090100000000 1.0
C      1  0.4319350000000  0.4944990000000  0.5374170000000 1.0
C      1  0.5334200000000  0.4509560000000  0.5128780000000 1.0
C      1  0.5300970000000  0.4718520000000  0.4509610000000 1.0
C      1  0.5291610000000  0.5367250000000  0.4521970000000 1.0
C      1  0.5286860000000  0.5543030000000  0.5184800000000 1.0
C      1  0.5149930000000  0.4860050000000  0.5839250000000 1.0
C      1  0.5267950000000  0.4310080000000  0.4887610000000 1.0
C      1  0.5178680000000  0.4596110000000  0.5754480000000 1.0
C      1  0.5291060000000  0.5285040000000  0.5408940000000 1.0
C      1  0.5226580000000  0.5653960000000  0.4625750000000 1.0
C      1  0.5206960000000  0.4880540000000  0.4258520000000 1.0
C      1  0.5353190000000  0.5052280000000  0.5863500000000 1.0
C      1  0.5496800000000  0.4446930000000  0.5390010000000 1.0
C      1  0.5491270000000  0.4473850000000  0.4493540000000 1.0
C      1  0.5454360000000  0.5295790000000  0.4268140000000 1.0
C      1  0.5479600000000  0.5742020000000  0.5036100000000 1.0
C      1  0.5394740000000  0.5056760000000  0.4144420000000 1.0
C      1  0.5462390000000  0.4279760000000  0.4686800000000 1.0
C      1  0.5411720000000  0.4480500000000  0.5647540000000 1.0
C      1  0.5441010000000  0.5235010000000  0.5679280000000 1.0
C      1  0.5429200000000  0.5788710000000  0.4768600000000 1.0
C      1  0.4897020000000  0.4951550000000  0.5751560000000 1.0
C      1  0.5039110000000  0.4374440000000  0.5206800000000 1.0
C      1  0.4993710000000  0.4611480000000  0.4461610000000 1.0
C      1  0.4980890000000  0.5396490000000  0.4436800000000 1.0
C      1  0.5001810000000  0.5663140000000  0.5182670000000 1.0
C      1  0.4940030000000  0.4957470000000  0.4268830000000 1.0
C      1  0.4997110000000  0.4307180000000  0.4816460000000 1.0
C      1  0.4936430000000  0.4520430000000  0.5629650000000 1.0
C      1  0.4989650000000  0.5351170000000  0.5510440000000 1.0
C      1  0.4965820000000  0.5685670000000  0.4712920000000 1.0
C      1  0.4782020000000  0.5438740000000  0.4671450000000 1.0
C      1  0.4771130000000  0.4771720000000  0.5513400000000 1.0
C      1  0.4770480000000  0.4829480000000  0.4502110000000 1.0
C      1  0.4798700000000  0.5469170000000  0.5299010000000 1.0
C      1  0.4814160000000  0.4471240000000  0.5015530000000 1.0
C      1  0.4802180000000  0.5203650000000  0.4873760000000 1.0
C      1  0.4798040000000  0.5195400000000  0.5150420000000 1.0
C      1  0.4847940000000  0.4780010000000  0.5000330000000 1.0
C      1  0.4826490000000  0.4930160000000  0.5236720000000 1.0
C      1  0.4823590000000  0.4946070000000  0.4784100000000 1.0
C      1  0.4959790000000  0.4307820000000  0.5453380000000 1.0
C      1  0.4897800000000  0.5232960000000  0.4236570000000 1.0
C      1  0.4878350000000  0.5227150000000  0.5721130000000 1.0
C      1  0.4942680000000  0.4359980000000  0.4547260000000 1.0
C      1  0.4934170000000  0.5807460000000  0.4963730000000 1.0
C      1  0.5380070000000  0.4801820000000  0.5031700000000 1.0
C      1  0.5368000000000  0.4890820000000  0.4755820000000 1.0
C      1  0.5355610000000  0.5273020000000  0.5015540000000 1.0
C      1  0.5357460000000  0.5176840000000  0.4750930000000 1.0
C      1  0.5367850000000  0.5035220000000  0.5192920000000 1.0
END
