TITL C-1154803-8277-579 0.00153383866630838 125000 -323.77761036588 0 0 60 (C1) n - 1
REM
REM in /home/nfs/bkarasulu/CARBON/AIRSS/Generating-Clusters/AIREBO/Higher-Symm/Only-C60
REM
REM
REM
REM
REM
REM ./C.cell (28575a23ae977d3b5fae324c64b13b57)
REM
REM compiler GCC version 9.2.1 20190827 (Red Hat 9.2.1-1)
REM options -cpp -mtune=generic -march=x86-64 -g -O0 -fpre-include=/usr/include/finclude/math-vector-fortran.h
REM seed -567195923 -553635885 1671230517 -1338097109 813257755 -680417119 292699455 -750657719 -16728299 -750802866 -1167799889 -275949665 1677846500 1699346631 1229741954 1159900572 -1250416405 640027019 -739914806 1914566061 609639773 305499919 2019651966 908992990 -1156421722 -1508878587 -1851277521 1945038116 -727666281 -2052792871 -1285355349 628415915 -795230802
REM
CELL 1.54180   50.00000   50.00000   50.00000   90.00000   90.00000   90.00000
LATT -1
SFAC C  
C      1  0.5023840000000  0.4424790000000  0.5264900000000 1.0
C      1  0.4938620000000  0.4473220000000  0.4633190000000 1.0
C      1  0.5058410000000  0.5139610000000  0.4416640000000 1.0
C      1  0.5094400000000  0.5663270000000  0.4721230000000 1.0
C      1  0.5016750000000  0.5554580000000  0.5264120000000 1.0
C      1  0.4882850000000  0.4981700000000  0.5628190000000 1.0
C      1  0.5172540000000  0.4439260000000  0.4789560000000 1.0
C      1  0.4947900000000  0.4885490000000  0.4382940000000 1.0
C      1  0.5305220000000  0.5527310000000  0.4613270000000 1.0
C      1  0.4760920000000  0.5664180000000  0.5122760000000 1.0
C      1  0.5100390000000  0.5146020000000  0.5566430000000 1.0
C      1  0.4835330000000  0.4517680000000  0.5445620000000 1.0
C      1  0.5597010000000  0.4728290000000  0.5550430000000 1.0
C      1  0.4479790000000  0.4188170000000  0.4961230000000 1.0
C      1  0.5547610000000  0.4800970000000  0.4434230000000 1.0
C      1  0.4377060000000  0.5129120000000  0.4373690000000 1.0
C      1  0.5840400000000  0.5613120000000  0.4931090000000 1.0
C      1  0.4360190000000  0.5277950000000  0.5413350000000 1.0
C      1  0.4596840000000  0.4855680000000  0.4710770000000 1.0
C      1  0.5415210000000  0.5233460000000  0.4933850000000 1.0
C      1  0.4725520000000  0.5278160000000  0.5029740000000 1.0
C      1  0.5338180000000  0.5029650000000  0.5268410000000 1.0
C      1  0.4531330000000  0.4682640000000  0.5245960000000 1.0
C      1  0.5349810000000  0.4783030000000  0.4875390000000 1.0
C      1  0.4686400000000  0.4982990000000  0.6130170000000 1.0
C      1  0.5170360000000  0.3906440000000  0.5303880000000 1.0
C      1  0.4710880000000  0.4047860000000  0.4393050000000 1.0
C      1  0.4961970000000  0.4769930000000  0.4137810000000 1.0
C      1  0.5004350000000  0.6184680000000  0.4625020000000 1.0
C      1  0.5282900000000  0.5913330000000  0.5568980000000 1.0
C      1  0.4767970000000  0.4811890000000  0.5436240000000 1.0
C      1  0.5165930000000  0.4585430000000  0.5083340000000 1.0
C      1  0.4821480000000  0.4737370000000  0.4593020000000 1.0
C      1  0.5263460000000  0.5205990000000  0.4625500000000 1.0
C      1  0.4919870000000  0.5512840000000  0.4878870000000 1.0
C      1  0.5099200000000  0.5273390000000  0.5270840000000 1.0
C      1  0.4829120000000  0.4256390000000  0.4498960000000 1.0
C      1  0.5011180000000  0.5328670000000  0.4221170000000 1.0
C      1  0.5055410000000  0.5934130000000  0.4682490000000 1.0
C      1  0.5146140000000  0.5736800000000  0.5431780000000 1.0
C      1  0.4790270000000  0.4972670000000  0.5889780000000 1.0
C      1  0.5090280000000  0.4154430000000  0.5275800000000 1.0
C      1  0.4481400000000  0.4434830000000  0.5018350000000 1.0
C      1  0.5461900000000  0.4948200000000  0.4658220000000 1.0
C      1  0.4505710000000  0.5111270000000  0.4610350000000 1.0
C      1  0.5640830000000  0.5476770000000  0.5008130000000 1.0
C      1  0.4566090000000  0.5233740000000  0.5254590000000 1.0
C      1  0.5494790000000  0.4795850000000  0.5310100000000 1.0
C      1  0.5654430000000  0.5223510000000  0.4698890000000 1.0
C      1  0.4555920000000  0.5334160000000  0.4768430000000 1.0
C      1  0.5495240000000  0.5320920000000  0.5254030000000 1.0
C      1  0.4359640000000  0.4450100000000  0.5423780000000 1.0
C      1  0.5559330000000  0.4641780000000  0.5070620000000 1.0
C      1  0.4423890000000  0.4747400000000  0.4931990000000 1.0
C      1  0.4156090000000  0.4829620000000  0.4915850000000 1.0
C      1  0.5587060000000  0.5451590000000  0.4550370000000 1.0
C      1  0.4534690000000  0.5608750000000  0.4914080000000 1.0
C      1  0.5370020000000  0.5295740000000  0.5562100000000 1.0
C      1  0.4614550000000  0.4360370000000  0.5531940000000 1.0
C      1  0.5465150000000  0.4402810000000  0.4894510000000 1.0
END
