TITL C-1154830-9999-19 0.00296683524715079 125000 -315.362934509157 0 0 60 (C1) n - 1
REM
REM in /home/nfs/bkarasulu/CARBON/AIRSS/Generating-Clusters/AIREBO/Higher-Symm/Only-C60
REM
REM
REM
REM
REM
REM ./C.cell (28575a23ae977d3b5fae324c64b13b57)
REM
REM compiler GCC version 9.2.1 20190827 (Red Hat 9.2.1-1)
REM options -cpp -mtune=generic -march=x86-64 -g -O0 -fpre-include=/usr/include/finclude/math-vector-fortran.h
REM seed 1182484447 -1848360967 588856074 -3799199 -1483545287 609939626 2011730185 407378421 -1251217102 -647164464 -895144820 2083464289 -1644975 662520097 1551024449 1684408380 -418326639 785757879 -370037414 -1672214067 -469665231 -1071807038 865499608 -1695002363 -1533414035 -39479823 1713994935 -1356149322 357489103 1949817340 -2144095725 410214594 -1583411643
REM
CELL 1.54180   50.00000   50.00000   50.00000   90.00000   90.00000   90.00000
LATT -1
SFAC C  
C      1  0.5411810000000  0.4817670000000  0.5524270000000 1.0
C      1  0.4613620000000  0.5206960000000  0.5558690000000 1.0
C      1  0.5466630000000  0.5138100000000  0.4448700000000 1.0
C      1  0.4492420000000  0.4826510000000  0.4416350000000 1.0
C      1  0.4884430000000  0.5860080000000  0.4977330000000 1.0
C      1  0.5147430000000  0.4107330000000  0.5041710000000 1.0
C      1  0.4869200000000  0.4131250000000  0.4942970000000 1.0
C      1  0.5156100000000  0.5873820000000  0.4891420000000 1.0
C      1  0.4694540000000  0.5555130000000  0.4609630000000 1.0
C      1  0.5306040000000  0.4465230000000  0.4590000000000 1.0
C      1  0.4693390000000  0.4433830000000  0.5370980000000 1.0
C      1  0.5273720000000  0.5579230000000  0.5387720000000 1.0
C      1  0.4993520000000  0.5531420000000  0.5391950000000 1.0
C      1  0.4981450000000  0.4465870000000  0.5397360000000 1.0
C      1  0.5019310000000  0.4508720000000  0.4588910000000 1.0
C      1  0.4966340000000  0.5443780000000  0.4632740000000 1.0
C      1  0.5622130000000  0.5319570000000  0.4581310000000 1.0
C      1  0.4362620000000  0.4607000000000  0.4519740000000 1.0
C      1  0.5576850000000  0.4682510000000  0.5396400000000 1.0
C      1  0.4459630000000  0.5304740000000  0.5346810000000 1.0
C      1  0.4814060000000  0.4950920000000  0.5470270000000 1.0
C      1  0.5197190000000  0.5060180000000  0.5445930000000 1.0
C      1  0.4705670000000  0.4998750000000  0.4552960000000 1.0
C      1  0.5227940000000  0.4984620000000  0.4576090000000 1.0
C      1  0.4466400000000  0.5052800000000  0.5148660000000 1.0
C      1  0.5540300000000  0.4889050000000  0.5056140000000 1.0
C      1  0.4442670000000  0.4772220000000  0.4958090000000 1.0
C      1  0.5587010000000  0.5179250000000  0.5062650000000 1.0
C      1  0.5602740000000  0.4552880000000  0.5101510000000 1.0
C      1  0.4414230000000  0.5487120000000  0.5130280000000 1.0
C      1  0.5590350000000  0.5410260000000  0.4833910000000 1.0
C      1  0.4396170000000  0.4534560000000  0.4778770000000 1.0
C      1  0.4363520000000  0.5352240000000  0.4894970000000 1.0
C      1  0.5685160000000  0.4712430000000  0.4812790000000 1.0
C      1  0.4328670000000  0.4776720000000  0.5279090000000 1.0
C      1  0.5728960000000  0.5273750000000  0.5355200000000 1.0
C      1  0.4882070000000  0.4464840000000  0.4878250000000 1.0
C      1  0.5104410000000  0.5537680000000  0.4889990000000 1.0
C      1  0.4837760000000  0.5549350000000  0.5107370000000 1.0
C      1  0.5130490000000  0.4439470000000  0.5112810000000 1.0
C      1  0.4577360000000  0.4314500000000  0.4892330000000 1.0
C      1  0.5423460000000  0.5655300000000  0.4896550000000 1.0
C      1  0.4568500000000  0.5753570000000  0.5069230000000 1.0
C      1  0.5433180000000  0.4307460000000  0.5031580000000 1.0
C      1  0.4664420000000  0.4734320000000  0.5287160000000 1.0
C      1  0.5402270000000  0.5296210000000  0.5395510000000 1.0
C      1  0.4625640000000  0.5255610000000  0.4722450000000 1.0
C      1  0.5354830000000  0.4741760000000  0.4734470000000 1.0
C      1  0.4580690000000  0.5767460000000  0.4734790000000 1.0
C      1  0.5434640000000  0.4260250000000  0.4715410000000 1.0
C      1  0.4557620000000  0.4258110000000  0.5214040000000 1.0
C      1  0.5395530000000  0.5750800000000  0.5213460000000 1.0
C      1  0.4774730000000  0.4773970000000  0.4972300000000 1.0
C      1  0.5285290000000  0.5327550000000  0.5077730000000 1.0
C      1  0.4715050000000  0.5237180000000  0.5047090000000 1.0
C      1  0.5239810000000  0.4755230000000  0.5048390000000 1.0
C      1  0.4953720000000  0.4807410000000  0.4685130000000 1.0
C      1  0.4982050000000  0.5179160000000  0.4556900000000 1.0
C      1  0.4927430000000  0.5218840000000  0.5312730000000 1.0
C      1  0.5066840000000  0.4767530000000  0.5332050000000 1.0
END
