TITL C-1154823-9327-665 -0.0315045102688961 125000 -294.178815826527 0 0 60 (C5) n - 1
REM
REM in /home/nfs/bkarasulu/CARBON/AIRSS/Generating-Clusters/AIREBO/Higher-Symm/Only-C60
REM
REM
REM
REM
REM
REM ./C.cell (28575a23ae977d3b5fae324c64b13b57)
REM
REM compiler GCC version 9.2.1 20190827 (Red Hat 9.2.1-1)
REM options -cpp -mtune=generic -march=x86-64 -g -O0 -fpre-include=/usr/include/finclude/math-vector-fortran.h
REM seed -2119608896 -1336686736 -284600698 -1497208045 894730820 843786230 -1162854507 -649514694 -88195464 1696817174 795971029 1539288119 -1315183863 -425874275 38597295 2044607545 475691823 -782171749 -1751416165 87274795 1083311859 -1213513380 1107397647 1760740639 1893009653 -2039895956 -1238165135 1466013877 -1606357916 -347319152 -1855381697 930217149 316426165
REM
CELL 1.54180   50.00000   50.00000   50.00000   90.00000   90.00000   90.00000
LATT -1
SFAC C  
C      1  0.5503970000000  0.4188640000000  0.5016920000000 1.0
C      1  0.5504010000000  0.4765300000000  0.5776830000000 1.0
C      1  0.5504140000000  0.5666220000000  0.5463220000000 1.0
C      1  0.5504170000000  0.5646360000000  0.4509480000000 1.0
C      1  0.5504070000000  0.4733160000000  0.4233650000000 1.0
C      1  0.5419950000000  0.5800380000000  0.4987940000000 1.0
C      1  0.5419850000000  0.5258780000000  0.5757540000000 1.0
C      1  0.5419750000000  0.4359480000000  0.5480270000000 1.0
C      1  0.5419780000000  0.4345280000000  0.4539310000000 1.0
C      1  0.5419910000000  0.5235810000000  0.4235030000000 1.0
C      1  0.4316890000000  0.4640030000000  0.4687010000000 1.0
C      1  0.4316860000000  0.4591180000000  0.5245700000000 1.0
C      1  0.4316920000000  0.5107420000000  0.5464800000000 1.0
C      1  0.4316980000000  0.5475330000000  0.5041530000000 1.0
C      1  0.4316960000000  0.5186470000000  0.4560830000000 1.0
C      1  0.4365190000000  0.5394590000000  0.4741990000000 1.0
C      1  0.4365160000000  0.5367350000000  0.5295450000000 1.0
C      1  0.4365090000000  0.4832550000000  0.5440570000000 1.0
C      1  0.4365070000000  0.4529280000000  0.4976800000000 1.0
C      1  0.4365130000000  0.4876630000000  0.4545060000000 1.0
C      1  0.4619750000000  0.4856100000000  0.4360830000000 1.0
C      1  0.4619670000000  0.4347690000000  0.4939380000000 1.0
C      1  0.4619690000000  0.4740820000000  0.5601690000000 1.0
C      1  0.4619790000000  0.5492190000000  0.5432460000000 1.0
C      1  0.4619830000000  0.5563440000000  0.4665570000000 1.0
C      1  0.4547920000000  0.5170900000000  0.4351350000000 1.0
C      1  0.4547960000000  0.5669730000000  0.4962020000000 1.0
C      1  0.4547880000000  0.5243100000000  0.5625150000000 1.0
C      1  0.4547800000000  0.4480590000000  0.5424320000000 1.0
C      1  0.4547820000000  0.4435970000000  0.4637070000000 1.0
C      1  0.5155690000000  0.5169100000000  0.5496590000000 1.0
C      1  0.5155750000000  0.5524520000000  0.4992620000000 1.0
C      1  0.5155720000000  0.5155040000000  0.4498860000000 1.0
C      1  0.5155640000000  0.4571280000000  0.4697670000000 1.0
C      1  0.5155620000000  0.4579960000000  0.5314300000000 1.0
C      1  0.5247280000000  0.4845630000000  0.5505670000000 1.0
C      1  0.5247250000000  0.4471370000000  0.5009490000000 1.0
C      1  0.5247310000000  0.4827610000000  0.4500210000000 1.0
C      1  0.5247380000000  0.5422050000000  0.4681640000000 1.0
C      1  0.5247360000000  0.5433190000000  0.5303050000000 1.0
C      1  0.4836860000000  0.4569420000000  0.5317680000000 1.0
C      1  0.4836930000000  0.5169100000000  0.5507690000000 1.0
C      1  0.4837000000000  0.5535110000000  0.4996080000000 1.0
C      1  0.4836970000000  0.5161650000000  0.4489880000000 1.0
C      1  0.4836890000000  0.4564820000000  0.4688640000000 1.0
C      1  0.4912010000000  0.5423660000000  0.5292780000000 1.0
C      1  0.4911930000000  0.4852470000000  0.5493380000000 1.0
C      1  0.4911910000000  0.4485180000000  0.5012140000000 1.0
C      1  0.4911970000000  0.4829370000000  0.4514120000000 1.0
C      1  0.4912030000000  0.5409380000000  0.4687560000000 1.0
C      1  0.5581480000000  0.4503620000000  0.5007840000000 1.0
C      1  0.5581510000000  0.4854000000000  0.5474460000000 1.0
C      1  0.5581590000000  0.5406050000000  0.5285420000000 1.0
C      1  0.5581610000000  0.5396850000000  0.4701970000000 1.0
C      1  0.5581540000000  0.4839120000000  0.4530420000000 1.0
C      1  0.5493020000000  0.5480340000000  0.4991320000000 1.0
C      1  0.5492960000000  0.5156660000000  0.5454220000000 1.0
C      1  0.5492900000000  0.4616400000000  0.5289430000000 1.0
C      1  0.5492920000000  0.4606170000000  0.4724680000000 1.0
C      1  0.5492990000000  0.5140120000000  0.4540440000000 1.0
END
