TITL C-1154810-7815-490 0.000912784598688497 125000 -309.719977475028 0 0 60 (C1) n - 1
REM
REM in /home/nfs/bkarasulu/CARBON/AIRSS/Generating-Clusters/AIREBO/Higher-Symm/Only-C60
REM
REM
REM
REM
REM
REM ./C.cell (28575a23ae977d3b5fae324c64b13b57)
REM
REM compiler GCC version 9.2.1 20190827 (Red Hat 9.2.1-1)
REM options -cpp -mtune=generic -march=x86-64 -g -O0 -fpre-include=/usr/include/finclude/math-vector-fortran.h
REM seed 350980007 1297069554 -1474602915 -2083827130 -1358563949 -54851351 -155121837 -1808677025 -1245016386 1287966588 256139748 -1021676732 316080645 863901711 -708321899 -709082962 -737142967 -2131909534 -827465518 -995541338 729166070 941587097 66003622 1881779773 -1934212873 446127007 2081368738 -294967202 884805 -1984665243 -975889774 -195210742 -59890748
REM
CELL 1.54180   50.00000   50.00000   50.00000   90.00000   90.00000   90.00000
LATT -1
SFAC C  
C      1  0.5090750000000  0.5524150000000  0.4425600000000 1.0
C      1  0.4441180000000  0.5559700000000  0.4754700000000 1.0
C      1  0.4578000000000  0.5537920000000  0.5429880000000 1.0
C      1  0.5267300000000  0.5567720000000  0.5518350000000 1.0
C      1  0.5588390000000  0.5452110000000  0.4948340000000 1.0
C      1  0.5542480000000  0.4957680000000  0.4983460000000 1.0
C      1  0.4981940000000  0.4942040000000  0.4563820000000 1.0
C      1  0.4580400000000  0.4921530000000  0.4677400000000 1.0
C      1  0.4782690000000  0.4928980000000  0.5352100000000 1.0
C      1  0.5154720000000  0.4920230000000  0.5498720000000 1.0
C      1  0.4718650000000  0.5539030000000  0.4926940000000 1.0
C      1  0.4830230000000  0.5548600000000  0.5229830000000 1.0
C      1  0.5152940000000  0.5560420000000  0.5213150000000 1.0
C      1  0.5255660000000  0.5519420000000  0.4891370000000 1.0
C      1  0.4977660000000  0.5572550000000  0.4721140000000 1.0
C      1  0.4743670000000  0.5386660000000  0.4558690000000 1.0
C      1  0.4495900000000  0.5342420000000  0.5092600000000 1.0
C      1  0.4929020000000  0.5364170000000  0.5498080000000 1.0
C      1  0.5443560000000  0.5383930000000  0.5215130000000 1.0
C      1  0.5375530000000  0.5336190000000  0.4630510000000 1.0
C      1  0.5095720000000  0.4696170000000  0.5265770000000 1.0
C      1  0.5281700000000  0.4739900000000  0.5002310000000 1.0
C      1  0.5100950000000  0.4718120000000  0.4749490000000 1.0
C      1  0.4789340000000  0.4710760000000  0.4837620000000 1.0
C      1  0.4784650000000  0.4698180000000  0.5142320000000 1.0
C      1  0.4464960000000  0.4955700000000  0.4995390000000 1.0
C      1  0.4876580000000  0.4847960000000  0.5657150000000 1.0
C      1  0.5432590000000  0.4952200000000  0.5305250000000 1.0
C      1  0.5448000000000  0.4945150000000  0.4660370000000 1.0
C      1  0.4721040000000  0.4859320000000  0.4388030000000 1.0
C      1  0.4901130000000  0.5182370000000  0.4760930000000 1.0
C      1  0.4749460000000  0.5141060000000  0.5015890000000 1.0
C      1  0.4960290000000  0.5171210000000  0.5241470000000 1.0
C      1  0.5227870000000  0.5157400000000  0.5127480000000 1.0
C      1  0.5214630000000  0.5126740000000  0.4828920000000 1.0
C      1  0.4245200000000  0.5210370000000  0.4926270000000 1.0
C      1  0.4738130000000  0.5154260000000  0.5676110000000 1.0
C      1  0.5576650000000  0.5214220000000  0.5474780000000 1.0
C      1  0.5663340000000  0.5182160000000  0.4536980000000 1.0
C      1  0.4792610000000  0.5182290000000  0.4309260000000 1.0
C      1  0.5439290000000  0.4454840000000  0.5057150000000 1.0
C      1  0.5179470000000  0.4457810000000  0.4576750000000 1.0
C      1  0.4669660000000  0.4437940000000  0.4688220000000 1.0
C      1  0.4596870000000  0.4459050000000  0.5243680000000 1.0
C      1  0.5066320000000  0.4411690000000  0.5448410000000 1.0
C      1  0.5240080000000  0.5228740000000  0.5520790000000 1.0
C      1  0.5684250000000  0.5206540000000  0.4847590000000 1.0
C      1  0.5135570000000  0.5207510000000  0.4437860000000 1.0
C      1  0.4507470000000  0.5229120000000  0.4710680000000 1.0
C      1  0.4585050000000  0.5202400000000  0.5375050000000 1.0
C      1  0.4922800000000  0.4350880000000  0.4478890000000 1.0
C      1  0.4481580000000  0.4414290000000  0.4927960000000 1.0
C      1  0.4737020000000  0.4347560000000  0.5476530000000 1.0
C      1  0.5357870000000  0.4373760000000  0.5370720000000 1.0
C      1  0.5461050000000  0.4402300000000  0.4759560000000 1.0
C      1  0.4388730000000  0.4684440000000  0.5094070000000 1.0
C      1  0.4877840000000  0.4550210000000  0.5695680000000 1.0
C      1  0.5534840000000  0.4645990000000  0.5327900000000 1.0
C      1  0.5448320000000  0.4665300000000  0.4560280000000 1.0
C      1  0.4690410000000  0.4558620000000  0.4370610000000 1.0
END
