TITL C-1154803-8277-123 0.00125284295354178 125000 -353.274921094855 0 0 60 (C1) n - 1
REM
REM in /home/nfs/bkarasulu/CARBON/AIRSS/Generating-Clusters/AIREBO/Higher-Symm/Only-C60
REM
REM
REM
REM
REM
REM ./C.cell (28575a23ae977d3b5fae324c64b13b57)
REM
REM compiler GCC version 9.2.1 20190827 (Red Hat 9.2.1-1)
REM options -cpp -mtune=generic -march=x86-64 -g -O0 -fpre-include=/usr/include/finclude/math-vector-fortran.h
REM seed 929684925 -2052918972 -1092057075 1426877031 2080324893 587556319 -1247055783 -740906037 923598689 -400021024 2062286934 1558121821 -401802468 -265668335 -1290873640 -777272763 1822269695 1396906662 -636241410 1352010121 -1126805382 -985979082 -1483401373 -1121310941 -1816258575 -1208859307 -1098321670 203446631 -159640073 1924933202 375775820 1529393694 1301799388
REM
CELL 1.54180   50.00000   50.00000   50.00000   90.00000   90.00000   90.00000
LATT -1
SFAC C  
C      1  0.5111190000000  0.5497950000000  0.4634650000000 1.0
C      1  0.4963970000000  0.4435060000000  0.4617670000000 1.0
C      1  0.5127890000000  0.5573030000000  0.5377660000000 1.0
C      1  0.4802100000000  0.4393970000000  0.5268740000000 1.0
C      1  0.4837990000000  0.5584520000000  0.4772710000000 1.0
C      1  0.5219840000000  0.4386310000000  0.4713440000000 1.0
C      1  0.4843770000000  0.5654490000000  0.5422000000000 1.0
C      1  0.5056410000000  0.4424360000000  0.5381440000000 1.0
C      1  0.4842090000000  0.5352790000000  0.5548180000000 1.0
C      1  0.5111400000000  0.4698260000000  0.5518390000000 1.0
C      1  0.4745190000000  0.5187980000000  0.4384100000000 1.0
C      1  0.5161300000000  0.4864030000000  0.4404000000000 1.0
C      1  0.5172190000000  0.5286710000000  0.5527080000000 1.0
C      1  0.4835580000000  0.4859480000000  0.5634710000000 1.0
C      1  0.4997690000000  0.5357890000000  0.4388290000000 1.0
C      1  0.4900780000000  0.4689750000000  0.4463760000000 1.0
C      1  0.4358610000000  0.5139220000000  0.5340010000000 1.0
C      1  0.5765270000000  0.4830650000000  0.5376720000000 1.0
C      1  0.4248740000000  0.5135150000000  0.4678270000000 1.0
C      1  0.5866290000000  0.4810720000000  0.4735450000000 1.0
C      1  0.5658480000000  0.5087770000000  0.5377100000000 1.0
C      1  0.4263180000000  0.4877240000000  0.5360960000000 1.0
C      1  0.5774320000000  0.5079610000000  0.4722680000000 1.0
C      1  0.4331800000000  0.4853230000000  0.4692200000000 1.0
C      1  0.5253770000000  0.4380850000000  0.5186640000000 1.0
C      1  0.4676880000000  0.5677560000000  0.5200270000000 1.0
C      1  0.5234370000000  0.4221190000000  0.4950150000000 1.0
C      1  0.4769980000000  0.5796740000000  0.4952690000000 1.0
C      1  0.4783120000000  0.4220280000000  0.5038000000000 1.0
C      1  0.5248390000000  0.5595360000000  0.5130250000000 1.0
C      1  0.4757840000000  0.4373620000000  0.4797000000000 1.0
C      1  0.5198480000000  0.5712940000000  0.4883670000000 1.0
C      1  0.4124860000000  0.5282910000000  0.4881730000000 1.0
C      1  0.5697450000000  0.4635320000000  0.4878720000000 1.0
C      1  0.4249660000000  0.5321880000000  0.5128800000000 1.0
C      1  0.5684920000000  0.4662300000000  0.5172730000000 1.0
C      1  0.5854000000000  0.5254510000000  0.4932400000000 1.0
C      1  0.4251220000000  0.4665930000000  0.4904100000000 1.0
C      1  0.5676260000000  0.5273080000000  0.5149500000000 1.0
C      1  0.4363830000000  0.4694260000000  0.5174520000000 1.0
C      1  0.4563100000000  0.5396910000000  0.5117820000000 1.0
C      1  0.5367960000000  0.4654040000000  0.5102370000000 1.0
C      1  0.4670560000000  0.5365700000000  0.4834640000000 1.0
C      1  0.5399940000000  0.4631350000000  0.4764040000000 1.0
C      1  0.5387660000000  0.5344590000000  0.5059690000000 1.0
C      1  0.4678310000000  0.4661450000000  0.5184450000000 1.0
C      1  0.5345240000000  0.5307940000000  0.4762800000000 1.0
C      1  0.4609900000000  0.4627630000000  0.4867050000000 1.0
C      1  0.5498530000000  0.5102930000000  0.4647010000000 1.0
C      1  0.4656710000000  0.4833890000000  0.4622180000000 1.0
C      1  0.5336710000000  0.5129940000000  0.5303240000000 1.0
C      1  0.4843460000000  0.4891800000000  0.5296340000000 1.0
C      1  0.4573170000000  0.5165880000000  0.4639640000000 1.0
C      1  0.5364140000000  0.4864450000000  0.4581160000000 1.0
C      1  0.4684740000000  0.5176090000000  0.5338930000000 1.0
C      1  0.5181900000000  0.4875400000000  0.5242620000000 1.0
C      1  0.5203620000000  0.4984650000000  0.5680580000000 1.0
C      1  0.4907570000000  0.5124130000000  0.5772930000000 1.0
C      1  0.5103480000000  0.5105650000000  0.4234160000000 1.0
C      1  0.4802180000000  0.4926690000000  0.4246970000000 1.0
END
