TITL C-1154829-9094-670 0.00242704549241399 125000 -350.576828487738 0 0 60 (C1) n - 1
REM
REM in /home/nfs/bkarasulu/CARBON/AIRSS/Generating-Clusters/AIREBO/Higher-Symm/Only-C60
REM
REM
REM
REM
REM
REM ./C.cell (28575a23ae977d3b5fae324c64b13b57)
REM
REM compiler GCC version 9.2.1 20190827 (Red Hat 9.2.1-1)
REM options -cpp -mtune=generic -march=x86-64 -g -O0 -fpre-include=/usr/include/finclude/math-vector-fortran.h
REM seed 449758923 -1012678360 -689072432 -1085981138 -2047239958 39632513 1616305239 754725884 1329779429 -724081497 -1127937368 -1378614470 492120481 290478572 1414475130 1134207627 1791459728 1775263640 -1263896279 -1135830113 1257370789 -567603269 688063975 403905547 -41234846 -1122511505 342082935 676110120 -1919996106 2010398665 -1380183936 2211873 2131502610
REM
CELL 1.54180   50.00000   50.00000   50.00000   90.00000   90.00000   90.00000
LATT -1
SFAC C  
C      1  0.4438290000000  0.5360490000000  0.5135650000000 1.0
C      1  0.4486510000000  0.5104700000000  0.4599440000000 1.0
C      1  0.4620420000000  0.4577450000000  0.4861390000000 1.0
C      1  0.4545870000000  0.4880230000000  0.5290330000000 1.0
C      1  0.4485390000000  0.4601070000000  0.5105890000000 1.0
C      1  0.4619550000000  0.4859340000000  0.4578400000000 1.0
C      1  0.4545090000000  0.5292060000000  0.4877060000000 1.0
C      1  0.4439510000000  0.5137840000000  0.5360420000000 1.0
C      1  0.5167130000000  0.5622770000000  0.4838700000000 1.0
C      1  0.5174230000000  0.4880920000000  0.4406170000000 1.0
C      1  0.5139180000000  0.4412660000000  0.5217160000000 1.0
C      1  0.5162000000000  0.5159510000000  0.5563090000000 1.0
C      1  0.5174360000000  0.4405200000000  0.4878920000000 1.0
C      1  0.5140380000000  0.5219360000000  0.4415140000000 1.0
C      1  0.5147080000000  0.5575490000000  0.5154490000000 1.0
C      1  0.5173900000000  0.4838420000000  0.5617060000000 1.0
C      1  0.5645300000000  0.5119040000000  0.5351070000000 1.0
C      1  0.5613940000000  0.5356330000000  0.4868690000000 1.0
C      1  0.5496370000000  0.4939340000000  0.4536860000000 1.0
C      1  0.5577610000000  0.4578870000000  0.5197220000000 1.0
C      1  0.5615190000000  0.4846860000000  0.5353820000000 1.0
C      1  0.5501270000000  0.4520930000000  0.4941900000000 1.0
C      1  0.5568830000000  0.5192670000000  0.4604040000000 1.0
C      1  0.5605060000000  0.5344750000000  0.5144880000000 1.0
C      1  0.4903580000000  0.4747520000000  0.4321100000000 1.0
C      1  0.4867900000000  0.4393840000000  0.5389940000000 1.0
C      1  0.4889350000000  0.5358230000000  0.5605670000000 1.0
C      1  0.4880810000000  0.5622030000000  0.4655140000000 1.0
C      1  0.4881570000000  0.5408410000000  0.4386840000000 1.0
C      1  0.4874350000000  0.5611610000000  0.5343220000000 1.0
C      1  0.4891770000000  0.4648620000000  0.5617540000000 1.0
C      1  0.4904150000000  0.4319620000000  0.4749310000000 1.0
C      1  0.4834240000000  0.4132480000000  0.5195850000000 1.0
C      1  0.4858690000000  0.5137330000000  0.5827250000000 1.0
C      1  0.4849100000000  0.5858360000000  0.4886500000000 1.0
C      1  0.4783820000000  0.4917300000000  0.4137300000000 1.0
C      1  0.4854930000000  0.5848200000000  0.5138060000000 1.0
C      1  0.4847390000000  0.4887510000000  0.5841460000000 1.0
C      1  0.4792090000000  0.4130510000000  0.4918960000000 1.0
C      1  0.4814780000000  0.5194200000000  0.4143590000000 1.0
C      1  0.5385240000000  0.4436670000000  0.5388330000000 1.0
C      1  0.5425800000000  0.5293620000000  0.5496000000000 1.0
C      1  0.5403260000000  0.5536950000000  0.4716670000000 1.0
C      1  0.5411330000000  0.4653650000000  0.4466050000000 1.0
C      1  0.5407950000000  0.5530500000000  0.5292630000000 1.0
C      1  0.5406000000000  0.4706350000000  0.5533770000000 1.0
C      1  0.5412370000000  0.4461780000000  0.4653950000000 1.0
C      1  0.5389880000000  0.5384940000000  0.4450070000000 1.0
C      1  0.4989280000000  0.4682310000000  0.5141070000000 1.0
C      1  0.4994780000000  0.5118600000000  0.5304330000000 1.0
C      1  0.4866170000000  0.5289550000000  0.4876200000000 1.0
C      1  0.4895730000000  0.4886990000000  0.4693160000000 1.0
C      1  0.4994680000000  0.5307010000000  0.5115450000000 1.0
C      1  0.4867860000000  0.4877610000000  0.5290500000000 1.0
C      1  0.4896060000000  0.4692260000000  0.4888230000000 1.0
C      1  0.4988000000000  0.5140120000000  0.4681800000000 1.0
C      1  0.4634940000000  0.5408160000000  0.5407260000000 1.0
C      1  0.4622480000000  0.4589510000000  0.5418220000000 1.0
C      1  0.4626130000000  0.5415090000000  0.4582670000000 1.0
C      1  0.4749300000000  0.4546270000000  0.4548110000000 1.0
END
