TITL C-1154801-8518-53 -0.00302370848943804 125000 -326.567355266599 0 0 60 (C3) n - 1
REM
REM in /home/nfs/bkarasulu/CARBON/AIRSS/Generating-Clusters/AIREBO/Higher-Symm/Only-C60
REM
REM
REM
REM
REM
REM ./C.cell (28575a23ae977d3b5fae324c64b13b57)
REM
REM compiler GCC version 9.2.1 20190827 (Red Hat 9.2.1-1)
REM options -cpp -mtune=generic -march=x86-64 -g -O0 -fpre-include=/usr/include/finclude/math-vector-fortran.h
REM seed -1755733503 251233074 316688395 518556889 725157407 449674592 1089392839 -483706184 -1596424981 2132260184 300572744 -26832199 -1195481384 1889043320 -1586668743 2110656433 -1876061217 298669127 941085389 -397459449 -1024464319 344382258 -2119054092 -1112105410 -436630030 -713513255 521436963 236990019 607796201 470432412 1471629718 405162375 1035797808
REM
CELL 1.54180   50.00000   50.00000   50.00000   90.00000   90.00000   90.00000
LATT -1
SFAC C  
C      1  0.5556420000000  0.4608110000000  0.5089550000000 1.0
C      1  0.5192960000000  0.4594510000000  0.5530950000000 1.0
C      1  0.4644230000000  0.4608120000000  0.5437100000000 1.0
C      1  0.4443690000000  0.4594520000000  0.4901630000000 1.0
C      1  0.4799340000000  0.4608120000000  0.4473340000000 1.0
C      1  0.5363330000000  0.4594510000000  0.4567410000000 1.0
C      1  0.5660680000000  0.4872350000000  0.4902510000000 1.0
C      1  0.5411110000000  0.4855330000000  0.5521170000000 1.0
C      1  0.4754090000000  0.4872360000000  0.5620910000000 1.0
C      1  0.4343090000000  0.4855340000000  0.5095440000000 1.0
C      1  0.4585230000000  0.4872360000000  0.4476580000000 1.0
C      1  0.5245800000000  0.4855340000000  0.4383380000000 1.0
C      1  0.4809910000000  0.4821460000000  0.5230540000000 1.0
C      1  0.4709070000000  0.4791190000000  0.4951280000000 1.0
C      1  0.4895380000000  0.4821460000000  0.4720100000000 1.0
C      1  0.5187650000000  0.4791200000000  0.4772410000000 1.0
C      1  0.5294710000000  0.4821460000000  0.5049350000000 1.0
C      1  0.5103270000000  0.4791190000000  0.5276300000000 1.0
C      1  0.4829970000000  0.5569790000000  0.5258250000000 1.0
C      1  0.4673150000000  0.5497150000000  0.4972420000000 1.0
C      1  0.4861380000000  0.5569790000000  0.4723620000000 1.0
C      1  0.5187310000000  0.5497160000000  0.4730730000000 1.0
C      1  0.5308670000000  0.5569780000000  0.5018140000000 1.0
C      1  0.5139550000000  0.5497150000000  0.5296850000000 1.0
C      1  0.5592530000000  0.4859780000000  0.5310120000000 1.0
C      1  0.5036420000000  0.4868060000000  0.5660210000000 1.0
C      1  0.4435160000000  0.4859790000000  0.5358090000000 1.0
C      1  0.4410030000000  0.4868060000000  0.4701430000000 1.0
C      1  0.4972300000000  0.4859790000000  0.4331790000000 1.0
C      1  0.5553550000000  0.4868060000000  0.4638350000000 1.0
C      1  0.4926000000000  0.5366310000000  0.4458850000000 1.0
C      1  0.5460390000000  0.5294630000000  0.4723970000000 1.0
C      1  0.5505660000000  0.5366300000000  0.5206500000000 1.0
C      1  0.5008860000000  0.5294630000000  0.5536730000000 1.0
C      1  0.4568350000000  0.5366320000000  0.5334670000000 1.0
C      1  0.4530760000000  0.5294630000000  0.4739310000000 1.0
C      1  0.4364210000000  0.5392170000000  0.5079820000000 1.0
C      1  0.4533260000000  0.5291630000000  0.4459820000000 1.0
C      1  0.5248780000000  0.5392170000000  0.4409480000000 1.0
C      1  0.5701180000000  0.5291630000000  0.4865890000000 1.0
C      1  0.5387020000000  0.5392170000000  0.5510710000000 1.0
C      1  0.4765560000000  0.5291630000000  0.5674300000000 1.0
C      1  0.5302450000000  0.5175520000000  0.5071560000000 1.0
C      1  0.5091420000000  0.5100800000000  0.5280340000000 1.0
C      1  0.4786800000000  0.5175520000000  0.5226160000000 1.0
C      1  0.4711510000000  0.5100800000000  0.4939000000000 1.0
C      1  0.4910750000000  0.5175520000000  0.4702300000000 1.0
C      1  0.5197080000000  0.5100810000000  0.4780660000000 1.0
C      1  0.4295660000000  0.5114460000000  0.4906280000000 1.0
C      1  0.4761450000000  0.5110070000000  0.4307540000000 1.0
C      1  0.5433330000000  0.5114460000000  0.4436890000000 1.0
C      1  0.5718960000000  0.5110060000000  0.5139640000000 1.0
C      1  0.5271010000000  0.5114450000000  0.5656840000000 1.0
C      1  0.4519590000000  0.5110070000000  0.5552820000000 1.0
C      1  0.4714480000000  0.4394560000000  0.4951760000000 1.0
C      1  0.4902000000000  0.4422100000000  0.4736180000000 1.0
C      1  0.5184520000000  0.4394550000000  0.4776860000000 1.0
C      1  0.5277460000000  0.4422100000000  0.5047040000000 1.0
C      1  0.5100980000000  0.4394550000000  0.5271370000000 1.0
C      1  0.4820520000000  0.4422100000000  0.5216770000000 1.0
END
