TITL C-1154803-8277-129 -0.00155551725547263 125000 -350.68681525868 0 0 60 (C1) n - 1
REM
REM in /home/nfs/bkarasulu/CARBON/AIRSS/Generating-Clusters/AIREBO/Higher-Symm/Only-C60
REM
REM
REM
REM
REM
REM ./C.cell (28575a23ae977d3b5fae324c64b13b57)
REM
REM compiler GCC version 9.2.1 20190827 (Red Hat 9.2.1-1)
REM options -cpp -mtune=generic -march=x86-64 -g -O0 -fpre-include=/usr/include/finclude/math-vector-fortran.h
REM seed 961096218 -588306813 1421700421 952565307 1201977662 -1447821214 1349394366 -47692995 -1231984917 1522645129 -1187507842 1684963457 -152882027 -1341488078 -1693390199 -75190084 -1796143308 981260697 -930503864 -1885736755 1742896219 310884981 285849662 1615063950 -323025800 -869009054 1910715537 260443424 -1013312273 -1836452490 -400435116 -82592445 -584839497
REM
CELL 1.54180   50.00000   50.00000   50.00000   90.00000   90.00000   90.00000
LATT -1
SFAC C  
C      1  0.5362190000000  0.5378020000000  0.5438860000000 1.0
C      1  0.4751990000000  0.5468150000000  0.5397290000000 1.0
C      1  0.4505260000000  0.4917260000000  0.5415700000000 1.0
C      1  0.4940490000000  0.4443740000000  0.5432690000000 1.0
C      1  0.5512800000000  0.4722170000000  0.5428990000000 1.0
C      1  0.4892630000000  0.4396700000000  0.4566640000000 1.0
C      1  0.5485190000000  0.4752450000000  0.4574190000000 1.0
C      1  0.5359080000000  0.5419510000000  0.4660450000000 1.0
C      1  0.4693900000000  0.5483840000000  0.4540060000000 1.0
C      1  0.4397180000000  0.4902780000000  0.4553380000000 1.0
C      1  0.5209610000000  0.5615560000000  0.5316290000000 1.0
C      1  0.4511890000000  0.5416780000000  0.5245700000000 1.0
C      1  0.4496330000000  0.4625980000000  0.5291660000000 1.0
C      1  0.5209140000000  0.4356860000000  0.5283750000000 1.0
C      1  0.5648300000000  0.4997130000000  0.5313330000000 1.0
C      1  0.4794240000000  0.5722720000000  0.4645100000000 1.0
C      1  0.4275590000000  0.5119470000000  0.4725680000000 1.0
C      1  0.4653330000000  0.4368080000000  0.4734500000000 1.0
C      1  0.5454590000000  0.4511880000000  0.4728030000000 1.0
C      1  0.5592850000000  0.5318570000000  0.4788420000000 1.0
C      1  0.5594060000000  0.5276960000000  0.5304620000000 1.0
C      1  0.4930240000000  0.5652010000000  0.5275870000000 1.0
C      1  0.4389940000000  0.5138600000000  0.5257550000000 1.0
C      1  0.4688790000000  0.4408680000000  0.5280890000000 1.0
C      1  0.5466270000000  0.4488670000000  0.5263660000000 1.0
C      1  0.4734880000000  0.4940110000000  0.4502630000000 1.0
C      1  0.4980570000000  0.4717330000000  0.4500840000000 1.0
C      1  0.5249210000000  0.4852030000000  0.4433850000000 1.0
C      1  0.5199490000000  0.5181260000000  0.4497050000000 1.0
C      1  0.4895030000000  0.5236090000000  0.4509010000000 1.0
C      1  0.4494090000000  0.4809100000000  0.5031520000000 1.0
C      1  0.5010540000000  0.4430870000000  0.5040870000000 1.0
C      1  0.5592610000000  0.4832520000000  0.5037240000000 1.0
C      1  0.5345630000000  0.5486320000000  0.5054260000000 1.0
C      1  0.4546830000000  0.5545300000000  0.4987960000000 1.0
C      1  0.5295940000000  0.4904530000000  0.5148810000000 1.0
C      1  0.5236110000000  0.5203140000000  0.5045830000000 1.0
C      1  0.4938180000000  0.5226260000000  0.5139030000000 1.0
C      1  0.4757280000000  0.4999460000000  0.5068120000000 1.0
C      1  0.4903020000000  0.4718030000000  0.5145720000000 1.0
C      1  0.4748480000000  0.4962390000000  0.5547720000000 1.0
C      1  0.4963820000000  0.4757570000000  0.5465180000000 1.0
C      1  0.5239710000000  0.4892690000000  0.5462300000000 1.0
C      1  0.5197940000000  0.5185420000000  0.5557990000000 1.0
C      1  0.4904750000000  0.5213110000000  0.5467900000000 1.0
C      1  0.5174380000000  0.4763790000000  0.4858510000000 1.0
C      1  0.5303700000000  0.5043430000000  0.4777900000000 1.0
C      1  0.4944130000000  0.5355410000000  0.4823620000000 1.0
C      1  0.4664130000000  0.5076360000000  0.4788530000000 1.0
C      1  0.4841890000000  0.4710630000000  0.4811220000000 1.0
C      1  0.5138130000000  0.5622240000000  0.4821660000000 1.0
C      1  0.4496870000000  0.5356630000000  0.4746380000000 1.0
C      1  0.4518320000000  0.4657610000000  0.4737100000000 1.0
C      1  0.5149240000000  0.4442000000000  0.4752610000000 1.0
C      1  0.5637400000000  0.4995600000000  0.4756730000000 1.0
C      1  0.5582020000000  0.4523630000000  0.4985670000000 1.0
C      1  0.5669470000000  0.5435490000000  0.5053800000000 1.0
C      1  0.4847230000000  0.5708600000000  0.4975930000000 1.0
C      1  0.4258730000000  0.5028880000000  0.5001040000000 1.0
C      1  0.4724380000000  0.4283590000000  0.5002190000000 1.0
END
