TITL C-1154824-75-672 -4.10625588839711e-05 125000 -317.747157700156 0 0 60 (C1) n - 1
REM
REM in /home/nfs/bkarasulu/CARBON/AIRSS/Generating-Clusters/AIREBO/Higher-Symm/Only-C60
REM
REM
REM
REM
REM
REM ./C.cell (28575a23ae977d3b5fae324c64b13b57)
REM
REM compiler GCC version 9.2.1 20190827 (Red Hat 9.2.1-1)
REM options -cpp -mtune=generic -march=x86-64 -g -O0 -fpre-include=/usr/include/finclude/math-vector-fortran.h
REM seed 1080315221 1688125158 1639586880 -1625041474 253127189 -1346996672 1990573733 -736641021 -76568670 1358183237 -1862020771 885528935 473074586 1667338503 1637795587 -866375309 -1378823582 -1544916423 1258358669 1880646632 -225862679 -339735585 -1073655352 834557412 -444677125 1404027000 -702797246 1029918130 1626698565 2126161941 171449980 380202372 263621180
REM
CELL 1.54180   50.00000   50.00000   50.00000   90.00000   90.00000   90.00000
LATT -1
SFAC C  
C      1  0.5018770000000  0.4483080000000  0.5265760000000 1.0
C      1  0.5221740000000  0.4952140000000  0.4581640000000 1.0
C      1  0.4522510000000  0.5168840000000  0.4995910000000 1.0
C      1  0.5003530000000  0.5466770000000  0.5202440000000 1.0
C      1  0.4928510000000  0.4531670000000  0.4763200000000 1.0
C      1  0.4989540000000  0.5400530000000  0.4810040000000 1.0
C      1  0.4709080000000  0.4984040000000  0.4548620000000 1.0
C      1  0.4807060000000  0.5012370000000  0.5444480000000 1.0
C      1  0.5204490000000  0.5017720000000  0.5472730000000 1.0
C      1  0.5412570000000  0.4750350000000  0.5038010000000 1.0
C      1  0.5478490000000  0.5258620000000  0.5031480000000 1.0
C      1  0.4420130000000  0.4793760000000  0.5062250000000 1.0
C      1  0.4509590000000  0.4995940000000  0.5288390000000 1.0
C      1  0.4972190000000  0.5164670000000  0.4570050000000 1.0
C      1  0.5185370000000  0.4531490000000  0.4973640000000 1.0
C      1  0.5441090000000  0.5018670000000  0.5232500000000 1.0
C      1  0.4503470000000  0.4926730000000  0.4779420000000 1.0
C      1  0.5414040000000  0.4998300000000  0.4835980000000 1.0
C      1  0.4962110000000  0.4767150000000  0.4543100000000 1.0
C      1  0.5004670000000  0.4754150000000  0.5450610000000 1.0
C      1  0.5017480000000  0.5273950000000  0.5467550000000 1.0
C      1  0.4733220000000  0.5412300000000  0.5020640000000 1.0
C      1  0.5244970000000  0.5480040000000  0.5011250000000 1.0
C      1  0.4815780000000  0.4409300000000  0.5039900000000 1.0
C      1  0.5734810000000  0.5480800000000  0.5060710000000 1.0
C      1  0.5040800000000  0.5671070000000  0.5457990000000 1.0
C      1  0.5426250000000  0.5031760000000  0.5730630000000 1.0
C      1  0.4365200000000  0.4534580000000  0.5097340000000 1.0
C      1  0.4340810000000  0.5430770000000  0.4945960000000 1.0
C      1  0.5671920000000  0.4449480000000  0.5084900000000 1.0
C      1  0.5064300000000  0.4243350000000  0.5465050000000 1.0
C      1  0.5117450000000  0.5580050000000  0.4357080000000 1.0
C      1  0.5021960000000  0.4520540000000  0.4037910000000 1.0
C      1  0.4400820000000  0.5159430000000  0.5721110000000 1.0
C      1  0.4567010000000  0.5036740000000  0.4282400000000 1.0
C      1  0.5415800000000  0.4938340000000  0.4331390000000 1.0
C      1  0.5515020000000  0.5654550000000  0.5051510000000 1.0
C      1  0.5597680000000  0.5066380000000  0.5514650000000 1.0
C      1  0.5069830000000  0.5522660000000  0.5693560000000 1.0
C      1  0.4559860000000  0.4342990000000  0.5080660000000 1.0
C      1  0.5460850000000  0.4369620000000  0.4926380000000 1.0
C      1  0.4414760000000  0.5653300000000  0.5090020000000 1.0
C      1  0.4287370000000  0.5017850000000  0.5510070000000 1.0
C      1  0.5632850000000  0.5103510000000  0.4392780000000 1.0
C      1  0.4441880000000  0.5103170000000  0.4070000000000 1.0
C      1  0.5182830000000  0.4350080000000  0.5694030000000 1.0
C      1  0.4983350000000  0.4637580000000  0.4261530000000 1.0
C      1  0.4979670000000  0.5345140000000  0.4303030000000 1.0
C      1  0.4656440000000  0.5249980000000  0.5635520000000 1.0
C      1  0.5606640000000  0.4653880000000  0.5290530000000 1.0
C      1  0.5216160000000  0.5565710000000  0.4622970000000 1.0
C      1  0.5247490000000  0.4622740000000  0.5638500000000 1.0
C      1  0.5482560000000  0.5484630000000  0.4669730000000 1.0
C      1  0.4444360000000  0.4431600000000  0.4376110000000 1.0
C      1  0.4682750000000  0.5511460000000  0.5535300000000 1.0
C      1  0.4443070000000  0.4688780000000  0.4583370000000 1.0
C      1  0.5580630000000  0.5221500000000  0.4647300000000 1.0
C      1  0.4680830000000  0.4487010000000  0.4583280000000 1.0
C      1  0.4637860000000  0.5607820000000  0.5279440000000 1.0
C      1  0.5507720000000  0.4678580000000  0.5547700000000 1.0
END
