TITL C-1154803-8277-99 -0.000656060509171151 125000 -342.919993936647 0 0 60 (C1) n - 1
REM
REM in /home/nfs/bkarasulu/CARBON/AIRSS/Generating-Clusters/AIREBO/Higher-Symm/Only-C60
REM
REM
REM
REM
REM
REM ./C.cell (28575a23ae977d3b5fae324c64b13b57)
REM
REM compiler GCC version 9.2.1 20190827 (Red Hat 9.2.1-1)
REM options -cpp -mtune=generic -march=x86-64 -g -O0 -fpre-include=/usr/include/finclude/math-vector-fortran.h
REM seed 1743849339 339748130 -397510851 1239459648 1975178967 -13904652 2097203700 -1042661590 -848472371 1336462379 -498251293 1848922044 1618778943 813807758 603677457 -817733804 -1356730978 83067318 -877779659 1714803143 -138474822 1560980780 993635119 -866339238 169349040 107333807 -1790999517 -1463962432 1002101098 1628459439 -769938 -711974701 361547446
REM
CELL 1.54180   50.00000   50.00000   50.00000   90.00000   90.00000   90.00000
LATT -1
SFAC C  
C      1  0.5163330000000  0.5284640000000  0.5577500000000 1.0
C      1  0.5645060000000  0.4410050000000  0.5470840000000 1.0
C      1  0.6227740000000  0.4507340000000  0.4717160000000 1.0
C      1  0.5923170000000  0.5397150000000  0.4350530000000 1.0
C      1  0.5221640000000  0.5142840000000  0.4487450000000 1.0
C      1  0.4788870000000  0.4724190000000  0.4354420000000 1.0
C      1  0.4330340000000  0.5571150000000  0.4536490000000 1.0
C      1  0.4092570000000  0.5559280000000  0.4993270000000 1.0
C      1  0.4368200000000  0.4972960000000  0.5584540000000 1.0
C      1  0.4890910000000  0.4769970000000  0.5539550000000 1.0
C      1  0.5139590000000  0.4908420000000  0.5082570000000 1.0
C      1  0.5141000000000  0.5199320000000  0.5089670000000 1.0
C      1  0.5175560000000  0.4802960000000  0.4821820000000 1.0
C      1  0.5027640000000  0.5173010000000  0.4804970000000 1.0
C      1  0.4926280000000  0.4694630000000  0.4727670000000 1.0
C      1  0.4742290000000  0.5091220000000  0.4896220000000 1.0
C      1  0.4720640000000  0.4797200000000  0.4898190000000 1.0
C      1  0.4684160000000  0.5227560000000  0.5141580000000 1.0
C      1  0.4869910000000  0.4816020000000  0.5167970000000 1.0
C      1  0.4935990000000  0.5296770000000  0.5249880000000 1.0
C      1  0.4671180000000  0.5257100000000  0.4377380000000 1.0
C      1  0.4552370000000  0.4158430000000  0.5062380000000 1.0
C      1  0.4289350000000  0.5431840000000  0.5455770000000 1.0
C      1  0.4516040000000  0.4479120000000  0.5435070000000 1.0
C      1  0.4741670000000  0.5269490000000  0.5597010000000 1.0
C      1  0.5337260000000  0.4785810000000  0.5482150000000 1.0
C      1  0.5435370000000  0.5969170000000  0.5026160000000 1.0
C      1  0.5701370000000  0.4469460000000  0.4709420000000 1.0
C      1  0.5485130000000  0.5549470000000  0.4620420000000 1.0
C      1  0.5264970000000  0.4589980000000  0.4497160000000 1.0
C      1  0.5276130000000  0.4871940000000  0.4441140000000 1.0
C      1  0.4753600000000  0.4995500000000  0.4349440000000 1.0
C      1  0.4161710000000  0.5624810000000  0.4741900000000 1.0
C      1  0.4137850000000  0.5530940000000  0.5256560000000 1.0
C      1  0.4370330000000  0.4711480000000  0.5505190000000 1.0
C      1  0.4863580000000  0.5019890000000  0.5658320000000 1.0
C      1  0.5258300000000  0.5026490000000  0.5595270000000 1.0
C      1  0.5881830000000  0.4314260000000  0.5529620000000 1.0
C      1  0.5966370000000  0.4490140000000  0.4726100000000 1.0
C      1  0.5706900000000  0.5480530000000  0.4472880000000 1.0
C      1  0.5464320000000  0.5742460000000  0.4811280000000 1.0
C      1  0.5425570000000  0.4470810000000  0.4707360000000 1.0
C      1  0.5222530000000  0.5431310000000  0.4574650000000 1.0
C      1  0.4954120000000  0.4468230000000  0.4505800000000 1.0
C      1  0.4601640000000  0.5496580000000  0.4520550000000 1.0
C      1  0.4419380000000  0.4259370000000  0.5284650000000 1.0
C      1  0.4465320000000  0.5238260000000  0.5548540000000 1.0
C      1  0.4800040000000  0.4516520000000  0.5420490000000 1.0
C      1  0.4938490000000  0.5517880000000  0.5472850000000 1.0
C      1  0.5405650000000  0.4523710000000  0.5386800000000 1.0
C      1  0.5170100000000  0.5759740000000  0.4989060000000 1.0
C      1  0.5266680000000  0.4321780000000  0.4901710000000 1.0
C      1  0.5058320000000  0.5651520000000  0.4685820000000 1.0
C      1  0.4991650000000  0.4293960000000  0.4795760000000 1.0
C      1  0.4772510000000  0.5634550000000  0.4708800000000 1.0
C      1  0.4821030000000  0.4232040000000  0.5017570000000 1.0
C      1  0.4709210000000  0.5685180000000  0.4994880000000 1.0
C      1  0.4955830000000  0.4325520000000  0.5266260000000 1.0
C      1  0.4930830000000  0.5686400000000  0.5176950000000 1.0
C      1  0.5240570000000  0.4371650000000  0.5198600000000 1.0
END
