TITL C-1154823-9327-566 -0.000543792355721267 125000 -300.345051890598 0 0 60 (C1) n - 1
REM
REM in /home/nfs/bkarasulu/CARBON/AIRSS/Generating-Clusters/AIREBO/Higher-Symm/Only-C60
REM
REM
REM
REM
REM
REM ./C.cell (28575a23ae977d3b5fae324c64b13b57)
REM
REM compiler GCC version 9.2.1 20190827 (Red Hat 9.2.1-1)
REM options -cpp -mtune=generic -march=x86-64 -g -O0 -fpre-include=/usr/include/finclude/math-vector-fortran.h
REM seed -817309655 1710159923 -2073336702 1805265440 -1748884316 407483247 1549113379 1241738349 1102216421 -668459476 118117509 1014081798 -1470745655 1115937995 -587830106 -330667048 1227410641 1040446513 644727181 1354888934 -1577893411 1262800112 340907435 -1283314610 1136259256 -789057662 1018423238 1888131911 -2126290880 -78267668 -1927433840 -1073291848 -880802167
REM
CELL 1.54180   50.00000   50.00000   50.00000   90.00000   90.00000   90.00000
LATT -1
SFAC C  
C      1  0.5210570000000  0.5132050000000  0.5224810000000 1.0
C      1  0.5230800000000  0.5284830000000  0.4975570000000 1.0
C      1  0.5009600000000  0.5224560000000  0.4793240000000 1.0
C      1  0.4728170000000  0.5234370000000  0.4929990000000 1.0
C      1  0.4923460000000  0.5143360000000  0.5340300000000 1.0
C      1  0.5529740000000  0.4843850000000  0.4609890000000 1.0
C      1  0.4785490000000  0.4870280000000  0.4410160000000 1.0
C      1  0.4360390000000  0.4841090000000  0.4979680000000 1.0
C      1  0.4727430000000  0.4837830000000  0.5608170000000 1.0
C      1  0.5664980000000  0.4882970000000  0.5436270000000 1.0
C      1  0.4810960000000  0.4454870000000  0.4772010000000 1.0
C      1  0.4837250000000  0.4600920000000  0.5062740000000 1.0
C      1  0.5077370000000  0.4498690000000  0.5281130000000 1.0
C      1  0.5389790000000  0.4513090000000  0.5147440000000 1.0
C      1  0.5140290000000  0.4496210000000  0.4693640000000 1.0
C      1  0.4329870000000  0.5175900000000  0.4912180000000 1.0
C      1  0.4658110000000  0.5169700000000  0.5635800000000 1.0
C      1  0.5548770000000  0.5202280000000  0.5450410000000 1.0
C      1  0.5595630000000  0.5178780000000  0.4611370000000 1.0
C      1  0.4824770000000  0.5202710000000  0.4331650000000 1.0
C      1  0.5239370000000  0.5343680000000  0.5473380000000 1.0
C      1  0.5509930000000  0.5361230000000  0.4885960000000 1.0
C      1  0.5051390000000  0.5370000000000  0.4523440000000 1.0
C      1  0.4525120000000  0.5388690000000  0.4732610000000 1.0
C      1  0.4568740000000  0.5421100000000  0.5423970000000 1.0
C      1  0.4929470000000  0.5368560000000  0.5584530000000 1.0
C      1  0.5607400000000  0.5404840000000  0.5183620000000 1.0
C      1  0.5359560000000  0.5400450000000  0.4517430000000 1.0
C      1  0.4661580000000  0.5440370000000  0.4475840000000 1.0
C      1  0.4497540000000  0.5380040000000  0.5130310000000 1.0
C      1  0.4856920000000  0.4608080000000  0.5520450000000 1.0
C      1  0.5544640000000  0.4643840000000  0.5420470000000 1.0
C      1  0.5466120000000  0.4550770000000  0.4618240000000 1.0
C      1  0.4744170000000  0.4609510000000  0.4476530000000 1.0
C      1  0.4360930000000  0.4570590000000  0.5047980000000 1.0
C      1  0.5495540000000  0.4412150000000  0.4877140000000 1.0
C      1  0.4972010000000  0.4414910000000  0.4412650000000 1.0
C      1  0.4528790000000  0.4386240000000  0.4928540000000 1.0
C      1  0.4690240000000  0.4437280000000  0.5321990000000 1.0
C      1  0.5309600000000  0.4474780000000  0.5530980000000 1.0
C      1  0.5574620000000  0.4799310000000  0.4933740000000 1.0
C      1  0.5095650000000  0.4922370000000  0.4400210000000 1.0
C      1  0.4495070000000  0.4882620000000  0.4701090000000 1.0
C      1  0.4488440000000  0.4898940000000  0.5401380000000 1.0
C      1  0.5205950000000  0.4857780000000  0.5515380000000 1.0
C      1  0.5742840000000  0.5037510000000  0.4882550000000 1.0
C      1  0.5134760000000  0.5141800000000  0.4205750000000 1.0
C      1  0.4309180000000  0.5088040000000  0.4584270000000 1.0
C      1  0.4332480000000  0.5123700000000  0.5546330000000 1.0
C      1  0.5357080000000  0.5009890000000  0.5654970000000 1.0
C      1  0.5453590000000  0.5581880000000  0.5383670000000 1.0
C      1  0.5521920000000  0.5620230000000  0.4666010000000 1.0
C      1  0.4875820000000  0.5656420000000  0.4470920000000 1.0
C      1  0.4309460000000  0.5572540000000  0.4920500000000 1.0
C      1  0.4749830000000  0.5648980000000  0.5517060000000 1.0
C      1  0.4730870000000  0.4975160000000  0.5233860000000 1.0
C      1  0.5275600000000  0.4830290000000  0.5191930000000 1.0
C      1  0.5242400000000  0.4759670000000  0.4872700000000 1.0
C      1  0.5039330000000  0.4921560000000  0.4714630000000 1.0
C      1  0.4762630000000  0.4895870000000  0.4910550000000 1.0
END
