TITL C-1154830-9999-607 -0.00421944360724026 125000 -336.769868344265 0 0 60 (C1) n - 1
REM
REM in /home/nfs/bkarasulu/CARBON/AIRSS/Generating-Clusters/AIREBO/Higher-Symm/Only-C60
REM
REM
REM
REM
REM
REM ./C.cell (28575a23ae977d3b5fae324c64b13b57)
REM
REM compiler GCC version 9.2.1 20190827 (Red Hat 9.2.1-1)
REM options -cpp -mtune=generic -march=x86-64 -g -O0 -fpre-include=/usr/include/finclude/math-vector-fortran.h
REM seed 1843227806 -1202170020 2139386149 -148650906 -611589022 -726573237 72431281 -57751454 -216932586 1705734569 151953319 -174802850 1817039831 714376867 1088448222 -1220746685 1790917496 -1923503774 1550659474 -1017443523 1138621920 -1811823417 297730357 109662667 -1671207136 -2044357164 -394567801 1873743590 -197241087 401503170 1640823827 1837877323 -1995896377
REM
CELL 1.54180   50.00000   50.00000   50.00000   90.00000   90.00000   90.00000
LATT -1
SFAC C  
C      1  0.4850720000000  0.4429020000000  0.4539920000000 1.0
C      1  0.4577300000000  0.5401440000000  0.4597050000000 1.0
C      1  0.5614380000000  0.5173100000000  0.4541280000000 1.0
C      1  0.4869890000000  0.4464830000000  0.5508740000000 1.0
C      1  0.4506980000000  0.5366350000000  0.5474380000000 1.0
C      1  0.5588370000000  0.5169530000000  0.5393530000000 1.0
C      1  0.4966230000000  0.4646510000000  0.5710940000000 1.0
C      1  0.4428190000000  0.5182510000000  0.5669750000000 1.0
C      1  0.5435990000000  0.5276200000000  0.5628640000000 1.0
C      1  0.4990350000000  0.4647080000000  0.4383940000000 1.0
C      1  0.4644780000000  0.5251680000000  0.4369760000000 1.0
C      1  0.5511310000000  0.5316670000000  0.4321340000000 1.0
C      1  0.5489430000000  0.4668220000000  0.5478230000000 1.0
C      1  0.4468730000000  0.4766150000000  0.5428770000000 1.0
C      1  0.5030850000000  0.5554800000000  0.5418650000000 1.0
C      1  0.5485590000000  0.4676890000000  0.4518870000000 1.0
C      1  0.4527710000000  0.4792290000000  0.4537280000000 1.0
C      1  0.5032160000000  0.5489890000000  0.4550510000000 1.0
C      1  0.5475540000000  0.5269440000000  0.4801240000000 1.0
C      1  0.5030020000000  0.4514170000000  0.4758410000000 1.0
C      1  0.4512180000000  0.5230850000000  0.4843560000000 1.0
C      1  0.5435410000000  0.5232690000000  0.5131300000000 1.0
C      1  0.5033880000000  0.4505900000000  0.5277860000000 1.0
C      1  0.4545900000000  0.5236840000000  0.5181860000000 1.0
C      1  0.4896420000000  0.5422230000000  0.5133850000000 1.0
C      1  0.5511940000000  0.4738420000000  0.5138780000000 1.0
C      1  0.4640050000000  0.4721140000000  0.5134060000000 1.0
C      1  0.4892510000000  0.5386070000000  0.4842660000000 1.0
C      1  0.5544350000000  0.4759740000000  0.4845550000000 1.0
C      1  0.4536660000000  0.4671510000000  0.4856830000000 1.0
C      1  0.5147150000000  0.5007210000000  0.4451240000000 1.0
C      1  0.4832840000000  0.4908590000000  0.4505910000000 1.0
C      1  0.4945240000000  0.5251260000000  0.4334670000000 1.0
C      1  0.5264650000000  0.4991310000000  0.5544510000000 1.0
C      1  0.4811630000000  0.4893670000000  0.5722620000000 1.0
C      1  0.4963690000000  0.5108200000000  0.5575430000000 1.0
C      1  0.4610120000000  0.4497590000000  0.5388580000000 1.0
C      1  0.4716100000000  0.5548250000000  0.5393100000000 1.0
C      1  0.5671980000000  0.4905590000000  0.5387890000000 1.0
C      1  0.4579610000000  0.4477010000000  0.4602840000000 1.0
C      1  0.4758380000000  0.5640690000000  0.4656270000000 1.0
C      1  0.5683740000000  0.4908960000000  0.4573650000000 1.0
C      1  0.5172270000000  0.4302380000000  0.5151650000000 1.0
C      1  0.4234140000000  0.5155330000000  0.5118980000000 1.0
C      1  0.5452730000000  0.5550510000000  0.5083240000000 1.0
C      1  0.5181640000000  0.4314130000000  0.4879810000000 1.0
C      1  0.4180560000000  0.5153470000000  0.4849320000000 1.0
C      1  0.5523420000000  0.5607430000000  0.4824820000000 1.0
C      1  0.4964120000000  0.4819900000000  0.5165970000000 1.0
C      1  0.4845880000000  0.5118400000000  0.5278370000000 1.0
C      1  0.5268890000000  0.4955970000000  0.5231900000000 1.0
C      1  0.5035130000000  0.4827050000000  0.4839340000000 1.0
C      1  0.4808670000000  0.5075810000000  0.4782990000000 1.0
C      1  0.5315750000000  0.4979130000000  0.4722140000000 1.0
C      1  0.4535860000000  0.4918210000000  0.5654760000000 1.0
C      1  0.5149650000000  0.5369520000000  0.5586760000000 1.0
C      1  0.5253140000000  0.4702310000000  0.5670440000000 1.0
C      1  0.4495430000000  0.5028230000000  0.4327560000000 1.0
C      1  0.5255160000000  0.5386940000000  0.4321220000000 1.0
C      1  0.5268620000000  0.4634760000000  0.4356520000000 1.0
END
