TITL C-1154821-8623-283 -0.00108659090946688 125000 -324.668896466101 0 0 60 (C1) n - 1
REM
REM in /home/nfs/bkarasulu/CARBON/AIRSS/Generating-Clusters/AIREBO/Higher-Symm/Only-C60
REM
REM
REM
REM
REM
REM ./C.cell (28575a23ae977d3b5fae324c64b13b57)
REM
REM compiler GCC version 9.2.1 20190827 (Red Hat 9.2.1-1)
REM options -cpp -mtune=generic -march=x86-64 -g -O0 -fpre-include=/usr/include/finclude/math-vector-fortran.h
REM seed 1531005561 -1456429936 1469216555 -1800474341 -666999610 -942214180 -755504613 -580481818 689764780 55254557 -1490638821 2057887531 -2094873582 1794907296 -813925824 -1732127042 -507255937 933889719 -1900294150 1942586163 29012698 -1423667730 1475406814 -85481363 308665412 -197419864 -261842678 -115081073 467831187 996667761 -123149261 1361638669 -698216178
REM
CELL 1.54180   50.00000   50.00000   50.00000   90.00000   90.00000   90.00000
LATT -1
SFAC C  
C      1  0.5588490000000  0.4557550000000  0.5000430000000 1.0
C      1  0.5469960000000  0.5524490000000  0.4711130000000 1.0
C      1  0.5278320000000  0.4437110000000  0.4512800000000 1.0
C      1  0.5022520000000  0.5570840000000  0.4446200000000 1.0
C      1  0.4744890000000  0.4443880000000  0.4414700000000 1.0
C      1  0.4504890000000  0.5448080000000  0.4656040000000 1.0
C      1  0.4427100000000  0.4646160000000  0.5049390000000 1.0
C      1  0.4425800000000  0.5485280000000  0.5300340000000 1.0
C      1  0.4684160000000  0.4511090000000  0.5568940000000 1.0
C      1  0.4976690000000  0.5429450000000  0.5638630000000 1.0
C      1  0.5325020000000  0.4489510000000  0.5511110000000 1.0
C      1  0.5541490000000  0.5468650000000  0.5302300000000 1.0
C      1  0.5249580000000  0.4736290000000  0.4886870000000 1.0
C      1  0.5208800000000  0.5161400000000  0.4734930000000 1.0
C      1  0.5079160000000  0.4807860000000  0.4600900000000 1.0
C      1  0.4881700000000  0.5167340000000  0.4669300000000 1.0
C      1  0.4744660000000  0.4763970000000  0.4643190000000 1.0
C      1  0.4709050000000  0.5240090000000  0.4928640000000 1.0
C      1  0.4697740000000  0.4751920000000  0.5213760000000 1.0
C      1  0.4825940000000  0.5231700000000  0.5247670000000 1.0
C      1  0.4991010000000  0.4723600000000  0.5365780000000 1.0
C      1  0.5132150000000  0.5265150000000  0.5309020000000 1.0
C      1  0.5254210000000  0.4772300000000  0.5207510000000 1.0
C      1  0.5305360000000  0.5285780000000  0.5036300000000 1.0
C      1  0.4693260000000  0.5056390000000  0.5472780000000 1.0
C      1  0.4998520000000  0.4880470000000  0.5654920000000 1.0
C      1  0.5284990000000  0.5131680000000  0.5546690000000 1.0
C      1  0.5531980000000  0.4887080000000  0.5366990000000 1.0
C      1  0.5586660000000  0.5097050000000  0.5032250000000 1.0
C      1  0.5489120000000  0.4877920000000  0.4717810000000 1.0
C      1  0.5324510000000  0.5074940000000  0.4427130000000 1.0
C      1  0.5062080000000  0.4936970000000  0.4286650000000 1.0
C      1  0.4717580000000  0.5067190000000  0.4388490000000 1.0
C      1  0.4481760000000  0.4909890000000  0.4665760000000 1.0
C      1  0.4417960000000  0.5135020000000  0.4989880000000 1.0
C      1  0.4431730000000  0.4928460000000  0.5331330000000 1.0
C      1  0.4869490000000  0.4409650000000  0.5317680000000 1.0
C      1  0.5000240000000  0.5576740000000  0.5344160000000 1.0
C      1  0.5184350000000  0.4381300000000  0.5295050000000 1.0
C      1  0.5275040000000  0.5602490000000  0.5156280000000 1.0
C      1  0.5290110000000  0.4424490000000  0.5016280000000 1.0
C      1  0.5254590000000  0.5632900000000  0.4844750000000 1.0
C      1  0.5134330000000  0.4381170000000  0.4745130000000 1.0
C      1  0.5009600000000  0.5648130000000  0.4711900000000 1.0
C      1  0.4835630000000  0.4452100000000  0.4743580000000 1.0
C      1  0.4748880000000  0.5568780000000  0.4851260000000 1.0
C      1  0.4710490000000  0.4461670000000  0.5026410000000 1.0
C      1  0.4718040000000  0.5550180000000  0.5178820000000 1.0
C      1  0.5546220000000  0.5212950000000  0.4728180000000 1.0
C      1  0.5372880000000  0.4738580000000  0.4439290000000 1.0
C      1  0.5045420000000  0.5262580000000  0.4384970000000 1.0
C      1  0.4795230000000  0.4746190000000  0.4307440000000 1.0
C      1  0.4481470000000  0.5188040000000  0.4554050000000 1.0
C      1  0.4335480000000  0.4865330000000  0.4904810000000 1.0
C      1  0.4330150000000  0.5234080000000  0.5250260000000 1.0
C      1  0.4572370000000  0.4760590000000  0.5591320000000 1.0
C      1  0.4908600000000  0.5171660000000  0.5673980000000 1.0
C      1  0.5304780000000  0.4796670000000  0.5602320000000 1.0
C      1  0.5551110000000  0.5223390000000  0.5413430000000 1.0
C      1  0.5636690000000  0.4807790000000  0.5082050000000 1.0
END
