TITL C-1154801-8518-10 0.00283762963871638 125000 -303.866045194681 0 0 60 (C1) n - 1
REM
REM in /home/nfs/bkarasulu/CARBON/AIRSS/Generating-Clusters/AIREBO/Higher-Symm/Only-C60
REM
REM
REM
REM
REM
REM ./C.cell (28575a23ae977d3b5fae324c64b13b57)
REM
REM compiler GCC version 9.2.1 20190827 (Red Hat 9.2.1-1)
REM options -cpp -mtune=generic -march=x86-64 -g -O0 -fpre-include=/usr/include/finclude/math-vector-fortran.h
REM seed -1126078154 -783700943 800111956 -29347408 1101854117 -914582984 1977476501 -168239837 106528226 207612560 748335333 156211103 989728813 1315835581 218187479 -293264579 1648257344 -1281664147 -2030458311 -804367284 1579707977 -1065020677 -1757324037 -861011613 1210036107 1978382705 -1644075213 -538901758 -1549870831 375731098 -1749765305 1649254616 -1873020798
REM
CELL 1.54180   50.00000   50.00000   50.00000   90.00000   90.00000   90.00000
LATT -1
SFAC C  
C      1  0.5142090000000  0.4898520000000  0.5727410000000 1.0
C      1  0.5658510000000  0.4920830000000  0.4966330000000 1.0
C      1  0.4946320000000  0.4948940000000  0.4345820000000 1.0
C      1  0.4287830000000  0.4969260000000  0.5024630000000 1.0
C      1  0.5236140000000  0.4513860000000  0.4963000000000 1.0
C      1  0.4986980000000  0.4563710000000  0.4739110000000 1.0
C      1  0.4766410000000  0.4595790000000  0.5145390000000 1.0
C      1  0.5076710000000  0.4522180000000  0.5263440000000 1.0
C      1  0.4956520000000  0.5221580000000  0.4720240000000 1.0
C      1  0.4796630000000  0.5206030000000  0.4998680000000 1.0
C      1  0.5032020000000  0.5121150000000  0.5220040000000 1.0
C      1  0.5186150000000  0.5150880000000  0.4934670000000 1.0
C      1  0.4556570000000  0.4934970000000  0.4828480000000 1.0
C      1  0.4879740000000  0.4818030000000  0.5580590000000 1.0
C      1  0.5426630000000  0.4873820000000  0.5210560000000 1.0
C      1  0.5182590000000  0.4918760000000  0.4588630000000 1.0
C      1  0.4248600000000  0.5234160000000  0.5118750000000 1.0
C      1  0.5259970000000  0.5127230000000  0.5620590000000 1.0
C      1  0.5598320000000  0.5144570000000  0.4812100000000 1.0
C      1  0.4764690000000  0.5157040000000  0.4376290000000 1.0
C      1  0.5141380000000  0.5760480000000  0.4466100000000 1.0
C      1  0.4614770000000  0.5745060000000  0.4997540000000 1.0
C      1  0.4988870000000  0.5781220000000  0.5308560000000 1.0
C      1  0.5254490000000  0.5806790000000  0.4981520000000 1.0
C      1  0.5241740000000  0.5416330000000  0.5464600000000 1.0
C      1  0.5490850000000  0.5439320000000  0.4777570000000 1.0
C      1  0.4743040000000  0.5446030000000  0.4471100000000 1.0
C      1  0.4446320000000  0.5362840000000  0.5276310000000 1.0
C      1  0.4871720000000  0.4351020000000  0.5474030000000 1.0
C      1  0.5521340000000  0.4383000000000  0.5094160000000 1.0
C      1  0.5092170000000  0.4435770000000  0.4442090000000 1.0
C      1  0.4540300000000  0.4466370000000  0.4951060000000 1.0
C      1  0.5420190000000  0.5122280000000  0.4549050000000 1.0
C      1  0.4515530000000  0.5141140000000  0.4585100000000 1.0
C      1  0.4683850000000  0.5004490000000  0.5439760000000 1.0
C      1  0.5489060000000  0.5109600000000  0.5413580000000 1.0
C      1  0.4884400000000  0.4890550000000  0.4749820000000 1.0
C      1  0.4695940000000  0.4921540000000  0.5138530000000 1.0
C      1  0.5109580000000  0.4853570000000  0.5332290000000 1.0
C      1  0.5269820000000  0.4848080000000  0.4909820000000 1.0
C      1  0.5290250000000  0.4653050000000  0.5746130000000 1.0
C      1  0.5703110000000  0.4679020000000  0.4820720000000 1.0
C      1  0.4817130000000  0.4698830000000  0.4298030000000 1.0
C      1  0.4263170000000  0.4739900000000  0.5195920000000 1.0
C      1  0.4730780000000  0.4572520000000  0.4535710000000 1.0
C      1  0.4482790000000  0.4626860000000  0.5330330000000 1.0
C      1  0.5310110000000  0.4497210000000  0.5509640000000 1.0
C      1  0.5473660000000  0.4544910000000  0.4721580000000 1.0
C      1  0.4520600000000  0.4623510000000  0.4721120000000 1.0
C      1  0.4697960000000  0.4569090000000  0.5537950000000 1.0
C      1  0.5503300000000  0.4574890000000  0.5306700000000 1.0
C      1  0.5305020000000  0.4627270000000  0.4505700000000 1.0
C      1  0.5475350000000  0.5419800000000  0.4458780000000 1.0
C      1  0.4447480000000  0.5454640000000  0.4566620000000 1.0
C      1  0.4527610000000  0.5214040000000  0.5499410000000 1.0
C      1  0.5549350000000  0.5410700000000  0.5371050000000 1.0
C      1  0.5019480000000  0.5460850000000  0.5211070000000 1.0
C      1  0.5184620000000  0.5489960000000  0.4909150000000 1.0
C      1  0.5007020000000  0.5536180000000  0.4620420000000 1.0
C      1  0.4686460000000  0.5479990000000  0.5126620000000 1.0
END
