TITL C-1154803-8277-604 0.000300711131053771 125000 -319.725671063231 0 0 60 (C1) n - 1
REM
REM in /home/nfs/bkarasulu/CARBON/AIRSS/Generating-Clusters/AIREBO/Higher-Symm/Only-C60
REM
REM
REM
REM
REM
REM ./C.cell (28575a23ae977d3b5fae324c64b13b57)
REM
REM compiler GCC version 9.2.1 20190827 (Red Hat 9.2.1-1)
REM options -cpp -mtune=generic -march=x86-64 -g -O0 -fpre-include=/usr/include/finclude/math-vector-fortran.h
REM seed -1387875005 884493387 635077983 739328468 1600510051 -1968758329 1509162208 -2010024239 505500812 2105465535 -2101731057 -1963557671 1481595349 -489209579 -455789908 -915526694 87426973 995554899 138960413 -773603450 -1124449307 -24187213 497732535 182291675 78589937 -495153510 668177151 2108486741 933639114 1395432484 -180617734 -708020863 1593193441
REM
CELL 1.54180   50.00000   50.00000   50.00000   90.00000   90.00000   90.00000
LATT -1
SFAC C  
C      1  0.4507050000000  0.5354980000000  0.5374850000000 1.0
C      1  0.4407300000000  0.4876800000000  0.5477790000000 1.0
C      1  0.4803030000000  0.4397170000000  0.5391010000000 1.0
C      1  0.5297860000000  0.4504690000000  0.5360730000000 1.0
C      1  0.5624650000000  0.4994320000000  0.5419950000000 1.0
C      1  0.5498430000000  0.5371080000000  0.5379140000000 1.0
C      1  0.4976090000000  0.5646410000000  0.5358760000000 1.0
C      1  0.4717780000000  0.4774780000000  0.5487250000000 1.0
C      1  0.5021650000000  0.4624160000000  0.5519050000000 1.0
C      1  0.5253200000000  0.4847770000000  0.5408840000000 1.0
C      1  0.5351520000000  0.5130810000000  0.5569630000000 1.0
C      1  0.5168410000000  0.5392240000000  0.5448140000000 1.0
C      1  0.4828860000000  0.5359620000000  0.5432630000000 1.0
C      1  0.4646850000000  0.5100590000000  0.5556640000000 1.0
C      1  0.4934440000000  0.4642440000000  0.5110770000000 1.0
C      1  0.5252210000000  0.4720870000000  0.5027690000000 1.0
C      1  0.5351520000000  0.5014310000000  0.5129040000000 1.0
C      1  0.5304650000000  0.5298570000000  0.4945160000000 1.0
C      1  0.4789400000000  0.5303660000000  0.4878620000000 1.0
C      1  0.4627920000000  0.5049200000000  0.5004260000000 1.0
C      1  0.4605580000000  0.4723800000000  0.5054930000000 1.0
C      1  0.5807780000000  0.5194790000000  0.4690000000000 1.0
C      1  0.5137300000000  0.5691890000000  0.4674920000000 1.0
C      1  0.4663770000000  0.5684410000000  0.4596260000000 1.0
C      1  0.4238510000000  0.4955160000000  0.4761530000000 1.0
C      1  0.4298140000000  0.4640460000000  0.4690200000000 1.0
C      1  0.5056880000000  0.4311680000000  0.4672390000000 1.0
C      1  0.5403450000000  0.4573090000000  0.4688870000000 1.0
C      1  0.5801470000000  0.5225070000000  0.4965020000000 1.0
C      1  0.5139680000000  0.5545310000000  0.4903350000000 1.0
C      1  0.4585350000000  0.5563220000000  0.4888230000000 1.0
C      1  0.4231050000000  0.5054040000000  0.5024780000000 1.0
C      1  0.4588280000000  0.4511360000000  0.4806860000000 1.0
C      1  0.5044300000000  0.4273630000000  0.4943770000000 1.0
C      1  0.5526010000000  0.4801400000000  0.4842330000000 1.0
C      1  0.5571660000000  0.5011520000000  0.4592900000000 1.0
C      1  0.5275970000000  0.5133430000000  0.4688570000000 1.0
C      1  0.4929010000000  0.5629290000000  0.4491300000000 1.0
C      1  0.4763220000000  0.5088070000000  0.4630710000000 1.0
C      1  0.4544150000000  0.4876710000000  0.4653390000000 1.0
C      1  0.4747420000000  0.4640150000000  0.4534940000000 1.0
C      1  0.5085200000000  0.4640300000000  0.4589830000000 1.0
C      1  0.5360590000000  0.4989680000000  0.4327140000000 1.0
C      1  0.5236880000000  0.5271540000000  0.4387460000000 1.0
C      1  0.4984730000000  0.5392100000000  0.4341190000000 1.0
C      1  0.4782500000000  0.5195170000000  0.4349420000000 1.0
C      1  0.4766280000000  0.4981520000000  0.4162660000000 1.0
C      1  0.4888390000000  0.4740700000000  0.4257350000000 1.0
C      1  0.5188590000000  0.4771150000000  0.4295830000000 1.0
C      1  0.4342110000000  0.4851720000000  0.5200730000000 1.0
C      1  0.4760890000000  0.4356730000000  0.5056010000000 1.0
C      1  0.5248410000000  0.4397160000000  0.5087800000000 1.0
C      1  0.5678580000000  0.4964090000000  0.5099120000000 1.0
C      1  0.5569120000000  0.5348340000000  0.5109090000000 1.0
C      1  0.4877210000000  0.5572870000000  0.5066880000000 1.0
C      1  0.4441910000000  0.5316110000000  0.5074800000000 1.0
C      1  0.4985730000000  0.4971070000000  0.5676090000000 1.0
C      1  0.5046000000000  0.4946790000000  0.4730110000000 1.0
C      1  0.4928700000000  0.4955060000000  0.5015750000000 1.0
C      1  0.4952450000000  0.4970000000000  0.5337500000000 1.0
END
