TITL C-1154816-9297-666 -0.000252628999446583 125000 -358.136311431777 0 0 60 (C1) n - 1
REM
REM in /home/nfs/bkarasulu/CARBON/AIRSS/Generating-Clusters/AIREBO/Higher-Symm/Only-C60
REM
REM
REM
REM
REM
REM ./C.cell (28575a23ae977d3b5fae324c64b13b57)
REM
REM compiler GCC version 9.2.1 20190827 (Red Hat 9.2.1-1)
REM options -cpp -mtune=generic -march=x86-64 -g -O0 -fpre-include=/usr/include/finclude/math-vector-fortran.h
REM seed 959985378 506085032 -1860262440 -303158883 -605624271 -369348815 1755574995 777361515 1207118381 -221250503 100930028 1032811407 1685968632 958220788 1782036446 1524173127 1971595036 -115483920 105875264 -1397783853 -32492782 1125861019 29631758 -108992931 -701806156 925227492 -1882318723 -319974243 1246745654 1070904409 -1972507825 101669187 65584421
REM
CELL 1.54180   50.00000   50.00000   50.00000   90.00000   90.00000   90.00000
LATT -1
SFAC C  
C      1  0.5237810000000  0.5262510000000  0.4897690000000 1.0
C      1  0.4736470000000  0.4745890000000  0.4605880000000 1.0
C      1  0.4602210000000  0.5261410000000  0.5053580000000 1.0
C      1  0.4670640000000  0.4556720000000  0.5269410000000 1.0
C      1  0.5150490000000  0.5147820000000  0.5384900000000 1.0
C      1  0.5285360000000  0.4524270000000  0.4957840000000 1.0
C      1  0.5337090000000  0.5270380000000  0.5213070000000 1.0
C      1  0.5016210000000  0.4421270000000  0.4790300000000 1.0
C      1  0.5016380000000  0.5460040000000  0.4851680000000 1.0
C      1  0.4688740000000  0.4511550000000  0.4830890000000 1.0
C      1  0.4825400000000  0.5465010000000  0.5059060000000 1.0
C      1  0.4853330000000  0.4342210000000  0.5075190000000 1.0
C      1  0.4377160000000  0.4540550000000  0.5149040000000 1.0
C      1  0.4977600000000  0.5333000000000  0.5511550000000 1.0
C      1  0.5303620000000  0.4316540000000  0.5194350000000 1.0
C      1  0.5568950000000  0.5305390000000  0.4894870000000 1.0
C      1  0.4902550000000  0.4608510000000  0.4383240000000 1.0
C      1  0.4975800000000  0.5810420000000  0.4524420000000 1.0
C      1  0.4383620000000  0.4545610000000  0.4870090000000 1.0
C      1  0.4804020000000  0.5501400000000  0.5360490000000 1.0
C      1  0.5053590000000  0.4260740000000  0.5294570000000 1.0
C      1  0.5614700000000  0.5388210000000  0.5189850000000 1.0
C      1  0.5096240000000  0.4451340000000  0.4499490000000 1.0
C      1  0.4967300000000  0.5547470000000  0.4586600000000 1.0
C      1  0.5790520000000  0.5533950000000  0.5335080000000 1.0
C      1  0.5361790000000  0.4537720000000  0.4475860000000 1.0
C      1  0.4892720000000  0.5354710000000  0.4383800000000 1.0
C      1  0.4273930000000  0.4697460000000  0.4655600000000 1.0
C      1  0.4521430000000  0.5504500000000  0.5424950000000 1.0
C      1  0.4925150000000  0.4262200000000  0.5544850000000 1.0
C      1  0.5743250000000  0.4652250000000  0.4749270000000 1.0
C      1  0.5236790000000  0.4953000000000  0.4269210000000 1.0
C      1  0.4495360000000  0.5074870000000  0.4353330000000 1.0
C      1  0.4119450000000  0.5269640000000  0.5211780000000 1.0
C      1  0.4538960000000  0.4502310000000  0.5760280000000 1.0
C      1  0.6141050000000  0.5791180000000  0.5641810000000 1.0
C      1  0.5411760000000  0.4733560000000  0.4271900000000 1.0
C      1  0.4613820000000  0.5327090000000  0.4319010000000 1.0
C      1  0.3868370000000  0.5180830000000  0.5208360000000 1.0
C      1  0.4399100000000  0.4588370000000  0.5969980000000 1.0
C      1  0.6319000000000  0.5904990000000  0.5804140000000 1.0
C      1  0.5841800000000  0.4904720000000  0.4729490000000 1.0
C      1  0.5085140000000  0.5175460000000  0.4284330000000 1.0
C      1  0.4468410000000  0.4849910000000  0.4512010000000 1.0
C      1  0.4383460000000  0.5339220000000  0.5230530000000 1.0
C      1  0.4699600000000  0.4434270000000  0.5550560000000 1.0
C      1  0.5975340000000  0.5654550000000  0.5484220000000 1.0
C      1  0.5492010000000  0.4538170000000  0.4725690000000 1.0
C      1  0.6475720000000  0.6033540000000  0.5970330000000 1.0
C      1  0.5746000000000  0.5158030000000  0.4744560000000 1.0
C      1  0.5616340000000  0.4707670000000  0.4098420000000 1.0
C      1  0.4472240000000  0.5539920000000  0.4232220000000 1.0
C      1  0.3622600000000  0.5094480000000  0.5179470000000 1.0
C      1  0.4240970000000  0.4673150000000  0.6161040000000 1.0
C      1  0.4701100000000  0.4998240000000  0.5024090000000 1.0
C      1  0.4788150000000  0.4838760000000  0.5248110000000 1.0
C      1  0.5070920000000  0.4883450000000  0.5295370000000 1.0
C      1  0.5219300000000  0.4801950000000  0.5057990000000 1.0
C      1  0.5138750000000  0.4979890000000  0.4850950000000 1.0
C      1  0.4864420000000  0.4947750000000  0.4793370000000 1.0
END
