TITL C-1154810-7815-254 0.000783521458481354 125000 -323.095780971544 0 0 60 (C1) n - 1
REM
REM in /home/nfs/bkarasulu/CARBON/AIRSS/Generating-Clusters/AIREBO/Higher-Symm/Only-C60
REM
REM
REM
REM
REM
REM ./C.cell (28575a23ae977d3b5fae324c64b13b57)
REM
REM compiler GCC version 9.2.1 20190827 (Red Hat 9.2.1-1)
REM options -cpp -mtune=generic -march=x86-64 -g -O0 -fpre-include=/usr/include/finclude/math-vector-fortran.h
REM seed 586595782 -2026617258 -1247233231 1935173374 -1982658311 -923157318 180007197 571606424 -1019525649 188574750 1938737670 394000135 -1569740988 -1738330600 174252466 -1560276478 543473829 -830224443 1531767702 39603432 -1651670461 -1953418876 -1918098749 545745942 1791199309 1434685415 1191136506 -1094919079 -2054562095 -223228743 -1544105899 1665220021 1946616915
REM
CELL 1.54180   50.00000   50.00000   50.00000   90.00000   90.00000   90.00000
LATT -1
SFAC C  
C      1  0.5958830000000  0.5093170000000  0.4977130000000 1.0
C      1  0.4975450000000  0.4879290000000  0.4052250000000 1.0
C      1  0.4080490000000  0.5067360000000  0.5071060000000 1.0
C      1  0.5068960000000  0.4950830000000  0.5934150000000 1.0
C      1  0.4636580000000  0.4575130000000  0.4658220000000 1.0
C      1  0.4645900000000  0.5342890000000  0.5234130000000 1.0
C      1  0.5292600000000  0.4534620000000  0.5360820000000 1.0
C      1  0.5310770000000  0.5728820000000  0.4843560000000 1.0
C      1  0.4278340000000  0.4956730000000  0.4880890000000 1.0
C      1  0.4875000000000  0.5084670000000  0.5739960000000 1.0
C      1  0.5787220000000  0.4937700000000  0.5161970000000 1.0
C      1  0.5150690000000  0.5037920000000  0.4233470000000 1.0
C      1  0.4825120000000  0.4979750000000  0.5138220000000 1.0
C      1  0.5167610000000  0.5036270000000  0.5153730000000 1.0
C      1  0.5093580000000  0.4856840000000  0.4874550000000 1.0
C      1  0.4926260000000  0.5143520000000  0.4857920000000 1.0
C      1  0.4506390000000  0.5317520000000  0.4650550000000 1.0
C      1  0.4714150000000  0.4685570000000  0.5509340000000 1.0
C      1  0.5468900000000  0.5267110000000  0.5276250000000 1.0
C      1  0.5287530000000  0.4706710000000  0.4484320000000 1.0
C      1  0.5519930000000  0.5097870000000  0.4747410000000 1.0
C      1  0.4737540000000  0.4855650000000  0.4494700000000 1.0
C      1  0.4494350000000  0.5092560000000  0.5329700000000 1.0
C      1  0.5239720000000  0.4847510000000  0.5496190000000 1.0
C      1  0.5416380000000  0.4977290000000  0.4487930000000 1.0
C      1  0.4468460000000  0.5035750000000  0.4572290000000 1.0
C      1  0.4601930000000  0.4960260000000  0.5580520000000 1.0
C      1  0.5511110000000  0.5004540000000  0.5403590000000 1.0
C      1  0.5038020000000  0.5118710000000  0.5457410000000 1.0
C      1  0.5542200000000  0.4890710000000  0.5000410000000 1.0
C      1  0.4973820000000  0.5098410000000  0.4464670000000 1.0
C      1  0.4522440000000  0.4882500000000  0.5062860000000 1.0
C      1  0.5794100000000  0.4879700000000  0.5477330000000 1.0
C      1  0.5456370000000  0.5131430000000  0.4212790000000 1.0
C      1  0.4191130000000  0.4882170000000  0.4581710000000 1.0
C      1  0.4563590000000  0.5141720000000  0.5865000000000 1.0
C      1  0.4177840000000  0.5122530000000  0.5304690000000 1.0
C      1  0.5245150000000  0.4811830000000  0.5814090000000 1.0
C      1  0.5832140000000  0.5177670000000  0.4762710000000 1.0
C      1  0.4758420000000  0.4785430000000  0.4168640000000 1.0
C      1  0.5075930000000  0.4539550000000  0.5115230000000 1.0
C      1  0.5161760000000  0.5465700000000  0.4884200000000 1.0
C      1  0.4885380000000  0.4516170000000  0.4883630000000 1.0
C      1  0.4909960000000  0.5486090000000  0.5061400000000 1.0
C      1  0.4836760000000  0.5581320000000  0.4472040000000 1.0
C      1  0.4476580000000  0.4402020000000  0.5211570000000 1.0
C      1  0.5175620000000  0.5581840000000  0.5494340000000 1.0
C      1  0.5475090000000  0.4437620000000  0.4806840000000 1.0
C      1  0.5012320000000  0.4697310000000  0.4617600000000 1.0
C      1  0.4657080000000  0.5331930000000  0.4902670000000 1.0
C      1  0.4958260000000  0.4747580000000  0.5333520000000 1.0
C      1  0.5345860000000  0.5242100000000  0.4981120000000 1.0
C      1  0.4948770000000  0.5409470000000  0.5375270000000 1.0
C      1  0.5348420000000  0.4661050000000  0.4986070000000 1.0
C      1  0.5009630000000  0.5368240000000  0.4616550000000 1.0
C      1  0.4573950000000  0.4585600000000  0.4987030000000 1.0
C      1  0.4567220000000  0.5522400000000  0.4479980000000 1.0
C      1  0.4575210000000  0.4459370000000  0.5461780000000 1.0
C      1  0.5427070000000  0.5501140000000  0.5414120000000 1.0
C      1  0.5444110000000  0.4486830000000  0.4537890000000 1.0
END
