TITL C-1154821-8623-394 -0.00162732599028084 125000 -353.388636536107 0 0 60 (C1) n - 1
REM
REM in /home/nfs/bkarasulu/CARBON/AIRSS/Generating-Clusters/AIREBO/Higher-Symm/Only-C60
REM
REM
REM
REM
REM
REM ./C.cell (28575a23ae977d3b5fae324c64b13b57)
REM
REM compiler GCC version 9.2.1 20190827 (Red Hat 9.2.1-1)
REM options -cpp -mtune=generic -march=x86-64 -g -O0 -fpre-include=/usr/include/finclude/math-vector-fortran.h
REM seed -1306976825 -1116955754 -1958979067 -14995793 937214894 2028588952 -2080171123 765314597 -1442308644 1237921418 2055591671 677794904 -1085167747 -20090286 178880178 -2073793281 -418215363 1172479007 -918211807 212363345 -866281254 543516311 -147145790 -1533426060 -1864783214 -266451426 -1874388077 -1831532682 460728269 2073550265 1393575112 484880572 1042197798
REM
CELL 1.54180   50.00000   50.00000   50.00000   90.00000   90.00000   90.00000
LATT -1
SFAC C  
C      1  0.4707780000000  0.4576410000000  0.4329630000000 1.0
C      1  0.4586420000000  0.5142820000000  0.4330130000000 1.0
C      1  0.5007930000000  0.5540360000000  0.4335030000000 1.0
C      1  0.5447550000000  0.5151740000000  0.4356040000000 1.0
C      1  0.5266900000000  0.4579530000000  0.4314640000000 1.0
C      1  0.5324940000000  0.5516840000000  0.5356330000000 1.0
C      1  0.5578900000000  0.4856450000000  0.5337040000000 1.0
C      1  0.5039300000000  0.4388750000000  0.5344000000000 1.0
C      1  0.4463060000000  0.4799780000000  0.5332190000000 1.0
C      1  0.4593360000000  0.5487580000000  0.5396400000000 1.0
C      1  0.4741160000000  0.4444100000000  0.4866540000000 1.0
C      1  0.4436980000000  0.5093040000000  0.4889220000000 1.0
C      1  0.4894060000000  0.5591230000000  0.4898750000000 1.0
C      1  0.5498370000000  0.5283850000000  0.4892340000000 1.0
C      1  0.5415070000000  0.4606340000000  0.4885690000000 1.0
C      1  0.4991340000000  0.4404980000000  0.4412980000000 1.0
C      1  0.4586550000000  0.4859820000000  0.4473150000000 1.0
C      1  0.4759610000000  0.5385440000000  0.4459270000000 1.0
C      1  0.5298780000000  0.5433950000000  0.4465460000000 1.0
C      1  0.5477190000000  0.4822750000000  0.4446050000000 1.0
C      1  0.4672220000000  0.5389350000000  0.5644410000000 1.0
C      1  0.5269810000000  0.5432170000000  0.5618960000000 1.0
C      1  0.5494250000000  0.4883480000000  0.5604800000000 1.0
C      1  0.5048490000000  0.4498780000000  0.5603910000000 1.0
C      1  0.4544380000000  0.4819000000000  0.5600030000000 1.0
C      1  0.5102830000000  0.5170810000000  0.4446470000000 1.0
C      1  0.5167580000000  0.4882890000000  0.4403770000000 1.0
C      1  0.4952910000000  0.4712990000000  0.4521630000000 1.0
C      1  0.4808980000000  0.4880920000000  0.4730300000000 1.0
C      1  0.4889210000000  0.5180590000000  0.4686170000000 1.0
C      1  0.4459470000000  0.5384650000000  0.4887400000000 1.0
C      1  0.5176410000000  0.5650390000000  0.4903390000000 1.0
C      1  0.5649180000000  0.5031840000000  0.4877640000000 1.0
C      1  0.5230940000000  0.4376800000000  0.4882680000000 1.0
C      1  0.4471290000000  0.4596510000000  0.4887420000000 1.0
C      1  0.4806340000000  0.5211090000000  0.4986740000000 1.0
C      1  0.5059790000000  0.5276310000000  0.5178110000000 1.0
C      1  0.5224780000000  0.5007160000000  0.5228610000000 1.0
C      1  0.5044170000000  0.4753110000000  0.5179690000000 1.0
C      1  0.4783680000000  0.4813500000000  0.5010940000000 1.0
C      1  0.4846850000000  0.5187470000000  0.5738740000000 1.0
C      1  0.5137570000000  0.5215060000000  0.5747180000000 1.0
C      1  0.5254440000000  0.4943800000000  0.5748510000000 1.0
C      1  0.5032110000000  0.4751550000000  0.5734310000000 1.0
C      1  0.4782940000000  0.4904000000000  0.5726140000000 1.0
C      1  0.5209270000000  0.4259470000000  0.5150450000000 1.0
C      1  0.4363780000000  0.4597500000000  0.5157750000000 1.0
C      1  0.4415140000000  0.5500200000000  0.5150850000000 1.0
C      1  0.5269960000000  0.5728450000000  0.5168320000000 1.0
C      1  0.5760490000000  0.4967630000000  0.5141550000000 1.0
C      1  0.4813200000000  0.5487210000000  0.5185950000000 1.0
C      1  0.5388750000000  0.5276140000000  0.5169150000000 1.0
C      1  0.5364350000000  0.4716900000000  0.5158210000000 1.0
C      1  0.4813880000000  0.4515670000000  0.5172290000000 1.0
C      1  0.4587870000000  0.5013950000000  0.5157210000000 1.0
C      1  0.5365970000000  0.5489460000000  0.4750450000000 1.0
C      1  0.5554370000000  0.4794970000000  0.4732690000000 1.0
C      1  0.4980570000000  0.4373720000000  0.4730900000000 1.0
C      1  0.4412600000000  0.4846420000000  0.4738550000000 1.0
C      1  0.4673930000000  0.5512330000000  0.4736830000000 1.0
END
