TITL C-1154801-8518-412 -0.000104572351031902 125000 -357.410964383376 0 0 60 (C1) n - 1
REM
REM in /home/nfs/bkarasulu/CARBON/AIRSS/Generating-Clusters/AIREBO/Higher-Symm/Only-C60
REM
REM
REM
REM
REM
REM ./C.cell (28575a23ae977d3b5fae324c64b13b57)
REM
REM compiler GCC version 9.2.1 20190827 (Red Hat 9.2.1-1)
REM options -cpp -mtune=generic -march=x86-64 -g -O0 -fpre-include=/usr/include/finclude/math-vector-fortran.h
REM seed 1884319854 -1891703405 847732320 -535264726 1285633230 2062834891 1298113671 -1364521710 -296757398 823150446 -424596202 -1352281082 -100938012 -2142868768 2046667236 1799629501 -428448610 -1886040767 -825680242 -711280676 2025868049 476000358 1966975172 -1948946523 -1412771244 1729720681 -1299406407 -216851070 -1473527104 857740474 674769809 -689161367 550405550
REM
CELL 1.54180   50.00000   50.00000   50.00000   90.00000   90.00000   90.00000
LATT -1
SFAC C  
C      1  0.4351690000000  0.5432330000000  0.4885960000000 1.0
C      1  0.4431790000000  0.5159350000000  0.4503130000000 1.0
C      1  0.4375200000000  0.4716940000000  0.4658750000000 1.0
C      1  0.4411770000000  0.4591710000000  0.5144870000000 1.0
C      1  0.4519110000000  0.4851470000000  0.5537880000000 1.0
C      1  0.4397610000000  0.5283310000000  0.5364020000000 1.0
C      1  0.4259920000000  0.4633540000000  0.4906960000000 1.0
C      1  0.4297670000000  0.4912810000000  0.4475230000000 1.0
C      1  0.4279930000000  0.5365290000000  0.4623800000000 1.0
C      1  0.4240400000000  0.5365630000000  0.5140550000000 1.0
C      1  0.4370280000000  0.5089090000000  0.5564100000000 1.0
C      1  0.4376000000000  0.4640260000000  0.5418440000000 1.0
C      1  0.4839120000000  0.4881470000000  0.5466990000000 1.0
C      1  0.4664140000000  0.5367590000000  0.5345240000000 1.0
C      1  0.4625120000000  0.5502050000000  0.4900240000000 1.0
C      1  0.4716730000000  0.5145750000000  0.4577530000000 1.0
C      1  0.4654290000000  0.4669840000000  0.4644760000000 1.0
C      1  0.4681240000000  0.4539420000000  0.5091210000000 1.0
C      1  0.4874050000000  0.5214370000000  0.5452230000000 1.0
C      1  0.4881730000000  0.4602230000000  0.5277710000000 1.0
C      1  0.4739110000000  0.4475140000000  0.4825660000000 1.0
C      1  0.4833910000000  0.4879070000000  0.4573010000000 1.0
C      1  0.4812530000000  0.5386740000000  0.4715640000000 1.0
C      1  0.4712140000000  0.5568840000000  0.5157010000000 1.0
C      1  0.5621810000000  0.5377340000000  0.5092230000000 1.0
C      1  0.5550040000000  0.5320930000000  0.4607290000000 1.0
C      1  0.5679860000000  0.4872070000000  0.4528910000000 1.0
C      1  0.5666040000000  0.4584920000000  0.4937450000000 1.0
C      1  0.5498370000000  0.4636350000000  0.5407520000000 1.0
C      1  0.5481540000000  0.5097160000000  0.5485690000000 1.0
C      1  0.5516120000000  0.4516860000000  0.5160210000000 1.0
C      1  0.5574390000000  0.4673920000000  0.4691360000000 1.0
C      1  0.5516280000000  0.5089030000000  0.4459990000000 1.0
C      1  0.5499290000000  0.5438990000000  0.4850040000000 1.0
C      1  0.5494730000000  0.5324900000000  0.5333320000000 1.0
C      1  0.5365300000000  0.4848750000000  0.5529220000000 1.0
C      1  0.5379730000000  0.4367820000000  0.4370180000000 1.0
C      1  0.5369100000000  0.4056160000000  0.5120890000000 1.0
C      1  0.5067920000000  0.4743580000000  0.5902110000000 1.0
C      1  0.5401010000000  0.5739990000000  0.5568230000000 1.0
C      1  0.5355510000000  0.5898050000000  0.4787910000000 1.0
C      1  0.5175710000000  0.5151650000000  0.4110980000000 1.0
C      1  0.5097300000000  0.5603620000000  0.4401790000000 1.0
C      1  0.4921370000000  0.5745550000000  0.5186250000000 1.0
C      1  0.5101220000000  0.5378240000000  0.5843190000000 1.0
C      1  0.5071570000000  0.4244000000000  0.5537220000000 1.0
C      1  0.4942680000000  0.4300700000000  0.4766810000000 1.0
C      1  0.5081310000000  0.4711820000000  0.4169320000000 1.0
C      1  0.5109190000000  0.4783780000000  0.4460250000000 1.0
C      1  0.5191720000000  0.4387160000000  0.4815170000000 1.0
C      1  0.5074300000000  0.4400520000000  0.5309580000000 1.0
C      1  0.5080740000000  0.5365890000000  0.5567940000000 1.0
C      1  0.5168410000000  0.5645770000000  0.5154290000000 1.0
C      1  0.5049720000000  0.5533820000000  0.4666150000000 1.0
C      1  0.5277850000000  0.5021250000000  0.4329260000000 1.0
C      1  0.5270650000000  0.5636420000000  0.4865580000000 1.0
C      1  0.5291520000000  0.5532500000000  0.5408320000000 1.0
C      1  0.5103390000000  0.4820430000000  0.5640260000000 1.0
C      1  0.5291440000000  0.4328690000000  0.5097850000000 1.0
C      1  0.5317400000000  0.4547150000000  0.4586330000000 1.0
END
