TITL C-1154824-75-664 -0.00137626512470371 125000 -334.309637201276 0 0 60 (C1) n - 1
REM
REM in /home/nfs/bkarasulu/CARBON/AIRSS/Generating-Clusters/AIREBO/Higher-Symm/Only-C60
REM
REM
REM
REM
REM
REM ./C.cell (28575a23ae977d3b5fae324c64b13b57)
REM
REM compiler GCC version 9.2.1 20190827 (Red Hat 9.2.1-1)
REM options -cpp -mtune=generic -march=x86-64 -g -O0 -fpre-include=/usr/include/finclude/math-vector-fortran.h
REM seed 186198061 733280584 1707718938 -157452533 -493321885 2142714773 -167776437 -1345327765 -35766145 -2120423828 1211274949 -1930591915 -1196933892 1512995067 1095374324 100882736 2119346151 1449056785 -1742916053 1840100852 1508129432 1421202042 -197784231 -969151573 -950748100 -1853342148 1281703314 -1639410643 1275238289 1624444818 -1761365116 -709857264 370408204
REM
CELL 1.54180   50.00000   50.00000   50.00000   90.00000   90.00000   90.00000
LATT -1
SFAC C  
C      1  0.4432570000000  0.5227260000000  0.5124520000000 1.0
C      1  0.5400760000000  0.5237990000000  0.5439880000000 1.0
C      1  0.5172640000000  0.5246600000000  0.4426380000000 1.0
C      1  0.5074540000000  0.4938230000000  0.5603630000000 1.0
C      1  0.5443490000000  0.4927210000000  0.4649400000000 1.0
C      1  0.4471090000000  0.4936620000000  0.4758420000000 1.0
C      1  0.4363090000000  0.4713590000000  0.4992380000000 1.0
C      1  0.5335460000000  0.4719850000000  0.5610400000000 1.0
C      1  0.5356840000000  0.4725710000000  0.4389470000000 1.0
C      1  0.4575670000000  0.5282450000000  0.4429250000000 1.0
C      1  0.4718450000000  0.5257840000000  0.5631880000000 1.0
C      1  0.5680240000000  0.5254090000000  0.4922610000000 1.0
C      1  0.5566140000000  0.4724060000000  0.5158440000000 1.0
C      1  0.4855310000000  0.4728120000000  0.4415080000000 1.0
C      1  0.4565760000000  0.4732070000000  0.5449920000000 1.0
C      1  0.5537400000000  0.5213900000000  0.4682570000000 1.0
C      1  0.4451430000000  0.5225740000000  0.4678910000000 1.0
C      1  0.4998510000000  0.5224740000000  0.5642840000000 1.0
C      1  0.5146760000000  0.5436050000000  0.5451610000000 1.0
C      1  0.5305500000000  0.5434740000000  0.4651630000000 1.0
C      1  0.4543720000000  0.5434840000000  0.4905390000000 1.0
C      1  0.4993030000000  0.4577560000000  0.4758120000000 1.0
C      1  0.4872770000000  0.4569240000000  0.5076200000000 1.0
C      1  0.5208600000000  0.4549520000000  0.5126280000000 1.0
C      1  0.4750130000000  0.4852970000000  0.4934080000000 1.0
C      1  0.5093140000000  0.4829990000000  0.5281800000000 1.0
C      1  0.5159570000000  0.4873760000000  0.4813030000000 1.0
C      1  0.5462010000000  0.5031370000000  0.5613310000000 1.0
C      1  0.5298300000000  0.5038980000000  0.4294880000000 1.0
C      1  0.4261100000000  0.5013900000000  0.5088710000000 1.0
C      1  0.4884930000000  0.4729750000000  0.5787350000000 1.0
C      1  0.5684370000000  0.4706560000000  0.4708980000000 1.0
C      1  0.4399500000000  0.4719010000000  0.4507190000000 1.0
C      1  0.4654560000000  0.5186710000000  0.5325800000000 1.0
C      1  0.5457730000000  0.5194490000000  0.5145640000000 1.0
C      1  0.4880790000000  0.5210880000000  0.4506720000000 1.0
C      1  0.5137460000000  0.5865460000000  0.5126130000000 1.0
C      1  0.5033370000000  0.5868070000000  0.4823270000000 1.0
C      1  0.4822840000000  0.5865520000000  0.5065170000000 1.0
C      1  0.4712150000000  0.5612120000000  0.5112810000000 1.0
C      1  0.5235630000000  0.5612630000000  0.5197050000000 1.0
C      1  0.5046490000000  0.5617510000000  0.4698560000000 1.0
C      1  0.5098540000000  0.4556140000000  0.4441170000000 1.0
C      1  0.4553710000000  0.4586850000000  0.5192460000000 1.0
C      1  0.5437750000000  0.4560830000000  0.5371280000000 1.0
C      1  0.4813960000000  0.5453640000000  0.4699720000000 1.0
C      1  0.4842310000000  0.5441670000000  0.5299940000000 1.0
C      1  0.5335230000000  0.5443090000000  0.4990550000000 1.0
C      1  0.4691510000000  0.4424610000000  0.4752480000000 1.0
C      1  0.4926980000000  0.4449140000000  0.5389800000000 1.0
C      1  0.5334960000000  0.4402140000000  0.4867190000000 1.0
C      1  0.4612240000000  0.4736340000000  0.5722480000000 1.0
C      1  0.5772870000000  0.4704530000000  0.4974140000000 1.0
C      1  0.4598090000000  0.4705720000000  0.4309890000000 1.0
C      1  0.4443760000000  0.4540000000000  0.4739520000000 1.0
C      1  0.5049490000000  0.4541870000000  0.5616530000000 1.0
C      1  0.5445390000000  0.4527550000000  0.4651180000000 1.0
C      1  0.4774960000000  0.4913310000000  0.5253830000000 1.0
C      1  0.5339620000000  0.4924260000000  0.5087740000000 1.0
C      1  0.4884810000000  0.4940630000000  0.4634420000000 1.0
END
