TITL C-1154827-9204-38 0.00116144479142465 125000 -349.915045848501 0 0 60 (C1) n - 1
REM
REM in /home/nfs/bkarasulu/CARBON/AIRSS/Generating-Clusters/AIREBO/Higher-Symm/Only-C60
REM
REM
REM
REM
REM
REM ./C.cell (28575a23ae977d3b5fae324c64b13b57)
REM
REM compiler GCC version 9.2.1 20190827 (Red Hat 9.2.1-1)
REM options -cpp -mtune=generic -march=x86-64 -g -O0 -fpre-include=/usr/include/finclude/math-vector-fortran.h
REM seed -1261105990 -1845495668 -993813439 -1753246237 -1082867527 -1195463390 -680312507 1937276538 -1508111605 1969064553 -1163208234 547660753 -2073844391 989261991 -1367062468 1101652621 1541588007 -457098087 1024449513 -1331755743 482872056 -1452056379 -1780725707 -485504738 -1876841326 1669164125 1948984468 -308968824 2055823406 112038555 865677270 -713894937 1638368643
REM
CELL 1.54180   50.00000   50.00000   50.00000   90.00000   90.00000   90.00000
LATT -1
SFAC C  
C      1  0.5382630000000  0.4297640000000  0.5352820000000 1.0
C      1  0.5208200000000  0.4465010000000  0.4350320000000 1.0
C      1  0.4502750000000  0.4517020000000  0.5095190000000 1.0
C      1  0.4656670000000  0.4500130000000  0.5363630000000 1.0
C      1  0.5008170000000  0.4344250000000  0.4457440000000 1.0
C      1  0.5500160000000  0.4302620000000  0.5103950000000 1.0
C      1  0.4837690000000  0.5306170000000  0.4406310000000 1.0
C      1  0.4571580000000  0.5361270000000  0.5447050000000 1.0
C      1  0.5550530000000  0.5278110000000  0.5145160000000 1.0
C      1  0.5123490000000  0.5326610000000  0.4302890000000 1.0
C      1  0.5420410000000  0.5279050000000  0.5395560000000 1.0
C      1  0.4437880000000  0.5334810000000  0.5194170000000 1.0
C      1  0.5285520000000  0.5019120000000  0.4994870000000 1.0
C      1  0.4830840000000  0.5040070000000  0.4772380000000 1.0
C      1  0.4837370000000  0.4939770000000  0.5275080000000 1.0
C      1  0.4667480000000  0.5005550000000  0.5037990000000 1.0
C      1  0.5118420000000  0.4917670000000  0.4755950000000 1.0
C      1  0.5127850000000  0.5037010000000  0.5271530000000 1.0
C      1  0.4858820000000  0.4854760000000  0.4282930000000 1.0
C      1  0.4375940000000  0.4912090000000  0.5534380000000 1.0
C      1  0.5708980000000  0.4833880000000  0.5259210000000 1.0
C      1  0.5127470000000  0.4922960000000  0.4269880000000 1.0
C      1  0.5561490000000  0.4824650000000  0.5495090000000 1.0
C      1  0.4228370000000  0.4908630000000  0.5296570000000 1.0
C      1  0.5425580000000  0.4510060000000  0.4933370000000 1.0
C      1  0.4882580000000  0.4502660000000  0.4717780000000 1.0
C      1  0.4928790000000  0.4405740000000  0.5264630000000 1.0
C      1  0.4776460000000  0.4429570000000  0.4990920000000 1.0
C      1  0.5221370000000  0.4518130000000  0.4746410000000 1.0
C      1  0.5166810000000  0.4473190000000  0.5390160000000 1.0
C      1  0.4241820000000  0.5147570000000  0.5101110000000 1.0
C      1  0.5417150000000  0.5075670000000  0.5597670000000 1.0
C      1  0.5348830000000  0.5134740000000  0.4410610000000 1.0
C      1  0.5753370000000  0.5090760000000  0.5073700000000 1.0
C      1  0.4571610000000  0.5132910000000  0.5619070000000 1.0
C      1  0.4673370000000  0.5077880000000  0.4356540000000 1.0
C      1  0.5114210000000  0.5640720000000  0.5207230000000 1.0
C      1  0.5094850000000  0.5730570000000  0.4713210000000 1.0
C      1  0.4704480000000  0.5653180000000  0.4963890000000 1.0
C      1  0.4824090000000  0.5720950000000  0.5212820000000 1.0
C      1  0.4820070000000  0.5785050000000  0.4744120000000 1.0
C      1  0.5234270000000  0.5626630000000  0.4959070000000 1.0
C      1  0.4414120000000  0.4794930000000  0.5046560000000 1.0
C      1  0.5231400000000  0.4761380000000  0.5442200000000 1.0
C      1  0.5288040000000  0.4754000000000  0.4510760000000 1.0
C      1  0.5516460000000  0.4782640000000  0.5000610000000 1.0
C      1  0.4676900000000  0.4772150000000  0.5490480000000 1.0
C      1  0.4759980000000  0.4771600000000  0.4597080000000 1.0
C      1  0.4643510000000  0.5336530000000  0.4963440000000 1.0
C      1  0.5122850000000  0.5362270000000  0.5372010000000 1.0
C      1  0.5171010000000  0.5419200000000  0.4626730000000 1.0
C      1  0.5356490000000  0.5336140000000  0.4901130000000 1.0
C      1  0.4815760000000  0.5499790000000  0.5427240000000 1.0
C      1  0.4847450000000  0.5365090000000  0.4714190000000 1.0
C      1  0.4842710000000  0.4992240000000  0.5690420000000 1.0
C      1  0.5687750000000  0.4953540000000  0.4775520000000 1.0
C      1  0.4486380000000  0.4973980000000  0.4581170000000 1.0
C      1  0.5114420000000  0.4981930000000  0.5667130000000 1.0
C      1  0.4329510000000  0.5006280000000  0.4804100000000 1.0
C      1  0.5566820000000  0.4951410000000  0.4526610000000 1.0
END
