TITL C-1154808-8168-334 -0.00357739356624766 125000 -334.380607609314 0 0 60 (C1) n - 1
REM
REM in /home/nfs/bkarasulu/CARBON/AIRSS/Generating-Clusters/AIREBO/Higher-Symm/Only-C60
REM
REM
REM
REM
REM
REM ./C.cell (28575a23ae977d3b5fae324c64b13b57)
REM
REM compiler GCC version 9.2.1 20190827 (Red Hat 9.2.1-1)
REM options -cpp -mtune=generic -march=x86-64 -g -O0 -fpre-include=/usr/include/finclude/math-vector-fortran.h
REM seed 1326057241 615164911 -1418975619 1977360824 1449638971 921595084 297727367 1361822727 -930880118 -2027069573 1450852367 -1850178055 1144714952 -2080426 1902872901 2027913996 1355654308 1452146886 362822307 1072618246 -2077675283 -2059679104 1681317872 100314988 392469408 1818654437 -366148372 -596562951 -234874041 -1573066400 -55495911 590198658 -1837294292
REM
CELL 1.54180   50.00000   50.00000   50.00000   90.00000   90.00000   90.00000
LATT -1
SFAC C  
C      1  0.5238070000000  0.5238030000000  0.4977470000000 1.0
C      1  0.4712390000000  0.4810750000000  0.4933480000000 1.0
C      1  0.5208840000000  0.4802220000000  0.4972830000000 1.0
C      1  0.4690500000000  0.5258600000000  0.4944730000000 1.0
C      1  0.5281870000000  0.4524650000000  0.4562810000000 1.0
C      1  0.4700420000000  0.5460230000000  0.4462860000000 1.0
C      1  0.5256710000000  0.5485240000000  0.4503750000000 1.0
C      1  0.4652230000000  0.4539760000000  0.4521410000000 1.0
C      1  0.4945710000000  0.5234100000000  0.5758610000000 1.0
C      1  0.5024640000000  0.4698470000000  0.5774840000000 1.0
C      1  0.4789050000000  0.4731180000000  0.5620970000000 1.0
C      1  0.5197110000000  0.5219210000000  0.5644850000000 1.0
C      1  0.5358420000000  0.5278000000000  0.4339880000000 1.0
C      1  0.4622070000000  0.4709140000000  0.4298190000000 1.0
C      1  0.5352400000000  0.4691290000000  0.4342610000000 1.0
C      1  0.4641040000000  0.5261510000000  0.4250720000000 1.0
C      1  0.5381190000000  0.4635560000000  0.5211820000000 1.0
C      1  0.4676680000000  0.5438240000000  0.5200980000000 1.0
C      1  0.5389160000000  0.5403580000000  0.5219600000000 1.0
C      1  0.4658720000000  0.4562320000000  0.5142280000000 1.0
C      1  0.4506270000000  0.4639580000000  0.4738950000000 1.0
C      1  0.5383300000000  0.5491250000000  0.4779130000000 1.0
C      1  0.4540200000000  0.5424690000000  0.4688380000000 1.0
C      1  0.5415550000000  0.4616910000000  0.4791340000000 1.0
C      1  0.4331830000000  0.5214650000000  0.4774140000000 1.0
C      1  0.5691240000000  0.4685520000000  0.4812880000000 1.0
C      1  0.4237650000000  0.4686140000000  0.4809900000000 1.0
C      1  0.5595230000000  0.5236000000000  0.4806060000000 1.0
C      1  0.4211640000000  0.4842620000000  0.5045600000000 1.0
C      1  0.5757590000000  0.5149640000000  0.5018090000000 1.0
C      1  0.4232640000000  0.5143070000000  0.5024740000000 1.0
C      1  0.5776230000000  0.4851650000000  0.5028530000000 1.0
C      1  0.4798340000000  0.4526260000000  0.5422780000000 1.0
C      1  0.5227090000000  0.5444000000000  0.5482660000000 1.0
C      1  0.4723980000000  0.5338890000000  0.5523080000000 1.0
C      1  0.5252280000000  0.4655140000000  0.5560160000000 1.0
C      1  0.5638940000000  0.5237550000000  0.5270170000000 1.0
C      1  0.4414320000000  0.4768820000000  0.5235630000000 1.0
C      1  0.5638350000000  0.4771400000000  0.5268210000000 1.0
C      1  0.4412710000000  0.5230250000000  0.5237510000000 1.0
C      1  0.5146710000000  0.4431320000000  0.5108280000000 1.0
C      1  0.4944080000000  0.5645570000000  0.5155320000000 1.0
C      1  0.5208850000000  0.5627390000000  0.5037790000000 1.0
C      1  0.4920670000000  0.4470500000000  0.4945250000000 1.0
C      1  0.4980710000000  0.4767040000000  0.4463680000000 1.0
C      1  0.4982090000000  0.5130080000000  0.4625380000000 1.0
C      1  0.4977610000000  0.5438860000000  0.4533990000000 1.0
C      1  0.4954690000000  0.4488230000000  0.4632460000000 1.0
C      1  0.5074020000000  0.4457770000000  0.5393240000000 1.0
C      1  0.4972040000000  0.5555740000000  0.5438930000000 1.0
C      1  0.4765990000000  0.5003180000000  0.5488830000000 1.0
C      1  0.5281120000000  0.4965750000000  0.5486900000000 1.0
C      1  0.5245440000000  0.4991810000000  0.4460520000000 1.0
C      1  0.4737830000000  0.5002060000000  0.4426350000000 1.0
C      1  0.5367900000000  0.5012210000000  0.4758910000000 1.0
C      1  0.4591430000000  0.5029450000000  0.4713810000000 1.0
C      1  0.4491160000000  0.4998680000000  0.5370640000000 1.0
C      1  0.5574160000000  0.5004200000000  0.5417020000000 1.0
C      1  0.4962490000000  0.5040340000000  0.4953010000000 1.0
C      1  0.5011420000000  0.5028450000000  0.5289490000000 1.0
END
