TITL C-1154825-9328-101 0.00237170437073702 125000 -336.444321543954 0 0 60 (C1) n - 1
REM
REM in /home/nfs/bkarasulu/CARBON/AIRSS/Generating-Clusters/AIREBO/Higher-Symm/Only-C60
REM
REM
REM
REM
REM
REM ./C.cell (28575a23ae977d3b5fae324c64b13b57)
REM
REM compiler GCC version 9.2.1 20190827 (Red Hat 9.2.1-1)
REM options -cpp -mtune=generic -march=x86-64 -g -O0 -fpre-include=/usr/include/finclude/math-vector-fortran.h
REM seed -1293369155 870333143 463537829 617552853 2101525485 -16802524 1799265129 1183443370 1063391089 -365604955 -2101291584 2101285501 38923808 678286959 272021182 -405093834 -691426238 744432655 1101615606 1957656820 1212930219 1946026716 1649869410 1770543207 1132700173 964572888 122590305 -1575735701 1410680122 509097324 -1817704063 -732360300 1480864154
REM
CELL 1.54180   50.00000   50.00000   50.00000   90.00000   90.00000   90.00000
LATT -1
SFAC C  
C      1  0.5197320000000  0.5448800000000  0.4662000000000 1.0
C      1  0.5400090000000  0.4897430000000  0.4786440000000 1.0
C      1  0.5273640000000  0.4598920000000  0.4683870000000 1.0
C      1  0.4951470000000  0.4573640000000  0.4765910000000 1.0
C      1  0.4543780000000  0.4813430000000  0.4764800000000 1.0
C      1  0.4616780000000  0.5305520000000  0.4743380000000 1.0
C      1  0.4896600000000  0.5496900000000  0.4791920000000 1.0
C      1  0.4683620000000  0.5152510000000  0.4474710000000 1.0
C      1  0.4877460000000  0.5262930000000  0.4312230000000 1.0
C      1  0.5199630000000  0.5265410000000  0.4420930000000 1.0
C      1  0.5462020000000  0.5060390000000  0.4494410000000 1.0
C      1  0.5115040000000  0.4663490000000  0.4413160000000 1.0
C      1  0.4816550000000  0.4653660000000  0.4470170000000 1.0
C      1  0.4645200000000  0.4874170000000  0.4513300000000 1.0
C      1  0.5184040000000  0.4463930000000  0.5434210000000 1.0
C      1  0.4730000000000  0.4546910000000  0.5369880000000 1.0
C      1  0.4464600000000  0.4944840000000  0.5367530000000 1.0
C      1  0.4651280000000  0.5402360000000  0.5323870000000 1.0
C      1  0.5113610000000  0.5529450000000  0.5385290000000 1.0
C      1  0.5495080000000  0.5291890000000  0.5416430000000 1.0
C      1  0.5520920000000  0.4830780000000  0.5418030000000 1.0
C      1  0.4739360000000  0.5242020000000  0.5054140000000 1.0
C      1  0.5034080000000  0.5407970000000  0.5090180000000 1.0
C      1  0.5271020000000  0.5201690000000  0.5220410000000 1.0
C      1  0.5372350000000  0.4919270000000  0.5125030000000 1.0
C      1  0.5181290000000  0.4704020000000  0.5259320000000 1.0
C      1  0.4766170000000  0.4638160000000  0.5044320000000 1.0
C      1  0.4599860000000  0.4932880000000  0.5078200000000 1.0
C      1  0.5220310000000  0.4242790000000  0.5260690000000 1.0
C      1  0.4560880000000  0.4326600000000  0.5258340000000 1.0
C      1  0.4199090000000  0.4903140000000  0.5260910000000 1.0
C      1  0.4610350000000  0.5678810000000  0.5266880000000 1.0
C      1  0.5277900000000  0.5749210000000  0.5287480000000 1.0
C      1  0.5691800000000  0.5389370000000  0.5230620000000 1.0
C      1  0.5734460000000  0.4698810000000  0.5269290000000 1.0
C      1  0.5408960000000  0.5538430000000  0.4839110000000 1.0
C      1  0.5695730000000  0.5029140000000  0.4877150000000 1.0
C      1  0.5477620000000  0.4489030000000  0.4895290000000 1.0
C      1  0.4863220000000  0.4287400000000  0.4885210000000 1.0
C      1  0.4363910000000  0.4587380000000  0.4879150000000 1.0
C      1  0.4335220000000  0.5142530000000  0.4844770000000 1.0
C      1  0.4974570000000  0.5770170000000  0.4931920000000 1.0
C      1  0.4763100000000  0.5851140000000  0.5107120000000 1.0
C      1  0.5260460000000  0.5758060000000  0.5000440000000 1.0
C      1  0.5625220000000  0.5330680000000  0.4951230000000 1.0
C      1  0.5684460000000  0.4703070000000  0.4985630000000 1.0
C      1  0.5191900000000  0.4322000000000  0.4975340000000 1.0
C      1  0.4534030000000  0.4328560000000  0.4961430000000 1.0
C      1  0.4215720000000  0.4878630000000  0.4974730000000 1.0
C      1  0.5048730000000  0.5332620000000  0.5581710000000 1.0
C      1  0.5287040000000  0.5176950000000  0.5619270000000 1.0
C      1  0.5323690000000  0.4891910000000  0.5624430000000 1.0
C      1  0.5110590000000  0.4689650000000  0.5650450000000 1.0
C      1  0.4829860000000  0.4738850000000  0.5564970000000 1.0
C      1  0.4672240000000  0.4980910000000  0.5562250000000 1.0
C      1  0.4774000000000  0.5251320000000  0.5547600000000 1.0
C      1  0.5082700000000  0.4951320000000  0.4446640000000 1.0
C      1  0.4983540000000  0.4826520000000  0.5115140000000 1.0
C      1  0.4974090000000  0.5039560000000  0.4955040000000 1.0
C      1  0.5121860000000  0.5031680000000  0.4735430000000 1.0
END
