TITL C-1154824-75-50 -0.000275855593795426 125000 -326.782546329652 0 0 60 (C1) n - 1
REM
REM in /home/nfs/bkarasulu/CARBON/AIRSS/Generating-Clusters/AIREBO/Higher-Symm/Only-C60
REM
REM
REM
REM
REM
REM ./C.cell (28575a23ae977d3b5fae324c64b13b57)
REM
REM compiler GCC version 9.2.1 20190827 (Red Hat 9.2.1-1)
REM options -cpp -mtune=generic -march=x86-64 -g -O0 -fpre-include=/usr/include/finclude/math-vector-fortran.h
REM seed 2098983424 -1698795308 -1010253058 1474204525 -1819901606 -55802391 -686567947 -790825795 -1174880715 -696451202 -352248148 -1267654565 -869047959 1932021010 -153209265 845685933 -560163580 1436329392 -348431625 2052081683 -1668707080 -441038512 -2037752629 -1301374649 -1547044753 161903467 279591895 -201110972 360894753 -459079152 -216564008 503677729 -1264594821
REM
CELL 1.54180   50.00000   50.00000   50.00000   90.00000   90.00000   90.00000
LATT -1
SFAC C  
C      1  0.4519080000000  0.5247960000000  0.4414550000000 1.0
C      1  0.5052290000000  0.5125290000000  0.4285070000000 1.0
C      1  0.5698610000000  0.4617370000000  0.5469370000000 1.0
C      1  0.4882300000000  0.4962000000000  0.4202990000000 1.0
C      1  0.5432330000000  0.5424730000000  0.4966290000000 1.0
C      1  0.5612030000000  0.4905980000000  0.5515190000000 1.0
C      1  0.4818260000000  0.4755090000000  0.5475070000000 1.0
C      1  0.4497620000000  0.4658320000000  0.4607200000000 1.0
C      1  0.4903370000000  0.5318350000000  0.5439430000000 1.0
C      1  0.5646020000000  0.5355320000000  0.4719170000000 1.0
C      1  0.5180750000000  0.4478780000000  0.4663840000000 1.0
C      1  0.5025420000000  0.5683980000000  0.4792420000000 1.0
C      1  0.5300580000000  0.4925810000000  0.5267520000000 1.0
C      1  0.5218220000000  0.5301430000000  0.5373700000000 1.0
C      1  0.4450490000000  0.5074790000000  0.5489160000000 1.0
C      1  0.4721870000000  0.5443190000000  0.5180430000000 1.0
C      1  0.5062010000000  0.5124510000000  0.5128790000000 1.0
C      1  0.5488880000000  0.5219710000000  0.5467200000000 1.0
C      1  0.5936200000000  0.5135210000000  0.5039090000000 1.0
C      1  0.4133960000000  0.4505500000000  0.4916470000000 1.0
C      1  0.5778580000000  0.5122510000000  0.5318060000000 1.0
C      1  0.4896490000000  0.4907100000000  0.4807840000000 1.0
C      1  0.5389360000000  0.5437930000000  0.4570590000000 1.0
C      1  0.5291650000000  0.4902500000000  0.5608970000000 1.0
C      1  0.4246200000000  0.4725090000000  0.4781390000000 1.0
C      1  0.4712300000000  0.4722570000000  0.4361400000000 1.0
C      1  0.4342840000000  0.4822060000000  0.5509940000000 1.0
C      1  0.5526060000000  0.4469490000000  0.5355100000000 1.0
C      1  0.4569890000000  0.5139050000000  0.5192870000000 1.0
C      1  0.5626500000000  0.4820970000000  0.4805200000000 1.0
C      1  0.5251050000000  0.5516340000000  0.5158350000000 1.0
C      1  0.4691990000000  0.4998230000000  0.4551870000000 1.0
C      1  0.4769640000000  0.5077580000000  0.5571990000000 1.0
C      1  0.4959340000000  0.4588550000000  0.4513630000000 1.0
C      1  0.4474740000000  0.5181970000000  0.4736150000000 1.0
C      1  0.5027030000000  0.4722720000000  0.5061970000000 1.0
C      1  0.4986600000000  0.4496190000000  0.5387170000000 1.0
C      1  0.4683070000000  0.5476970000000  0.4384310000000 1.0
C      1  0.5398640000000  0.5124610000000  0.4922720000000 1.0
C      1  0.4386160000000  0.4983790000000  0.4951940000000 1.0
C      1  0.5036500000000  0.4897250000000  0.5693770000000 1.0
C      1  0.5778510000000  0.5101950000000  0.4800330000000 1.0
C      1  0.5261400000000  0.4600990000000  0.5279630000000 1.0
C      1  0.5384850000000  0.4683670000000  0.4696220000000 1.0
C      1  0.4315380000000  0.4352650000000  0.5058450000000 1.0
C      1  0.5178800000000  0.5218850000000  0.4552690000000 1.0
C      1  0.4524180000000  0.4633730000000  0.5428210000000 1.0
C      1  0.4544950000000  0.5647950000000  0.5301580000000 1.0
C      1  0.5270910000000  0.5689840000000  0.4644930000000 1.0
C      1  0.5581030000000  0.4955160000000  0.5117340000000 1.0
C      1  0.4620300000000  0.4739970000000  0.4915110000000 1.0
C      1  0.4615170000000  0.5417090000000  0.4866500000000 1.0
C      1  0.4814030000000  0.4947800000000  0.5196530000000 1.0
C      1  0.5024460000000  0.4426040000000  0.4909300000000 1.0
C      1  0.5225720000000  0.4949320000000  0.4733740000000 1.0
C      1  0.4856030000000  0.4374950000000  0.5156990000000 1.0
C      1  0.4574110000000  0.4507940000000  0.5139190000000 1.0
C      1  0.4972660000000  0.5244330000000  0.4821980000000 1.0
C      1  0.4826160000000  0.5504750000000  0.4658910000000 1.0
C      1  0.5006420000000  0.5606230000000  0.5064180000000 1.0
END
