TITL C-1154808-8168-291 -1370.16236533694 125000 -334.149962966049 0 0 60 (C1) n - 1
REM
REM in /home/nfs/bkarasulu/CARBON/AIRSS/Generating-Clusters/AIREBO/Higher-Symm/Only-C60
REM
REM
REM
REM
REM
REM ./C.cell (28575a23ae977d3b5fae324c64b13b57)
REM
REM compiler GCC version 9.2.1 20190827 (Red Hat 9.2.1-1)
REM options -cpp -mtune=generic -march=x86-64 -g -O0 -fpre-include=/usr/include/finclude/math-vector-fortran.h
REM seed 830829637 464791745 -1312609151 782756611 854954157 -722340330 -1566860686 -1760025251 -2052112553 491742171 476436606 1978237664 460128649 1422539135 -505969577 -1247863230 1251315017 -455680456 -560102437 568302997 1632250061 632560259 -1487472066 -879773303 -1823998573 -1953886077 910850 2031244150 -883232642 841763811 -374852187 -1389299532 -1329237794
REM
CELL 1.54180   50.00000   50.00000   50.00000   90.00000   90.00000   90.00000
LATT -1
SFAC C  
C      1  0.4647100000000  0.4967090000000  0.4322280000000 1.0
C      1  0.4658450000000  0.5057810000000  0.5670390000000 1.0
C      1  0.5336230000000  0.4933720000000  0.4327140000000 1.0
C      1  0.5346060000000  0.5031010000000  0.5681370000000 1.0
C      1  0.4490540000000  0.4824900000000  0.5256430000000 1.0
C      1  0.4485100000000  0.5186240000000  0.4736820000000 1.0
C      1  0.5516760000000  0.4821910000000  0.5265030000000 1.0
C      1  0.5508000000000  0.5174410000000  0.4735040000000 1.0
C      1  0.4512110000000  0.5467280000000  0.4548850000000 1.0
C      1  0.4536660000000  0.4536580000000  0.5436410000000 1.0
C      1  0.5464880000000  0.5459140000000  0.4547660000000 1.0
C      1  0.5489090000000  0.4536120000000  0.5447130000000 1.0
C      1  0.4868340000000  0.4510260000000  0.5506690000000 1.0
C      1  0.4818240000000  0.5545010000000  0.4422830000000 1.0
C      1  0.5181990000000  0.4453870000000  0.5567820000000 1.0
C      1  0.5132520000000  0.5486930000000  0.4481320000000 1.0
C      1  0.4702640000000  0.4449120000000  0.4961920000000 1.0
C      1  0.4699540000000  0.5578980000000  0.5007590000000 1.0
C      1  0.5311540000000  0.4422000000000  0.5003020000000 1.0
C      1  0.5310870000000  0.5542310000000  0.5054430000000 1.0
C      1  0.4334780000000  0.4704300000000  0.4662230000000 1.0
C      1  0.4328430000000  0.5304740000000  0.5328550000000 1.0
C      1  0.5674800000000  0.4697660000000  0.4668290000000 1.0
C      1  0.5646550000000  0.5312010000000  0.5343600000000 1.0
C      1  0.5138680000000  0.5163460000000  0.4585950000000 1.0
C      1  0.5164590000000  0.4769110000000  0.5441630000000 1.0
C      1  0.4834840000000  0.5231730000000  0.4553930000000 1.0
C      1  0.4859280000000  0.4835400000000  0.5407620000000 1.0
C      1  0.5471480000000  0.5084130000000  0.5414970000000 1.0
C      1  0.5478980000000  0.4904830000000  0.4592620000000 1.0
C      1  0.4519810000000  0.5092400000000  0.5403820000000 1.0
C      1  0.4521020000000  0.4921760000000  0.4590300000000 1.0
C      1  0.5322400000000  0.5253690000000  0.4314440000000 1.0
C      1  0.5359080000000  0.4711250000000  0.5714450000000 1.0
C      1  0.4637290000000  0.5286760000000  0.4282720000000 1.0
C      1  0.4674290000000  0.4738210000000  0.5675850000000 1.0
C      1  0.4826710000000  0.4985270000000  0.4788020000000 1.0
C      1  0.4812710000000  0.5049070000000  0.5182450000000 1.0
C      1  0.5185710000000  0.4951660000000  0.4813610000000 1.0
C      1  0.5172670000000  0.5016940000000  0.5209000000000 1.0
C      1  0.5722780000000  0.5452520000000  0.5148340000000 1.0
C      1  0.5765220000000  0.4568140000000  0.4866910000000 1.0
C      1  0.4245150000000  0.5442070000000  0.5132820000000 1.0
C      1  0.4253600000000  0.4564490000000  0.4857070000000 1.0
C      1  0.5138760000000  0.5709240000000  0.5156970000000 1.0
C      1  0.5138360000000  0.4243840000000  0.4923320000000 1.0
C      1  0.4876530000000  0.5747340000000  0.5099640000000 1.0
C      1  0.4874980000000  0.4277160000000  0.4869710000000 1.0
C      1  0.5279170000000  0.5233290000000  0.4979590000000 1.0
C      1  0.5272820000000  0.4737080000000  0.5043800000000 1.0
C      1  0.4732350000000  0.5265210000000  0.4956500000000 1.0
C      1  0.4726410000000  0.4763550000000  0.5019250000000 1.0
C      1  0.4866580000000  0.5185800000000  0.5786910000000 1.0
C      1  0.4851650000000  0.4829930000000  0.4209880000000 1.0
C      1  0.5139840000000  0.5163790000000  0.5795210000000 1.0
C      1  0.5124880000000  0.4804970000000  0.4216430000000 1.0
C      1  0.5573970000000  0.5475830000000  0.4868670000000 1.0
C      1  0.5599540000000  0.4525020000000  0.5123880000000 1.0
C      1  0.4412730000000  0.5487310000000  0.4875090000000 1.0
C      1  0.4423920000000  0.4524330000000  0.5115850000000 1.0
END
