TITL C-1154810-7815-17 0.00169419860950551 125000 -362.486182566947 0 0 60 (C1) n - 1
REM
REM in /home/nfs/bkarasulu/CARBON/AIRSS/Generating-Clusters/AIREBO/Higher-Symm/Only-C60
REM
REM
REM
REM
REM
REM ./C.cell (28575a23ae977d3b5fae324c64b13b57)
REM
REM compiler GCC version 9.2.1 20190827 (Red Hat 9.2.1-1)
REM options -cpp -mtune=generic -march=x86-64 -g -O0 -fpre-include=/usr/include/finclude/math-vector-fortran.h
REM seed -152540281 953005909 522085734 1057806056 896365598 -897943249 -1862645489 -324536490 -1683554613 -1409370768 780675666 1914088574 -507535014 907849672 -2100196890 -816959994 -59427244 2058223730 1093418941 -1409987714 -35996117 1493321294 -208291446 1021782466 323878691 320517273 -862803992 -1755046687 1366939773 -233186330 -1955462348 -578815899 1396511288
REM
CELL 1.54180   50.00000   50.00000   50.00000   90.00000   90.00000   90.00000
LATT -1
SFAC C  
C      1  0.4651560000000  0.4567910000000  0.5477160000000 1.0
C      1  0.5269660000000  0.4559340000000  0.5453610000000 1.0
C      1  0.5514430000000  0.5124060000000  0.5433870000000 1.0
C      1  0.5108630000000  0.5572530000000  0.5450770000000 1.0
C      1  0.4236190000000  0.4908860000000  0.5565940000000 1.0
C      1  0.4823420000000  0.4662940000000  0.4318940000000 1.0
C      1  0.5231480000000  0.4701370000000  0.4292160000000 1.0
C      1  0.5416980000000  0.5178950000000  0.4263300000000 1.0
C      1  0.5020770000000  0.5477330000000  0.4302980000000 1.0
C      1  0.4600680000000  0.5137030000000  0.4358650000000 1.0
C      1  0.5191420000000  0.4924420000000  0.5313810000000 1.0
C      1  0.5136760000000  0.5200830000000  0.5308070000000 1.0
C      1  0.4822370000000  0.5219880000000  0.5292650000000 1.0
C      1  0.4737090000000  0.4951420000000  0.5351760000000 1.0
C      1  0.4958090000000  0.4781670000000  0.5339120000000 1.0
C      1  0.4982360000000  0.4786550000000  0.5798810000000 1.0
C      1  0.5235380000000  0.4921760000000  0.5802570000000 1.0
C      1  0.5186210000000  0.5206140000000  0.5805970000000 1.0
C      1  0.4894590000000  0.5247670000000  0.5764640000000 1.0
C      1  0.4771310000000  0.4980430000000  0.5766860000000 1.0
C      1  0.4965110000000  0.4553710000000  0.5578920000000 1.0
C      1  0.5408750000000  0.4840240000000  0.5549210000000 1.0
C      1  0.5317280000000  0.5349490000000  0.5555340000000 1.0
C      1  0.4869390000000  0.5410020000000  0.5519550000000 1.0
C      1  0.4533450000000  0.4860040000000  0.5582050000000 1.0
C      1  0.5548260000000  0.5253520000000  0.4751700000000 1.0
C      1  0.5036490000000  0.5697950000000  0.4761630000000 1.0
C      1  0.4312400000000  0.5040770000000  0.4832370000000 1.0
C      1  0.4757020000000  0.4462290000000  0.4793480000000 1.0
C      1  0.5381410000000  0.4593970000000  0.4774470000000 1.0
C      1  0.5003870000000  0.4752410000000  0.4048240000000 1.0
C      1  0.5268680000000  0.4951760000000  0.4078490000000 1.0
C      1  0.5153970000000  0.5266810000000  0.4086650000000 1.0
C      1  0.4826660000000  0.5255500000000  0.4147340000000 1.0
C      1  0.4741220000000  0.4932790000000  0.4143550000000 1.0
C      1  0.5652550000000  0.5180280000000  0.5202220000000 1.0
C      1  0.5182630000000  0.5708700000000  0.5219320000000 1.0
C      1  0.4081580000000  0.4906520000000  0.5343140000000 1.0
C      1  0.4611990000000  0.4422720000000  0.5242250000000 1.0
C      1  0.5381670000000  0.4452770000000  0.5223380000000 1.0
C      1  0.4824010000000  0.4228580000000  0.5176680000000 1.0
C      1  0.5636650000000  0.4575060000000  0.5142850000000 1.0
C      1  0.5666070000000  0.5462220000000  0.5128690000000 1.0
C      1  0.4774430000000  0.5715380000000  0.4864060000000 1.0
C      1  0.4141260000000  0.4905610000000  0.5077090000000 1.0
C      1  0.5051090000000  0.5658370000000  0.4484880000000 1.0
C      1  0.4417370000000  0.5165440000000  0.4545350000000 1.0
C      1  0.4763390000000  0.4521000000000  0.4524070000000 1.0
C      1  0.5337640000000  0.4598370000000  0.4501920000000 1.0
C      1  0.5551030000000  0.5234460000000  0.4475920000000 1.0
C      1  0.5589280000000  0.4760200000000  0.4915730000000 1.0
C      1  0.5486610000000  0.5511080000000  0.4897850000000 1.0
C      1  0.4536480000000  0.5586250000000  0.4853860000000 1.0
C      1  0.4364990000000  0.4731870000000  0.4937570000000 1.0
C      1  0.4974110000000  0.4329180000000  0.4944300000000 1.0
C      1  0.5613950000000  0.5041170000000  0.4942800000000 1.0
C      1  0.5245460000000  0.5655510000000  0.4946350000000 1.0
C      1  0.4419190000000  0.5349620000000  0.4800260000000 1.0
C      1  0.4546500000000  0.4537630000000  0.4977930000000 1.0
C      1  0.5236680000000  0.4429590000000  0.4966910000000 1.0
END
