TITL C-1154801-8518-30 -0.000989392188354266 125000 -331.774551991609 0 0 60 (C1) n - 1
REM
REM in /home/nfs/bkarasulu/CARBON/AIRSS/Generating-Clusters/AIREBO/Higher-Symm/Only-C60
REM
REM
REM
REM
REM
REM ./C.cell (28575a23ae977d3b5fae324c64b13b57)
REM
REM compiler GCC version 9.2.1 20190827 (Red Hat 9.2.1-1)
REM options -cpp -mtune=generic -march=x86-64 -g -O0 -fpre-include=/usr/include/finclude/math-vector-fortran.h
REM seed 1687162831 -353190310 1303642393 397986660 1197235168 831296508 -397610158 1735633650 -1899554150 37729251 -1495921813 -1798725410 1240699321 -1700417974 846775692 -615423188 464320663 -1242123292 -1894696630 1341813539 672084559 -2143165958 -1486894778 -1907815645 1825369905 -99934482 -648832842 1261027572 402435359 -986860375 783504480 1915481405 -789409350
REM
CELL 1.54180   50.00000   50.00000   50.00000   90.00000   90.00000   90.00000
LATT -1
SFAC C  
C      1  0.4702590000000  0.4884730000000  0.4852620000000 1.0
C      1  0.4795500000000  0.5420920000000  0.4439250000000 1.0
C      1  0.4289000000000  0.5169820000000  0.4967400000000 1.0
C      1  0.4899640000000  0.4698760000000  0.5058470000000 1.0
C      1  0.4332680000000  0.4645980000000  0.5372890000000 1.0
C      1  0.4446860000000  0.4582590000000  0.4904960000000 1.0
C      1  0.5125260000000  0.5384330000000  0.5603790000000 1.0
C      1  0.5344060000000  0.4746050000000  0.4833480000000 1.0
C      1  0.4994440000000  0.4967750000000  0.4506700000000 1.0
C      1  0.5130520000000  0.5003000000000  0.4816640000000 1.0
C      1  0.4560610000000  0.5120010000000  0.5661560000000 1.0
C      1  0.5039720000000  0.4279660000000  0.5103820000000 1.0
C      1  0.5602270000000  0.4839400000000  0.5395560000000 1.0
C      1  0.5398890000000  0.5386330000000  0.5219540000000 1.0
C      1  0.4919790000000  0.4432160000000  0.4849200000000 1.0
C      1  0.5195850000000  0.4775970000000  0.5138530000000 1.0
C      1  0.5551160000000  0.4395120000000  0.5136060000000 1.0
C      1  0.5540580000000  0.5587390000000  0.4661210000000 1.0
C      1  0.5421960000000  0.5130320000000  0.4759330000000 1.0
C      1  0.4517050000000  0.4617320000000  0.4609620000000 1.0
C      1  0.5747680000000  0.4979860000000  0.5177310000000 1.0
C      1  0.5306730000000  0.4965230000000  0.5399750000000 1.0
C      1  0.5752100000000  0.4657030000000  0.5069950000000 1.0
C      1  0.5435090000000  0.4603730000000  0.5306370000000 1.0
C      1  0.4388940000000  0.4975510000000  0.5435060000000 1.0
C      1  0.4926170000000  0.5054480000000  0.5324190000000 1.0
C      1  0.4786860000000  0.5237620000000  0.5549820000000 1.0
C      1  0.4851410000000  0.4339160000000  0.5308110000000 1.0
C      1  0.5299410000000  0.4455770000000  0.4733190000000 1.0
C      1  0.5233700000000  0.5534280000000  0.4613640000000 1.0
C      1  0.4387860000000  0.5417120000000  0.4820300000000 1.0
C      1  0.4860140000000  0.5542910000000  0.5463730000000 1.0
C      1  0.4813350000000  0.5391120000000  0.4925400000000 1.0
C      1  0.4866180000000  0.4568690000000  0.5495290000000 1.0
C      1  0.4899870000000  0.4715390000000  0.4662070000000 1.0
C      1  0.4493760000000  0.5619390000000  0.4995230000000 1.0
C      1  0.5025180000000  0.5187880000000  0.5060570000000 1.0
C      1  0.4623340000000  0.5200040000000  0.4750620000000 1.0
C      1  0.4951620000000  0.5511950000000  0.4651870000000 1.0
C      1  0.4483550000000  0.4906230000000  0.4518630000000 1.0
C      1  0.5322190000000  0.4297260000000  0.4977700000000 1.0
C      1  0.5589940000000  0.5220120000000  0.5042490000000 1.0
C      1  0.4681430000000  0.4833710000000  0.5389200000000 1.0
C      1  0.4391140000000  0.5209930000000  0.5234010000000 1.0
C      1  0.4723090000000  0.5104580000000  0.4457110000000 1.0
C      1  0.4755730000000  0.4459940000000  0.4490080000000 1.0
C      1  0.4736820000000  0.5791330000000  0.5058290000000 1.0
C      1  0.5055410000000  0.4800930000000  0.5510600000000 1.0
C      1  0.4960840000000  0.5673240000000  0.5193980000000 1.0
C      1  0.5751260000000  0.5060600000000  0.4716030000000 1.0
C      1  0.5069620000000  0.4376570000000  0.4545660000000 1.0
C      1  0.5718280000000  0.5393050000000  0.4779350000000 1.0
C      1  0.5642170000000  0.4806870000000  0.4834470000000 1.0
C      1  0.5209050000000  0.5109770000000  0.4335470000000 1.0
C      1  0.5346740000000  0.5277920000000  0.4501400000000 1.0
C      1  0.4366480000000  0.4908420000000  0.4837860000000 1.0
C      1  0.4651210000000  0.5423430000000  0.5223210000000 1.0
C      1  0.5161760000000  0.5497630000000  0.5086050000000 1.0
C      1  0.4612810000000  0.4568960000000  0.5187110000000 1.0
C      1  0.5312650000000  0.5254720000000  0.5448190000000 1.0
END
