TITL C-1154823-9327-190 -0.000569878208391899 125000 -331.294386800742 0 0 60 (C1) n - 1
REM
REM in /home/nfs/bkarasulu/CARBON/AIRSS/Generating-Clusters/AIREBO/Higher-Symm/Only-C60
REM
REM
REM
REM
REM
REM ./C.cell (28575a23ae977d3b5fae324c64b13b57)
REM
REM compiler GCC version 9.2.1 20190827 (Red Hat 9.2.1-1)
REM options -cpp -mtune=generic -march=x86-64 -g -O0 -fpre-include=/usr/include/finclude/math-vector-fortran.h
REM seed -1633072601 -621103987 1468366254 -1688933745 -1888509924 -750022271 694474157 -986857251 -807058982 -1548846158 1800106714 -1626701624 275412277 2065182017 1883172257 -1138156466 -200652057 560636038 -364690527 204078318 152999450 365674602 -196795413 1599269005 355493821 -1696777843 -1268993280 -1584869508 2032568332 1849948448 1929950364 -576283186 1024854193
REM
CELL 1.54180   50.00000   50.00000   50.00000   90.00000   90.00000   90.00000
LATT -1
SFAC C  
C      1  0.5657360000000  0.4969710000000  0.4704080000000 1.0
C      1  0.4365160000000  0.4981060000000  0.4725560000000 1.0
C      1  0.5394650000000  0.4512400000000  0.4755220000000 1.0
C      1  0.4710290000000  0.4513620000000  0.4819650000000 1.0
C      1  0.5417150000000  0.5521450000000  0.5241300000000 1.0
C      1  0.4607710000000  0.5503420000000  0.5302090000000 1.0
C      1  0.4796170000000  0.4781350000000  0.5153690000000 1.0
C      1  0.5135500000000  0.4776970000000  0.5181150000000 1.0
C      1  0.4354940000000  0.4830260000000  0.5379170000000 1.0
C      1  0.5622490000000  0.4809020000000  0.5361700000000 1.0
C      1  0.4878390000000  0.4694040000000  0.4594980000000 1.0
C      1  0.5185620000000  0.4646290000000  0.4553970000000 1.0
C      1  0.5107510000000  0.5174000000000  0.5519040000000 1.0
C      1  0.4838920000000  0.5148990000000  0.5523320000000 1.0
C      1  0.5093340000000  0.5031270000000  0.4590670000000 1.0
C      1  0.4797640000000  0.5081640000000  0.4549430000000 1.0
C      1  0.5587650000000  0.5051090000000  0.5535390000000 1.0
C      1  0.4416850000000  0.5069940000000  0.5569080000000 1.0
C      1  0.4359490000000  0.5151650000000  0.4984630000000 1.0
C      1  0.5729110000000  0.5210690000000  0.4860450000000 1.0
C      1  0.4605620000000  0.5318030000000  0.5519700000000 1.0
C      1  0.5391940000000  0.5253140000000  0.5398800000000 1.0
C      1  0.5256550000000  0.5651950000000  0.4900760000000 1.0
C      1  0.4741250000000  0.5745780000000  0.4880920000000 1.0
C      1  0.4463790000000  0.4559060000000  0.5346030000000 1.0
C      1  0.5517860000000  0.4551540000000  0.5440800000000 1.0
C      1  0.5459030000000  0.4854730000000  0.5110120000000 1.0
C      1  0.4472810000000  0.4868830000000  0.5094010000000 1.0
C      1  0.5608480000000  0.5471010000000  0.5010220000000 1.0
C      1  0.4392630000000  0.5414790000000  0.5104160000000 1.0
C      1  0.4637680000000  0.5428980000000  0.4910590000000 1.0
C      1  0.5374100000000  0.5157930000000  0.5082590000000 1.0
C      1  0.4754190000000  0.4877490000000  0.5477210000000 1.0
C      1  0.5219790000000  0.4903160000000  0.5485500000000 1.0
C      1  0.5362900000000  0.5361180000000  0.4809690000000 1.0
C      1  0.4632540000000  0.5570370000000  0.4620020000000 1.0
C      1  0.4836780000000  0.5656110000000  0.5171170000000 1.0
C      1  0.5130510000000  0.5659200000000  0.5180050000000 1.0
C      1  0.5300310000000  0.5256440000000  0.4538980000000 1.0
C      1  0.4689190000000  0.5360180000000  0.4413840000000 1.0
C      1  0.4935670000000  0.5439060000000  0.4237800000000 1.0
C      1  0.5176510000000  0.5428970000000  0.4312020000000 1.0
C      1  0.4710080000000  0.4452380000000  0.5154080000000 1.0
C      1  0.5270660000000  0.4493150000000  0.5310840000000 1.0
C      1  0.5370490000000  0.4806880000000  0.4357930000000 1.0
C      1  0.4557180000000  0.4763440000000  0.4536940000000 1.0
C      1  0.5419840000000  0.4835900000000  0.5704290000000 1.0
C      1  0.4570170000000  0.4801690000000  0.5710980000000 1.0
C      1  0.4414490000000  0.4662490000000  0.4828590000000 1.0
C      1  0.5557730000000  0.4736390000000  0.4853940000000 1.0
C      1  0.5260250000000  0.4290100000000  0.4872560000000 1.0
C      1  0.4926920000000  0.4270630000000  0.4873350000000 1.0
C      1  0.5162270000000  0.4820930000000  0.4844910000000 1.0
C      1  0.4775120000000  0.4907610000000  0.4838580000000 1.0
C      1  0.5494180000000  0.5022860000000  0.4474550000000 1.0
C      1  0.4489150000000  0.5083120000000  0.4425850000000 1.0
C      1  0.5191400000000  0.4267570000000  0.5169910000000 1.0
C      1  0.4897070000000  0.4197710000000  0.5192410000000 1.0
C      1  0.5082290000000  0.5121920000000  0.4978730000000 1.0
C      1  0.4834610000000  0.5218470000000  0.4922040000000 1.0
END
