TITL C-1154821-8623-193 0.00248960590652349 125000 -341.615825160316 0 0 60 (C2) n - 1
REM
REM in /home/nfs/bkarasulu/CARBON/AIRSS/Generating-Clusters/AIREBO/Higher-Symm/Only-C60
REM
REM
REM
REM
REM
REM ./C.cell (28575a23ae977d3b5fae324c64b13b57)
REM
REM compiler GCC version 9.2.1 20190827 (Red Hat 9.2.1-1)
REM options -cpp -mtune=generic -march=x86-64 -g -O0 -fpre-include=/usr/include/finclude/math-vector-fortran.h
REM seed 99957836 440273111 -1867638652 1268173552 231274862 -185566010 -1070057347 582736893 1790110222 770282161 360446522 545711538 1493190637 1907756538 1568376651 716735629 -1891822066 1178241535 1583485898 1713003461 972007251 710732632 -944508449 505349160 237858843 1307673436 2049860220 -978136066 -1525706413 337385590 -1243472841 -939540141 834659415
REM
CELL 1.54180   50.00000   50.00000   50.00000   90.00000   90.00000   90.00000
LATT -1
SFAC C  
C      1  0.5606840000000  0.4970630000000  0.5137260000000 1.0
C      1  0.4381460000000  0.5146290000000  0.5067020000000 1.0
C      1  0.5606860000000  0.5029550000000  0.4862840000000 1.0
C      1  0.4381520000000  0.4853530000000  0.4932870000000 1.0
C      1  0.4593000000000  0.4339590000000  0.4913150000000 1.0
C      1  0.5420370000000  0.4911160000000  0.5642590000000 1.0
C      1  0.4592790000000  0.5660290000000  0.5086780000000 1.0
C      1  0.5420460000000  0.5088970000000  0.4357480000000 1.0
C      1  0.4351810000000  0.4645170000000  0.5124870000000 1.0
C      1  0.5639920000000  0.5175970000000  0.5314090000000 1.0
C      1  0.4351730000000  0.5354640000000  0.4875020000000 1.0
C      1  0.5640030000000  0.4824220000000  0.4686020000000 1.0
C      1  0.4981320000000  0.4941440000000  0.4809660000000 1.0
C      1  0.5109060000000  0.4776210000000  0.5073580000000 1.0
C      1  0.4981270000000  0.5058560000000  0.5190340000000 1.0
C      1  0.5109000000000  0.5223820000000  0.4926440000000 1.0
C      1  0.5117230000000  0.5716600000000  0.5109350000000 1.0
C      1  0.4841460000000  0.5064780000000  0.4324450000000 1.0
C      1  0.5117460000000  0.4283440000000  0.4890670000000 1.0
C      1  0.4841370000000  0.4935170000000  0.5675530000000 1.0
C      1  0.4829050000000  0.4674370000000  0.4410110000000 1.0
C      1  0.5139920000000  0.4373300000000  0.5366340000000 1.0
C      1  0.4828850000000  0.5325580000000  0.5589860000000 1.0
C      1  0.5139800000000  0.5626740000000  0.4633680000000 1.0
C      1  0.5394440000000  0.5409160000000  0.5345120000000 1.0
C      1  0.4597680000000  0.5339190000000  0.4640700000000 1.0
C      1  0.5394620000000  0.4590950000000  0.4654950000000 1.0
C      1  0.4597720000000  0.4660690000000  0.5359230000000 1.0
C      1  0.5410230000000  0.5248570000000  0.4843680000000 1.0
C      1  0.4692170000000  0.4906630000000  0.4813360000000 1.0
C      1  0.5410280000000  0.4751560000000  0.5156390000000 1.0
C      1  0.4692110000000  0.5093280000000  0.5186590000000 1.0
C      1  0.4921840000000  0.5602550000000  0.5510150000000 1.0
C      1  0.5042990000000  0.5472550000000  0.4394540000000 1.0
C      1  0.4922110000000  0.4397420000000  0.4489830000000 1.0
C      1  0.5043020000000  0.4527460000000  0.5605470000000 1.0
C      1  0.5498620000000  0.5497320000000  0.5035950000000 1.0
C      1  0.4432880000000  0.5041370000000  0.4642410000000 1.0
C      1  0.5498780000000  0.4502830000000  0.4964140000000 1.0
C      1  0.4432830000000  0.4958460000000  0.5357490000000 1.0
C      1  0.5162180000000  0.5619800000000  0.5361580000000 1.0
C      1  0.4801600000000  0.5323390000000  0.4406550000000 1.0
C      1  0.5162430000000  0.4380250000000  0.4638450000000 1.0
C      1  0.4801590000000  0.4676550000000  0.5593420000000 1.0
C      1  0.5004530000000  0.5524680000000  0.4888210000000 1.0
C      1  0.5028540000000  0.4886510000000  0.4513950000000 1.0
C      1  0.5004660000000  0.4475320000000  0.5111790000000 1.0
C      1  0.5028420000000  0.5113500000000  0.5486050000000 1.0
C      1  0.5317240000000  0.5144450000000  0.5544110000000 1.0
C      1  0.4705330000000  0.5540210000000  0.4870620000000 1.0
C      1  0.5317370000000  0.4855650000000  0.4455940000000 1.0
C      1  0.4705470000000  0.4459710000000  0.5129320000000 1.0
C      1  0.5450560000000  0.5540960000000  0.4699340000000 1.0
C      1  0.4543040000000  0.4725400000000  0.4567340000000 1.0
C      1  0.5450670000000  0.4459180000000  0.5300730000000 1.0
C      1  0.4542890000000  0.5274470000000  0.5432580000000 1.0
C      1  0.4644290000000  0.4419800000000  0.4647950000000 1.0
C      1  0.5340120000000  0.4653130000000  0.5558210000000 1.0
C      1  0.4644060000000  0.5580100000000  0.5351990000000 1.0
C      1  0.5340110000000  0.5346970000000  0.4441850000000 1.0
END
