TITL C-1154804-8633-110 -0.000191281642108286 125000 -346.157430678363 0 0 60 (C1) n - 1
REM
REM in /home/nfs/bkarasulu/CARBON/AIRSS/Generating-Clusters/AIREBO/Higher-Symm/Only-C60
REM
REM
REM
REM
REM
REM ./C.cell (28575a23ae977d3b5fae324c64b13b57)
REM
REM compiler GCC version 9.2.1 20190827 (Red Hat 9.2.1-1)
REM options -cpp -mtune=generic -march=x86-64 -g -O0 -fpre-include=/usr/include/finclude/math-vector-fortran.h
REM seed -199464692 -669510117 153639440 -212441638 179953705 -770353968 -435287613 -902930663 904377575 -797181874 -14340195 1334351709 310510604 1355066553 2077943008 1013246450 -1925800859 -715484699 521192936 2046314332 1257456237 -625627674 -414289704 732543756 -550276930 -1935925202 74211707 1637495943 -1705413120 470879283 -585407381 128912482 -236707098
REM
CELL 1.54180   50.00000   50.00000   50.00000   90.00000   90.00000   90.00000
LATT -1
SFAC C  
C      1  0.5771760000000  0.5305630000000  0.5162560000000 1.0
C      1  0.5753780000000  0.5150110000000  0.4701100000000 1.0
C      1  0.5764300000000  0.4687130000000  0.4835590000000 1.0
C      1  0.5762340000000  0.4842320000000  0.5296770000000 1.0
C      1  0.4806780000000  0.4552050000000  0.5369180000000 1.0
C      1  0.4742310000000  0.5382820000000  0.5481320000000 1.0
C      1  0.4786780000000  0.5422010000000  0.4614620000000 1.0
C      1  0.4762110000000  0.4615260000000  0.4517050000000 1.0
C      1  0.4313460000000  0.5154070000000  0.4865300000000 1.0
C      1  0.4320330000000  0.4853140000000  0.4783180000000 1.0
C      1  0.4324010000000  0.4834470000000  0.5097530000000 1.0
C      1  0.4306500000000  0.5150460000000  0.5178540000000 1.0
C      1  0.5132990000000  0.4967860000000  0.5264970000000 1.0
C      1  0.5168590000000  0.5206910000000  0.5041430000000 1.0
C      1  0.5095290000000  0.5055440000000  0.4749920000000 1.0
C      1  0.5123890000000  0.4816390000000  0.4974030000000 1.0
C      1  0.4723540000000  0.4328720000000  0.4900540000000 1.0
C      1  0.4695060000000  0.4839810000000  0.5717430000000 1.0
C      1  0.4682900000000  0.5740140000000  0.5182460000000 1.0
C      1  0.4706000000000  0.5102530000000  0.4268280000000 1.0
C      1  0.4584440000000  0.5021700000000  0.5542670000000 1.0
C      1  0.4595950000000  0.5574660000000  0.4996980000000 1.0
C      1  0.4520100000000  0.5005010000000  0.4472610000000 1.0
C      1  0.4483410000000  0.4332640000000  0.5038430000000 1.0
C      1  0.4478700000000  0.4708150000000  0.4564610000000 1.0
C      1  0.4515240000000  0.4602380000000  0.5201540000000 1.0
C      1  0.4441490000000  0.5261750000000  0.5408520000000 1.0
C      1  0.4477690000000  0.5387410000000  0.4738670000000 1.0
C      1  0.5265120000000  0.4667840000000  0.4730530000000 1.0
C      1  0.5300790000000  0.4687290000000  0.5359570000000 1.0
C      1  0.5277570000000  0.5345280000000  0.5302760000000 1.0
C      1  0.5292890000000  0.5311120000000  0.4644050000000 1.0
C      1  0.5225580000000  0.4392910000000  0.5017190000000 1.0
C      1  0.5229310000000  0.5045540000000  0.5644750000000 1.0
C      1  0.5212420000000  0.5602540000000  0.5005940000000 1.0
C      1  0.5218880000000  0.4931860000000  0.4357210000000 1.0
C      1  0.5428300000000  0.5172600000000  0.5471410000000 1.0
C      1  0.5419230000000  0.5456060000000  0.4848710000000 1.0
C      1  0.5409150000000  0.4821200000000  0.4543050000000 1.0
C      1  0.5422790000000  0.4536070000000  0.5161250000000 1.0
C      1  0.5158560000000  0.5224570000000  0.4393690000000 1.0
C      1  0.5151020000000  0.4395720000000  0.4707140000000 1.0
C      1  0.5161500000000  0.4761830000000  0.5606530000000 1.0
C      1  0.5137720000000  0.5614640000000  0.5306460000000 1.0
C      1  0.5684190000000  0.5111130000000  0.5353770000000 1.0
C      1  0.5680670000000  0.5347880000000  0.4896210000000 1.0
C      1  0.5671260000000  0.4881960000000  0.4647240000000 1.0
C      1  0.5681400000000  0.4645030000000  0.5104440000000 1.0
C      1  0.4745360000000  0.5063750000000  0.5244220000000 1.0
C      1  0.4694310000000  0.5250880000000  0.4962530000000 1.0
C      1  0.4699440000000  0.4977930000000  0.4759840000000 1.0
C      1  0.4718270000000  0.4821490000000  0.5039050000000 1.0
C      1  0.4958920000000  0.5146870000000  0.5495480000000 1.0
C      1  0.4979160000000  0.5419280000000  0.4866460000000 1.0
C      1  0.4909760000000  0.4921060000000  0.4498640000000 1.0
C      1  0.4926110000000  0.4550590000000  0.5050790000000 1.0
C      1  0.4886740000000  0.5304010000000  0.4382050000000 1.0
C      1  0.4868910000000  0.4396170000000  0.4655840000000 1.0
C      1  0.4890820000000  0.4672460000000  0.5603460000000 1.0
C      1  0.4854120000000  0.5621450000000  0.5373930000000 1.0
END
