TITL C-1154801-8518-307 -0.00102132656472129 125000 -329.641448197505 0 0 60 (C1) n - 1
REM
REM in /home/nfs/bkarasulu/CARBON/AIRSS/Generating-Clusters/AIREBO/Higher-Symm/Only-C60
REM
REM
REM
REM
REM
REM ./C.cell (28575a23ae977d3b5fae324c64b13b57)
REM
REM compiler GCC version 9.2.1 20190827 (Red Hat 9.2.1-1)
REM options -cpp -mtune=generic -march=x86-64 -g -O0 -fpre-include=/usr/include/finclude/math-vector-fortran.h
REM seed 1727387755 -500891718 150729062 1629465832 -1890791137 -855125811 -1801403324 -59790434 -1160974876 -205518002 -322265642 979435417 -778369789 279117452 1503546956 -1981838363 -298146569 1548420245 2029442206 -784101453 -2077544890 990359062 525193932 836045627 1960709416 970696353 1102039143 -587592920 -1236948470 -339283868 586892075 1335592772 1156669892
REM
CELL 1.54180   50.00000   50.00000   50.00000   90.00000   90.00000   90.00000
LATT -1
SFAC C  
C      1  0.4912820000000  0.4676320000000  0.4513360000000 1.0
C      1  0.4926860000000  0.4353190000000  0.5245200000000 1.0
C      1  0.4913970000000  0.5071400000000  0.5723970000000 1.0
C      1  0.4872970000000  0.5556500000000  0.5202390000000 1.0
C      1  0.4961790000000  0.5311980000000  0.4497220000000 1.0
C      1  0.5140360000000  0.4566010000000  0.4363430000000 1.0
C      1  0.5213630000000  0.4422810000000  0.5152750000000 1.0
C      1  0.5236640000000  0.5018800000000  0.5637320000000 1.0
C      1  0.5142610000000  0.5472410000000  0.5321900000000 1.0
C      1  0.5254530000000  0.5460130000000  0.4553720000000 1.0
C      1  0.5557890000000  0.4905370000000  0.4624470000000 1.0
C      1  0.5501610000000  0.4645100000000  0.4811930000000 1.0
C      1  0.5571160000000  0.4920320000000  0.5255290000000 1.0
C      1  0.5737970000000  0.5133270000000  0.5085140000000 1.0
C      1  0.5708670000000  0.5358120000000  0.4931470000000 1.0
C      1  0.5475970000000  0.4426800000000  0.5239470000000 1.0
C      1  0.5682430000000  0.4895860000000  0.5749760000000 1.0
C      1  0.5366600000000  0.5625410000000  0.5304240000000 1.0
C      1  0.5759120000000  0.5522170000000  0.4432400000000 1.0
C      1  0.5391520000000  0.4475040000000  0.4190850000000 1.0
C      1  0.4717920000000  0.5390230000000  0.4689800000000 1.0
C      1  0.4690830000000  0.4851370000000  0.4368960000000 1.0
C      1  0.4799530000000  0.4437170000000  0.4968630000000 1.0
C      1  0.4857020000000  0.4993210000000  0.5984150000000 1.0
C      1  0.4646040000000  0.5468210000000  0.5387000000000 1.0
C      1  0.4439930000000  0.5510460000000  0.4948390000000 1.0
C      1  0.4457640000000  0.5126980000000  0.4538810000000 1.0
C      1  0.4433320000000  0.4599840000000  0.4690310000000 1.0
C      1  0.4340000000000  0.4725370000000  0.5193200000000 1.0
C      1  0.4398030000000  0.5158230000000  0.5413990000000 1.0
C      1  0.5216300000000  0.4679640000000  0.4952790000000 1.0
C      1  0.5243480000000  0.4830090000000  0.5241390000000 1.0
C      1  0.5186850000000  0.5159010000000  0.5267100000000 1.0
C      1  0.5322660000000  0.5305680000000  0.5006980000000 1.0
C      1  0.5429050000000  0.5148330000000  0.4725690000000 1.0
C      1  0.4949590000000  0.4674510000000  0.5315790000000 1.0
C      1  0.4920700000000  0.5002180000000  0.5397490000000 1.0
C      1  0.5001840000000  0.5347050000000  0.4967210000000 1.0
C      1  0.5108670000000  0.5129330000000  0.4724550000000 1.0
C      1  0.5025120000000  0.4838760000000  0.4765960000000 1.0
C      1  0.4415710000000  0.4793810000000  0.4485500000000 1.0
C      1  0.4292880000000  0.4597580000000  0.4942300000000 1.0
C      1  0.4210680000000  0.4913870000000  0.5351290000000 1.0
C      1  0.4394040000000  0.5435790000000  0.5217640000000 1.0
C      1  0.4370600000000  0.5402980000000  0.4667870000000 1.0
C      1  0.4675380000000  0.5250840000000  0.5597890000000 1.0
C      1  0.4723470000000  0.5630380000000  0.4930290000000 1.0
C      1  0.4739280000000  0.5150960000000  0.4349600000000 1.0
C      1  0.4698110000000  0.4485510000000  0.4687520000000 1.0
C      1  0.4852040000000  0.4135320000000  0.5391340000000 1.0
C      1  0.4653830000000  0.4983570000000  0.4743430000000 1.0
C      1  0.4778690000000  0.4768480000000  0.4955790000000 1.0
C      1  0.4635820000000  0.4774590000000  0.5235390000000 1.0
C      1  0.4665240000000  0.5099300000000  0.5232530000000 1.0
C      1  0.4721440000000  0.5196040000000  0.4968890000000 1.0
C      1  0.5485360000000  0.4946740000000  0.5564410000000 1.0
C      1  0.5531880000000  0.5559570000000  0.5074260000000 1.0
C      1  0.5586130000000  0.5419030000000  0.4619820000000 1.0
C      1  0.5452130000000  0.4626090000000  0.4486350000000 1.0
C      1  0.5603660000000  0.4636920000000  0.5113470000000 1.0
END
