TITL C-1154827-9204-313 0.00113070988132135 125000 -318.971513409713 0 0 60 (C1) n - 1
REM
REM in /home/nfs/bkarasulu/CARBON/AIRSS/Generating-Clusters/AIREBO/Higher-Symm/Only-C60
REM
REM
REM
REM
REM
REM ./C.cell (28575a23ae977d3b5fae324c64b13b57)
REM
REM compiler GCC version 9.2.1 20190827 (Red Hat 9.2.1-1)
REM options -cpp -mtune=generic -march=x86-64 -g -O0 -fpre-include=/usr/include/finclude/math-vector-fortran.h
REM seed -1344390360 -22000891 1065978033 -182566308 1429274171 -1166476835 -1949502856 2015514600 1138855732 -1127099359 -1614961102 1248112498 602299995 -166858228 -1352003180 986989693 -331147128 -2005190240 -727047031 671255257 -608879379 1468868647 2101616111 -810771866 -1808555032 -1629221367 -1627961406 1599707490 -642923695 1076955426 1135528796 2042331409 22219219
REM
CELL 1.54180   50.00000   50.00000   50.00000   90.00000   90.00000   90.00000
LATT -1
SFAC C  
C      1  0.5274810000000  0.4387430000000  0.5146430000000 1.0
C      1  0.4991260000000  0.4374230000000  0.4700090000000 1.0
C      1  0.4745170000000  0.4380230000000  0.5168100000000 1.0
C      1  0.5272860000000  0.5616950000000  0.5157930000000 1.0
C      1  0.5007990000000  0.5620760000000  0.4692170000000 1.0
C      1  0.4740770000000  0.5606690000000  0.5171870000000 1.0
C      1  0.5294540000000  0.5605580000000  0.4867510000000 1.0
C      1  0.4739310000000  0.5646840000000  0.4829080000000 1.0
C      1  0.4981020000000  0.5595470000000  0.5342760000000 1.0
C      1  0.5298740000000  0.4402120000000  0.4852210000000 1.0
C      1  0.4719990000000  0.4386120000000  0.4823710000000 1.0
C      1  0.4986870000000  0.4399920000000  0.5336850000000 1.0
C      1  0.5058030000000  0.4787050000000  0.5285540000000 1.0
C      1  0.5207310000000  0.4784050000000  0.4792240000000 1.0
C      1  0.4714510000000  0.4773190000000  0.4911560000000 1.0
C      1  0.5055490000000  0.5209550000000  0.5290660000000 1.0
C      1  0.5175690000000  0.5234870000000  0.4789790000000 1.0
C      1  0.4688130000000  0.5265140000000  0.4923320000000 1.0
C      1  0.4587040000000  0.4645360000000  0.4646880000000 1.0
C      1  0.4938080000000  0.4658730000000  0.5553490000000 1.0
C      1  0.5504930000000  0.4666060000000  0.4789160000000 1.0
C      1  0.4626470000000  0.5397930000000  0.4626070000000 1.0
C      1  0.4933280000000  0.5335230000000  0.5557940000000 1.0
C      1  0.5489790000000  0.5337760000000  0.4788970000000 1.0
C      1  0.5400180000000  0.4581200000000  0.4356190000000 1.0
C      1  0.4244470000000  0.4578290000000  0.4971310000000 1.0
C      1  0.5340970000000  0.4587070000000  0.5679550000000 1.0
C      1  0.5425780000000  0.5380200000000  0.4394820000000 1.0
C      1  0.4267480000000  0.5402090000000  0.4937190000000 1.0
C      1  0.5332210000000  0.5410060000000  0.5689270000000 1.0
C      1  0.4879610000000  0.4852020000000  0.5739890000000 1.0
C      1  0.5689470000000  0.4861320000000  0.4747980000000 1.0
C      1  0.4484010000000  0.4838980000000  0.4482930000000 1.0
C      1  0.4875150000000  0.5140180000000  0.5742570000000 1.0
C      1  0.5671100000000  0.5143080000000  0.4739530000000 1.0
C      1  0.4577090000000  0.5096780000000  0.4475830000000 1.0
C      1  0.5277430000000  0.4844660000000  0.4465110000000 1.0
C      1  0.4402520000000  0.4845250000000  0.5012500000000 1.0
C      1  0.5289030000000  0.4848810000000  0.5527280000000 1.0
C      1  0.5245830000000  0.5139060000000  0.4471180000000 1.0
C      1  0.4396730000000  0.5134370000000  0.5039950000000 1.0
C      1  0.5286330000000  0.5149000000000  0.5532860000000 1.0
C      1  0.4506670000000  0.5381500000000  0.5254180000000 1.0
C      1  0.5421310000000  0.5366010000000  0.5304680000000 1.0
C      1  0.5031350000000  0.5406310000000  0.4435680000000 1.0
C      1  0.4537200000000  0.4620420000000  0.5234700000000 1.0
C      1  0.5426480000000  0.4636740000000  0.5294680000000 1.0
C      1  0.5025700000000  0.4612100000000  0.4482560000000 1.0
C      1  0.4882690000000  0.5174390000000  0.4635120000000 1.0
C      1  0.4756500000000  0.5154600000000  0.5212630000000 1.0
C      1  0.5276180000000  0.5160600000000  0.5075840000000 1.0
C      1  0.4920400000000  0.4860040000000  0.4690040000000 1.0
C      1  0.4770150000000  0.4860990000000  0.5205110000000 1.0
C      1  0.5285270000000  0.4860470000000  0.5081110000000 1.0
C      1  0.5290410000000  0.4361080000000  0.5485060000000 1.0
C      1  0.5276610000000  0.4353540000000  0.4516380000000 1.0
C      1  0.4442460000000  0.4348550000000  0.5016530000000 1.0
C      1  0.5280910000000  0.5638360000000  0.5497170000000 1.0
C      1  0.5304860000000  0.5622600000000  0.4526410000000 1.0
C      1  0.4447410000000  0.5632010000000  0.5001870000000 1.0
END
