TITL C-1154802-8274-636 0.00213414767095922 125000 -347.010029754381 0 0 60 (C1) n - 1
REM
REM in /home/nfs/bkarasulu/CARBON/AIRSS/Generating-Clusters/AIREBO/Higher-Symm/Only-C60
REM
REM
REM
REM
REM
REM ./C.cell (28575a23ae977d3b5fae324c64b13b57)
REM
REM compiler GCC version 9.2.1 20190827 (Red Hat 9.2.1-1)
REM options -cpp -mtune=generic -march=x86-64 -g -O0 -fpre-include=/usr/include/finclude/math-vector-fortran.h
REM seed -39648462 141191718 -798339952 -1120655752 1792493740 1325630312 -2000697662 -45470286 345413381 -2018734685 -1428618361 630855335 947677599 -468331752 -639931643 1774571482 -1055193256 270405109 -747206821 743025885 805703282 1467794131 -1471747911 565248113 1269773788 1672052659 839676140 1932562272 1977476323 -2143970794 -1516340257 679432739 -9456997
REM
CELL 1.54180   50.00000   50.00000   50.00000   90.00000   90.00000   90.00000
LATT -1
SFAC C  
C      1  0.5419940000000  0.5124320000000  0.4368490000000 1.0
C      1  0.5433730000000  0.4859630000000  0.5689660000000 1.0
C      1  0.5445590000000  0.5114500000000  0.5674500000000 1.0
C      1  0.5423120000000  0.4867180000000  0.4369340000000 1.0
C      1  0.4652350000000  0.4685020000000  0.4557720000000 1.0
C      1  0.4676650000000  0.5300550000000  0.5429700000000 1.0
C      1  0.4680730000000  0.4672060000000  0.5422960000000 1.0
C      1  0.4668500000000  0.5317910000000  0.4552130000000 1.0
C      1  0.5473910000000  0.5641410000000  0.5468990000000 1.0
C      1  0.5424170000000  0.4396690000000  0.4680490000000 1.0
C      1  0.5423780000000  0.5628090000000  0.4700340000000 1.0
C      1  0.5490960000000  0.4357420000000  0.5438230000000 1.0
C      1  0.5559910000000  0.4535090000000  0.4874180000000 1.0
C      1  0.5488710000000  0.5323190000000  0.5086990000000 1.0
C      1  0.5478510000000  0.4695210000000  0.5079430000000 1.0
C      1  0.5569670000000  0.5490780000000  0.4888370000000 1.0
C      1  0.4752850000000  0.4840390000000  0.4353210000000 1.0
C      1  0.4762820000000  0.5147110000000  0.5642700000000 1.0
C      1  0.4776170000000  0.4824330000000  0.5631270000000 1.0
C      1  0.4765130000000  0.5161570000000  0.4346230000000 1.0
C      1  0.4473840000000  0.4846500000000  0.4758330000000 1.0
C      1  0.4459040000000  0.5155770000000  0.5263500000000 1.0
C      1  0.4468590000000  0.4824120000000  0.5252830000000 1.0
C      1  0.4463380000000  0.5165910000000  0.4726960000000 1.0
C      1  0.5102870000000  0.5675130000000  0.4932160000000 1.0
C      1  0.5086880000000  0.4405580000000  0.5172060000000 1.0
C      1  0.5079800000000  0.5582430000000  0.5184350000000 1.0
C      1  0.5117430000000  0.4310860000000  0.4920770000000 1.0
C      1  0.4017820000000  0.4983850000000  0.5245250000000 1.0
C      1  0.3988690000000  0.5107390000000  0.4613260000000 1.0
C      1  0.3986740000000  0.4837670000000  0.4684630000000 1.0
C      1  0.4164750000000  0.5230860000000  0.5223340000000 1.0
C      1  0.5202380000000  0.5228320000000  0.4582470000000 1.0
C      1  0.5211020000000  0.4748660000000  0.5483990000000 1.0
C      1  0.5227760000000  0.5225100000000  0.5461380000000 1.0
C      1  0.5207450000000  0.4759760000000  0.4582900000000 1.0
C      1  0.5325740000000  0.5459720000000  0.5313480000000 1.0
C      1  0.5106980000000  0.4476360000000  0.4630930000000 1.0
C      1  0.5125030000000  0.5510620000000  0.4641440000000 1.0
C      1  0.5325540000000  0.4541780000000  0.5300880000000 1.0
C      1  0.4115230000000  0.5387500000000  0.4993060000000 1.0
C      1  0.4196350000000  0.4753640000000  0.4854710000000 1.0
C      1  0.4180430000000  0.5271150000000  0.4743130000000 1.0
C      1  0.4181650000000  0.4772400000000  0.5136580000000 1.0
C      1  0.4802030000000  0.4482050000000  0.4693970000000 1.0
C      1  0.4810060000000  0.5503100000000  0.5278740000000 1.0
C      1  0.4812990000000  0.4468970000000  0.5269530000000 1.0
C      1  0.4816650000000  0.5506990000000  0.4705710000000 1.0
C      1  0.4754800000000  0.5475580000000  0.4977500000000 1.0
C      1  0.4756290000000  0.4504600000000  0.4970200000000 1.0
C      1  0.5044310000000  0.4991230000000  0.4401000000000 1.0
C      1  0.5062260000000  0.5003030000000  0.5658600000000 1.0
C      1  0.5177800000000  0.4996030000000  0.4825880000000 1.0
C      1  0.5102940000000  0.4986750000000  0.5266630000000 1.0
C      1  0.4665410000000  0.4792630000000  0.5005100000000 1.0
C      1  0.4641790000000  0.5190300000000  0.5001710000000 1.0
C      1  0.4918420000000  0.4992790000000  0.5013340000000 1.0
C      1  0.5436460000000  0.4997800000000  0.5003290000000 1.0
C      1  0.5946320000000  0.5153470000000  0.4775440000000 1.0
C      1  0.5716320000000  0.5085360000000  0.4862710000000 1.0
END
