TITL C-1154808-8168-544 -0.000934618102501559 125000 -297.935377054543 0 0 60 (C1) n - 1
REM
REM in /home/nfs/bkarasulu/CARBON/AIRSS/Generating-Clusters/AIREBO/Higher-Symm/Only-C60
REM
REM
REM
REM
REM
REM ./C.cell (28575a23ae977d3b5fae324c64b13b57)
REM
REM compiler GCC version 9.2.1 20190827 (Red Hat 9.2.1-1)
REM options -cpp -mtune=generic -march=x86-64 -g -O0 -fpre-include=/usr/include/finclude/math-vector-fortran.h
REM seed -1820150552 2058946499 1663044152 -1309778780 1078105014 -992138912 -1020342199 -498401005 994085284 -1444768864 1394876350 -378240815 -1158989076 369229199 -864828807 1002561364 -1868302938 347313490 1153473180 -276218874 442072587 1719619595 -1214854805 -65028433 455292752 -1756907631 1690199217 -834651216 -1358220120 -826928821 -692604078 443949776 1563476945
REM
CELL 1.54180   50.00000   50.00000   50.00000   90.00000   90.00000   90.00000
LATT -1
SFAC C  
C      1  0.5183360000000  0.4772860000000  0.4719930000000 1.0
C      1  0.5177280000000  0.4613960000000  0.5224160000000 1.0
C      1  0.5098250000000  0.4999450000000  0.5428910000000 1.0
C      1  0.5211800000000  0.5444520000000  0.5072390000000 1.0
C      1  0.5082860000000  0.5236260000000  0.4662860000000 1.0
C      1  0.4627620000000  0.5463770000000  0.4711990000000 1.0
C      1  0.4745580000000  0.4734040000000  0.4361530000000 1.0
C      1  0.4722080000000  0.4326690000000  0.4987570000000 1.0
C      1  0.4700060000000  0.4842800000000  0.5517920000000 1.0
C      1  0.4765850000000  0.5445830000000  0.5316650000000 1.0
C      1  0.4459040000000  0.4561440000000  0.4721240000000 1.0
C      1  0.4306880000000  0.4721430000000  0.5323630000000 1.0
C      1  0.4444580000000  0.5225300000000  0.5466440000000 1.0
C      1  0.4435170000000  0.5841810000000  0.5110000000000 1.0
C      1  0.4301500000000  0.4927420000000  0.4444320000000 1.0
C      1  0.5411050000000  0.5452070000000  0.4726130000000 1.0
C      1  0.5464670000000  0.4866710000000  0.4458480000000 1.0
C      1  0.5435370000000  0.4449280000000  0.4970640000000 1.0
C      1  0.5431390000000  0.4793760000000  0.5500780000000 1.0
C      1  0.5476340000000  0.5425990000000  0.5365500000000 1.0
C      1  0.5139480000000  0.4746340000000  0.5646340000000 1.0
C      1  0.5149490000000  0.5514130000000  0.5399340000000 1.0
C      1  0.5105060000000  0.5562360000000  0.4625070000000 1.0
C      1  0.5134430000000  0.4806020000000  0.4397810000000 1.0
C      1  0.5119740000000  0.4352190000000  0.5014820000000 1.0
C      1  0.5068290000000  0.4503160000000  0.4449840000000 1.0
C      1  0.5001680000000  0.4278130000000  0.5324970000000 1.0
C      1  0.5028550000000  0.5050060000000  0.5757700000000 1.0
C      1  0.5017550000000  0.5706930000000  0.5147550000000 1.0
C      1  0.5004260000000  0.5362610000000  0.4363920000000 1.0
C      1  0.5650360000000  0.5177960000000  0.5192930000000 1.0
C      1  0.5663700000000  0.5260640000000  0.4874070000000 1.0
C      1  0.5652820000000  0.4969990000000  0.4733770000000 1.0
C      1  0.5661130000000  0.4719490000000  0.4948960000000 1.0
C      1  0.5664810000000  0.4860290000000  0.5248590000000 1.0
C      1  0.4861730000000  0.5181610000000  0.4866460000000 1.0
C      1  0.4869800000000  0.4901870000000  0.4745410000000 1.0
C      1  0.5033200000000  0.4757720000000  0.4992840000000 1.0
C      1  0.4908270000000  0.4955860000000  0.5192690000000 1.0
C      1  0.4959360000000  0.5265510000000  0.5151750000000 1.0
C      1  0.4570460000000  0.4920940000000  0.4585260000000 1.0
C      1  0.4460840000000  0.4800750000000  0.4883930000000 1.0
C      1  0.4592550000000  0.4829620000000  0.5195530000000 1.0
C      1  0.4452830000000  0.5139520000000  0.5204690000000 1.0
C      1  0.4573820000000  0.5305360000000  0.4996030000000 1.0
C      1  0.4917780000000  0.4588330000000  0.5442460000000 1.0
C      1  0.4938220000000  0.5329400000000  0.5585790000000 1.0
C      1  0.4879580000000  0.5651870000000  0.4841440000000 1.0
C      1  0.4890890000000  0.5041830000000  0.4371640000000 1.0
C      1  0.4941260000000  0.4367200000000  0.4734450000000 1.0
C      1  0.4671500000000  0.5119140000000  0.5602020000000 1.0
C      1  0.4636290000000  0.5623480000000  0.5078040000000 1.0
C      1  0.4660770000000  0.5242510000000  0.4521470000000 1.0
C      1  0.4689100000000  0.4513880000000  0.4565870000000 1.0
C      1  0.4702930000000  0.4508030000000  0.5191350000000 1.0
C      1  0.5384780000000  0.5109530000000  0.5381630000000 1.0
C      1  0.5522690000000  0.5520910000000  0.5038780000000 1.0
C      1  0.5369490000000  0.5124910000000  0.4643260000000 1.0
C      1  0.5468850000000  0.4620740000000  0.4693270000000 1.0
C      1  0.5500910000000  0.4563770000000  0.5277180000000 1.0
END
