TITL C-1154828-9214-705 0.00108275620828006 125000 -299.674485494469 0 0 60 (C1) n - 1
REM
REM in /home/nfs/bkarasulu/CARBON/AIRSS/Generating-Clusters/AIREBO/Higher-Symm/Only-C60
REM
REM
REM
REM
REM
REM ./C.cell (28575a23ae977d3b5fae324c64b13b57)
REM
REM compiler GCC version 9.2.1 20190827 (Red Hat 9.2.1-1)
REM options -cpp -mtune=generic -march=x86-64 -g -O0 -fpre-include=/usr/include/finclude/math-vector-fortran.h
REM seed -1568288254 -526836329 1269464608 -1006922506 -613856018 179603220 1309219557 717854703 -1716796603 -62838636 -298908403 -293951269 24103831 -777097717 -476005204 661832956 504118224 168304532 -1642321824 1434863717 361718564 -183187974 315216768 19797609 1989027991 1151258000 227747334 71213985 -1068973689 1936741270 -1385052551 1006166573 1067296291
REM
CELL 1.54180   50.00000   50.00000   50.00000   90.00000   90.00000   90.00000
LATT -1
SFAC C  
C      1  0.5672510000000  0.5082330000000  0.5455570000000 1.0
C      1  0.4468510000000  0.5031770000000  0.4647050000000 1.0
C      1  0.4862600000000  0.4317490000000  0.4785330000000 1.0
C      1  0.5139230000000  0.5650210000000  0.5164210000000 1.0
C      1  0.4529360000000  0.5439200000000  0.4893180000000 1.0
C      1  0.5434160000000  0.4576610000000  0.5165410000000 1.0
C      1  0.4848440000000  0.5126640000000  0.4342310000000 1.0
C      1  0.5215700000000  0.4886000000000  0.5667780000000 1.0
C      1  0.4564620000000  0.5146390000000  0.5376960000000 1.0
C      1  0.5545140000000  0.4897540000000  0.4668980000000 1.0
C      1  0.4433270000000  0.5501040000000  0.5232080000000 1.0
C      1  0.5552980000000  0.4534660000000  0.4833100000000 1.0
C      1  0.5051950000000  0.5053720000000  0.5159840000000 1.0
C      1  0.4917880000000  0.4942370000000  0.4799930000000 1.0
C      1  0.4312000000000  0.5163670000000  0.4364170000000 1.0
C      1  0.5698360000000  0.4869070000000  0.5645080000000 1.0
C      1  0.5217260000000  0.5160810000000  0.5627960000000 1.0
C      1  0.4823970000000  0.4841050000000  0.4350960000000 1.0
C      1  0.5414130000000  0.5505680000000  0.5301880000000 1.0
C      1  0.4599300000000  0.4489130000000  0.4655660000000 1.0
C      1  0.5142950000000  0.5672090000000  0.4824810000000 1.0
C      1  0.4817470000000  0.4271220000000  0.5119210000000 1.0
C      1  0.5327120000000  0.5336420000000  0.4421800000000 1.0
C      1  0.4697020000000  0.4625170000000  0.5544590000000 1.0
C      1  0.5385570000000  0.4284060000000  0.5109560000000 1.0
C      1  0.4598530000000  0.5726940000000  0.4910070000000 1.0
C      1  0.4766520000000  0.5515320000000  0.5204450000000 1.0
C      1  0.5220900000000  0.4491150000000  0.4810610000000 1.0
C      1  0.5161720000000  0.5514630000000  0.4601700000000 1.0
C      1  0.4806140000000  0.4445970000000  0.5328410000000 1.0
C      1  0.4833020000000  0.5245230000000  0.5084740000000 1.0
C      1  0.5079670000000  0.4720630000000  0.4941600000000 1.0
C      1  0.5449400000000  0.5258140000000  0.5494580000000 1.0
C      1  0.4598690000000  0.4768670000000  0.4510070000000 1.0
C      1  0.5258070000000  0.5232770000000  0.4867710000000 1.0
C      1  0.4655040000000  0.4739430000000  0.5102690000000 1.0
C      1  0.4953560000000  0.4745910000000  0.5265620000000 1.0
C      1  0.5014610000000  0.5209430000000  0.4631320000000 1.0
C      1  0.5591480000000  0.4828590000000  0.4999680000000 1.0
C      1  0.4392780000000  0.5195860000000  0.5087650000000 1.0
C      1  0.5132560000000  0.4210280000000  0.4948990000000 1.0
C      1  0.4869060000000  0.5783110000000  0.5036960000000 1.0
C      1  0.4544470000000  0.4523590000000  0.4971720000000 1.0
C      1  0.5413470000000  0.5424660000000  0.4984550000000 1.0
C      1  0.4789310000000  0.4947390000000  0.5487450000000 1.0
C      1  0.5270980000000  0.5014430000000  0.4515530000000 1.0
C      1  0.5262540000000  0.4686570000000  0.5394820000000 1.0
C      1  0.4686580000000  0.5292040000000  0.4667100000000 1.0
C      1  0.5392690000000  0.4619800000000  0.4545580000000 1.0
C      1  0.4629720000000  0.5449060000000  0.5508580000000 1.0
C      1  0.4912240000000  0.5261780000000  0.5537300000000 1.0
C      1  0.5095860000000  0.4728240000000  0.4459540000000 1.0
C      1  0.5117440000000  0.5512770000000  0.5469420000000 1.0
C      1  0.4897910000000  0.4474250000000  0.4491430000000 1.0
C      1  0.4193160000000  0.5069700000000  0.4843010000000 1.0
C      1  0.5755940000000  0.5013490000000  0.5191590000000 1.0
C      1  0.5295390000000  0.4956360000000  0.4987050000000 1.0
C      1  0.4637600000000  0.5008240000000  0.4944540000000 1.0
C      1  0.4584660000000  0.5273280000000  0.4350700000000 1.0
C      1  0.5466790000000  0.4707950000000  0.5665830000000 1.0
END
