TITL C-1154804-8633-247 6.29321685223819e-05 125000 -335.571162715549 0 0 60 (C1) n - 1
REM
REM in /home/nfs/bkarasulu/CARBON/AIRSS/Generating-Clusters/AIREBO/Higher-Symm/Only-C60
REM
REM
REM
REM
REM
REM ./C.cell (28575a23ae977d3b5fae324c64b13b57)
REM
REM compiler GCC version 9.2.1 20190827 (Red Hat 9.2.1-1)
REM options -cpp -mtune=generic -march=x86-64 -g -O0 -fpre-include=/usr/include/finclude/math-vector-fortran.h
REM seed 1707220681 319443918 -1630790508 -338122483 -1368434091 604698031 -1054198118 -967706618 -18587398 1654396573 -603244568 1929475341 1193020086 547459452 -341912022 2072543916 1734179997 -237335034 145983755 -196328673 1601921562 1135278011 -8958511 2122191987 1447258613 -124876822 19303092 -4628245 -1522033036 -1911630556 1753110458 -187468283 -1931197717
REM
CELL 1.54180   50.00000   50.00000   50.00000   90.00000   90.00000   90.00000
LATT -1
SFAC C  
C      1  0.5267660000000  0.5616900000000  0.5364630000000 1.0
C      1  0.5271790000000  0.4395110000000  0.4643330000000 1.0
C      1  0.4736590000000  0.5561850000000  0.5446910000000 1.0
C      1  0.4740920000000  0.4426450000000  0.4544160000000 1.0
C      1  0.5305580000000  0.4247530000000  0.4847090000000 1.0
C      1  0.5302780000000  0.5767930000000  0.5162530000000 1.0
C      1  0.4756590000000  0.4362820000000  0.4877970000000 1.0
C      1  0.4768290000000  0.5618600000000  0.5113010000000 1.0
C      1  0.4830450000000  0.4827540000000  0.5032500000000 1.0
C      1  0.4856790000000  0.5129460000000  0.4972030000000 1.0
C      1  0.5152470000000  0.4870880000000  0.5047250000000 1.0
C      1  0.5183140000000  0.5161720000000  0.4937410000000 1.0
C      1  0.5638640000000  0.5085970000000  0.5277090000000 1.0
C      1  0.5629370000000  0.4914920000000  0.4727470000000 1.0
C      1  0.4290210000000  0.5100030000000  0.5278180000000 1.0
C      1  0.4282710000000  0.4905570000000  0.4725870000000 1.0
C      1  0.5239830000000  0.4981720000000  0.5731770000000 1.0
C      1  0.5237740000000  0.5022480000000  0.4262020000000 1.0
C      1  0.4681760000000  0.4972420000000  0.5741950000000 1.0
C      1  0.4679720000000  0.5019910000000  0.4263790000000 1.0
C      1  0.5728620000000  0.5169950000000  0.4815290000000 1.0
C      1  0.5724610000000  0.4827620000000  0.5187110000000 1.0
C      1  0.4357080000000  0.5199040000000  0.4807940000000 1.0
C      1  0.4354670000000  0.4803380000000  0.5195890000000 1.0
C      1  0.5133450000000  0.5551640000000  0.4559960000000 1.0
C      1  0.5125410000000  0.4459410000000  0.5434770000000 1.0
C      1  0.4820650000000  0.5553740000000  0.4539100000000 1.0
C      1  0.4814710000000  0.4436370000000  0.5465210000000 1.0
C      1  0.5034700000000  0.4859980000000  0.4174030000000 1.0
C      1  0.5035620000000  0.5140820000000  0.5820600000000 1.0
C      1  0.4783740000000  0.4703460000000  0.4342740000000 1.0
C      1  0.4778420000000  0.5289010000000  0.5654090000000 1.0
C      1  0.5192820000000  0.4854130000000  0.5360010000000 1.0
C      1  0.5200970000000  0.5164330000000  0.4629320000000 1.0
C      1  0.4889790000000  0.4803150000000  0.5338830000000 1.0
C      1  0.4895090000000  0.5185540000000  0.4664310000000 1.0
C      1  0.5345050000000  0.5388660000000  0.5046190000000 1.0
C      1  0.5324370000000  0.4629000000000  0.4963120000000 1.0
C      1  0.4679630000000  0.5328510000000  0.5128560000000 1.0
C      1  0.4657470000000  0.4652200000000  0.4861780000000 1.0
C      1  0.4873250000000  0.5200460000000  0.5362910000000 1.0
C      1  0.4866550000000  0.4789430000000  0.4637880000000 1.0
C      1  0.5174540000000  0.5300200000000  0.5327100000000 1.0
C      1  0.5166010000000  0.4704900000000  0.4671970000000 1.0
C      1  0.5608770000000  0.4731370000000  0.4943490000000 1.0
C      1  0.5625230000000  0.5272800000000  0.5063140000000 1.0
C      1  0.4379060000000  0.4720350000000  0.4930040000000 1.0
C      1  0.4395590000000  0.5277580000000  0.5071750000000 1.0
C      1  0.5390200000000  0.5090640000000  0.5452060000000 1.0
C      1  0.5380650000000  0.4914520000000  0.4548790000000 1.0
C      1  0.4610390000000  0.4987590000000  0.5323570000000 1.0
C      1  0.4608900000000  0.5006870000000  0.4684390000000 1.0
C      1  0.5261400000000  0.5346720000000  0.4363650000000 1.0
C      1  0.5254360000000  0.4662160000000  0.5624090000000 1.0
C      1  0.4737830000000  0.5254660000000  0.4399770000000 1.0
C      1  0.4735980000000  0.4735960000000  0.5605980000000 1.0
C      1  0.4890490000000  0.5656360000000  0.4856290000000 1.0
C      1  0.4880660000000  0.4342380000000  0.5143990000000 1.0
C      1  0.5219030000000  0.5646160000000  0.4872100000000 1.0
C      1  0.5211190000000  0.4369100000000  0.5131230000000 1.0
END
