TITL C-1154830-9999-674 0.000170851948585109 125000 -310.438722657962 0 0 60 (C1) n - 1
REM
REM in /home/nfs/bkarasulu/CARBON/AIRSS/Generating-Clusters/AIREBO/Higher-Symm/Only-C60
REM
REM
REM
REM
REM
REM ./C.cell (28575a23ae977d3b5fae324c64b13b57)
REM
REM compiler GCC version 9.2.1 20190827 (Red Hat 9.2.1-1)
REM options -cpp -mtune=generic -march=x86-64 -g -O0 -fpre-include=/usr/include/finclude/math-vector-fortran.h
REM seed 740152255 -811512077 -272360963 1277697243 908792178 1183994991 790083023 2079986726 2100161530 -707106393 1500701464 68422368 538193901 -941687992 -674598784 247076440 1455236592 51767541 -1867644160 2037565306 -761805960 -1575608042 2086966057 1621182026 -438440792 -287941657 390325029 1191624801 317947282 -1360410379 1237936537 1837606652 -39142600
REM
CELL 1.54180   50.00000   50.00000   50.00000   90.00000   90.00000   90.00000
LATT -1
SFAC C  
C      1  0.5533410000000  0.4853720000000  0.5250170000000 1.0
C      1  0.5256640000000  0.4750500000000  0.4426370000000 1.0
C      1  0.4457070000000  0.4858050000000  0.4712550000000 1.0
C      1  0.4713820000000  0.4737600000000  0.5576710000000 1.0
C      1  0.5544840000000  0.5221470000000  0.4747340000000 1.0
C      1  0.5307550000000  0.5248730000000  0.5563230000000 1.0
C      1  0.4460340000000  0.5147190000000  0.5224220000000 1.0
C      1  0.4728730000000  0.5124630000000  0.4452540000000 1.0
C      1  0.4891210000000  0.5758010000000  0.4880880000000 1.0
C      1  0.4858740000000  0.5823610000000  0.5211710000000 1.0
C      1  0.5179060000000  0.5775920000000  0.5157470000000 1.0
C      1  0.5208550000000  0.5787920000000  0.4818580000000 1.0
C      1  0.4821740000000  0.4197460000000  0.5198210000000 1.0
C      1  0.4871450000000  0.4208190000000  0.4862330000000 1.0
C      1  0.5209600000000  0.4195580000000  0.4807250000000 1.0
C      1  0.5154800000000  0.4234490000000  0.5140550000000 1.0
C      1  0.4909170000000  0.5327130000000  0.5212090000000 1.0
C      1  0.5132630000000  0.5207700000000  0.5027340000000 1.0
C      1  0.4992140000000  0.5098510000000  0.4750120000000 1.0
C      1  0.4741240000000  0.5215150000000  0.4948170000000 1.0
C      1  0.5007590000000  0.4783530000000  0.4763010000000 1.0
C      1  0.5243310000000  0.4891170000000  0.4977360000000 1.0
C      1  0.4991510000000  0.4784770000000  0.5162410000000 1.0
C      1  0.4735000000000  0.4893620000000  0.5049170000000 1.0
C      1  0.4621130000000  0.4439930000000  0.5069490000000 1.0
C      1  0.5071090000000  0.4399470000000  0.5434450000000 1.0
C      1  0.5401360000000  0.4454450000000  0.4916070000000 1.0
C      1  0.4937000000000  0.4345300000000  0.4558140000000 1.0
C      1  0.4611800000000  0.5589640000000  0.5001840000000 1.0
C      1  0.5094370000000  0.5531630000000  0.4620270000000 1.0
C      1  0.5445220000000  0.5597760000000  0.5075140000000 1.0
C      1  0.4980430000000  0.5624030000000  0.5468270000000 1.0
C      1  0.4683040000000  0.5557550000000  0.5318750000000 1.0
C      1  0.5258710000000  0.5491000000000  0.5338740000000 1.0
C      1  0.5414730000000  0.5530520000000  0.4735750000000 1.0
C      1  0.4790010000000  0.5474170000000  0.4733340000000 1.0
C      1  0.4805600000000  0.4538460000000  0.4812140000000 1.0
C      1  0.5238180000000  0.4488060000000  0.4625420000000 1.0
C      1  0.5241810000000  0.4556220000000  0.5191620000000 1.0
C      1  0.4755190000000  0.4483900000000  0.5378840000000 1.0
C      1  0.4971740000000  0.5281320000000  0.5520800000000 1.0
C      1  0.5432660000000  0.5283170000000  0.5045100000000 1.0
C      1  0.5018190000000  0.5246080000000  0.4469500000000 1.0
C      1  0.4419300000000  0.5321530000000  0.4974270000000 1.0
C      1  0.4927350000000  0.4669590000000  0.4456400000000 1.0
C      1  0.5522600000000  0.4739400000000  0.4970620000000 1.0
C      1  0.5041500000000  0.4738170000000  0.5485980000000 1.0
C      1  0.4479150000000  0.4706150000000  0.4975760000000 1.0
C      1  0.4370340000000  0.4849030000000  0.5225140000000 1.0
C      1  0.5214870000000  0.4927560000000  0.5625520000000 1.0
C      1  0.5670210000000  0.4905460000000  0.4762480000000 1.0
C      1  0.4699970000000  0.4830060000000  0.4367710000000 1.0
C      1  0.4425090000000  0.5160160000000  0.4709720000000 1.0
C      1  0.5227050000000  0.5075820000000  0.4327000000000 1.0
C      1  0.5560220000000  0.5154750000000  0.5267990000000 1.0
C      1  0.4797950000000  0.5064690000000  0.5634110000000 1.0
C      1  0.5483100000000  0.4990390000000  0.4508710000000 1.0
C      1  0.4411770000000  0.5006220000000  0.4406830000000 1.0
C      1  0.4492710000000  0.4982200000000  0.5510640000000 1.0
C      1  0.5534470000000  0.4990510000000  0.5557660000000 1.0
END
