TITL C-1154801-8518-205 -6.49310431991276e-07 125000 -408.48027627481 0 0 60 (Ih) n - 1
REM
REM in /home/nfs/bkarasulu/CARBON/AIRSS/Generating-Clusters/AIREBO/Higher-Symm/Only-C60
REM
REM
REM
REM
REM
REM ./C.cell (28575a23ae977d3b5fae324c64b13b57)
REM
REM compiler GCC version 9.2.1 20190827 (Red Hat 9.2.1-1)
REM options -cpp -mtune=generic -march=x86-64 -g -O0 -fpre-include=/usr/include/finclude/math-vector-fortran.h
REM seed 1895585924 -974503701 983657284 1750223271 -1241779358 -54831663 -340925944 901803306 327128352 1895739564 -953442935 1988540255 -240939699 -786752643 -164313412 877594526 -969326249 -1360279859 -1486604649 1778488358 1819266286 -415810432 813166512 -280471253 -1097308913 -2018676537 -1630003090 -1798511886 109674963 233647651 -367580949 365398566 2073871124
REM
CELL 1.54180   50.00000   50.00000   50.00000   90.00000   90.00000   90.00000
LATT -1
SFAC C  
C      1  0.4854610000000  0.4480490000000  0.5460180000000 1.0
C      1  0.4481350000000  0.5461330000000  0.4855180000000 1.0
C      1  0.5461880000000  0.4856010000000  0.4481600000000 1.0
C      1  0.5143940000000  0.5518320000000  0.5461980000000 1.0
C      1  0.4856190000000  0.5519550000000  0.4539360000000 1.0
C      1  0.5145260000000  0.4481650000000  0.4538470000000 1.0
C      1  0.5519100000000  0.4539040000000  0.4855620000000 1.0
C      1  0.4480780000000  0.4538790000000  0.5143190000000 1.0
C      1  0.5518760000000  0.5460830000000  0.5146010000000 1.0
C      1  0.4539750000000  0.5145330000000  0.4480530000000 1.0
C      1  0.5460280000000  0.5143870000000  0.5519850000000 1.0
C      1  0.4538080000000  0.4854780000000  0.5518020000000 1.0
C      1  0.4856060000000  0.4481680000000  0.4538020000000 1.0
C      1  0.4480900000000  0.5460960000000  0.5144380000000 1.0
C      1  0.5460250000000  0.4854670000000  0.5519470000000 1.0
C      1  0.5145390000000  0.5519510000000  0.4539820000000 1.0
C      1  0.4854740000000  0.5518350000000  0.5461530000000 1.0
C      1  0.5143810000000  0.4480450000000  0.5460640000000 1.0
C      1  0.5518650000000  0.4538670000000  0.5144820000000 1.0
C      1  0.4481240000000  0.4539170000000  0.4853990000000 1.0
C      1  0.5519220000000  0.5461210000000  0.4856810000000 1.0
C      1  0.4538120000000  0.5143990000000  0.5518400000000 1.0
C      1  0.5461920000000  0.5145220000000  0.4481980000000 1.0
C      1  0.4539720000000  0.4856130000000  0.4480150000000 1.0
C      1  0.5606160000000  0.5234260000000  0.4716290000000 1.0
C      1  0.5232980000000  0.4714220000000  0.5605680000000 1.0
C      1  0.4714740000000  0.5605420000000  0.5234310000000 1.0
C      1  0.4394740000000  0.4766480000000  0.4713780000000 1.0
C      1  0.5605210000000  0.4765590000000  0.5285610000000 1.0
C      1  0.4393900000000  0.5233680000000  0.5284310000000 1.0
C      1  0.4765110000000  0.5284210000000  0.5605680000000 1.0
C      1  0.5234960000000  0.5285720000000  0.4395050000000 1.0
C      1  0.4766950000000  0.4715850000000  0.4393580000000 1.0
C      1  0.5284520000000  0.4393980000000  0.5233630000000 1.0
C      1  0.4715330000000  0.4394650000000  0.4764800000000 1.0
C      1  0.5285410000000  0.5605950000000  0.4767260000000 1.0
C      1  0.5605260000000  0.5233520000000  0.5286220000000 1.0
C      1  0.5234890000000  0.4715790000000  0.4394320000000 1.0
C      1  0.4715480000000  0.5606020000000  0.4766370000000 1.0
C      1  0.4393840000000  0.4765740000000  0.5283710000000 1.0
C      1  0.5606100000000  0.4766320000000  0.4715690000000 1.0
C      1  0.4394790000000  0.5234410000000  0.4714390000000 1.0
C      1  0.4767020000000  0.5285780000000  0.4394320000000 1.0
C      1  0.5233050000000  0.5284150000000  0.5606420000000 1.0
C      1  0.4765040000000  0.4714280000000  0.5604950000000 1.0
C      1  0.5285260000000  0.4394580000000  0.4765690000000 1.0
C      1  0.4714590000000  0.4394050000000  0.5232740000000 1.0
C      1  0.5284670000000  0.5605350000000  0.5235200000000 1.0
C      1  0.4998890000000  0.4858740000000  0.5694870000000 1.0
C      1  0.5001110000000  0.5141260000000  0.4305130000000 1.0
C      1  0.4859550000000  0.4304970000000  0.4998880000000 1.0
C      1  0.5140280000000  0.4304930000000  0.4999320000000 1.0
C      1  0.4859720000000  0.5695070000000  0.5000680000000 1.0
C      1  0.5001080000000  0.4860540000000  0.4304770000000 1.0
C      1  0.5140450000000  0.5695030000000  0.5001120000000 1.0
C      1  0.4998920000000  0.5139460000000  0.5695230000000 1.0
C      1  0.5694830000000  0.4999730000000  0.5141460000000 1.0
C      1  0.4304730000000  0.4999900000000  0.5139270000000 1.0
C      1  0.5695270000000  0.5000100000000  0.4860730000000 1.0
C      1  0.4305170000000  0.5000270000000  0.4858540000000 1.0
END
