TITL C-1154826-9507-91 -0.000690891453822598 125000 -303.27023857867 0 0 60 (C2) n - 1
REM
REM in /home/nfs/bkarasulu/CARBON/AIRSS/Generating-Clusters/AIREBO/Higher-Symm/Only-C60
REM
REM
REM
REM
REM
REM ./C.cell (28575a23ae977d3b5fae324c64b13b57)
REM
REM compiler GCC version 9.2.1 20190827 (Red Hat 9.2.1-1)
REM options -cpp -mtune=generic -march=x86-64 -g -O0 -fpre-include=/usr/include/finclude/math-vector-fortran.h
REM seed -1683669001 658279219 1889875179 1668003679 -1776688870 -767817689 123147451 1909393420 1674365007 -322553942 2126814294 892067617 -137475913 1887509876 -551217945 477072585 -349327827 -2020467295 1035659735 -770746838 1311738384 -1094111906 704842809 -2084372848 -1265837725 -401852671 -1721381164 2083406931 -1895521464 -2070008811 -405432215 1310399130 1969196664
REM
CELL 1.54180   50.00000   50.00000   50.00000   90.00000   90.00000   90.00000
LATT -1
SFAC C  
C      1  0.5232780000000  0.4786110000000  0.4902690000000 1.0
C      1  0.4931110000000  0.4729230000000  0.4780180000000 1.0
C      1  0.4714540000000  0.4932010000000  0.4776390000000 1.0
C      1  0.4770230000000  0.5215450000000  0.4902410000000 1.0
C      1  0.5070730000000  0.5271810000000  0.4779570000000 1.0
C      1  0.5287320000000  0.5069210000000  0.4776240000000 1.0
C      1  0.5306510000000  0.5562720000000  0.5075910000000 1.0
C      1  0.5628530000000  0.5000260000000  0.5068290000000 1.0
C      1  0.5364430000000  0.4430250000000  0.5025780000000 1.0
C      1  0.4690210000000  0.4438130000000  0.5077030000000 1.0
C      1  0.4371020000000  0.5001300000000  0.5069410000000 1.0
C      1  0.4638020000000  0.5571030000000  0.5025660000000 1.0
C      1  0.5128500000000  0.5302590000000  0.5555980000000 1.0
C      1  0.5333690000000  0.5044910000000  0.5549480000000 1.0
C      1  0.5197050000000  0.4749530000000  0.5541750000000 1.0
C      1  0.4870610000000  0.4695940000000  0.5555900000000 1.0
C      1  0.4665810000000  0.4953840000000  0.5550130000000 1.0
C      1  0.4802850000000  0.5249720000000  0.5541250000000 1.0
C      1  0.4955270000000  0.5646830000000  0.5459760000000 1.0
C      1  0.5550490000000  0.5368380000000  0.5472980000000 1.0
C      1  0.5581190000000  0.4715750000000  0.5447440000000 1.0
C      1  0.5044110000000  0.4352540000000  0.5457790000000 1.0
C      1  0.4447780000000  0.4631130000000  0.5473960000000 1.0
C      1  0.4418770000000  0.5283720000000  0.5446640000000 1.0
C      1  0.4360370000000  0.4951760000000  0.5400660000000 1.0
C      1  0.4665800000000  0.5500670000000  0.5357160000000 1.0
C      1  0.5282090000000  0.5566810000000  0.5406830000000 1.0
C      1  0.5638880000000  0.5047560000000  0.5399470000000 1.0
C      1  0.5334290000000  0.4498840000000  0.5357440000000 1.0
C      1  0.4716570000000  0.4431360000000  0.5407830000000 1.0
C      1  0.4774110000000  0.5142680000000  0.5219190000000 1.0
C      1  0.5033410000000  0.5314010000000  0.5227210000000 1.0
C      1  0.5296840000000  0.5154640000000  0.5229720000000 1.0
C      1  0.5224390000000  0.4856150000000  0.5218790000000 1.0
C      1  0.4965160000000  0.4684490000000  0.5228980000000 1.0
C      1  0.4702020000000  0.4844640000000  0.5230120000000 1.0
C      1  0.4697540000000  0.5305960000000  0.4480950000000 1.0
C      1  0.5075260000000  0.5434530000000  0.4499850000000 1.0
C      1  0.5439940000000  0.5067640000000  0.4493150000000 1.0
C      1  0.5302220000000  0.4694100000000  0.4481250000000 1.0
C      1  0.4924560000000  0.4565590000000  0.4501220000000 1.0
C      1  0.4560800000000  0.4932140000000  0.4493880000000 1.0
C      1  0.5239030000000  0.5237580000000  0.4282470000000 1.0
C      1  0.5308610000000  0.4913930000000  0.4219790000000 1.0
C      1  0.5081360000000  0.4673610000000  0.4223530000000 1.0
C      1  0.4760670000000  0.4761720000000  0.4282920000000 1.0
C      1  0.4690860000000  0.5085530000000  0.4219940000000 1.0
C      1  0.4918220000000  0.5325470000000  0.4223000000000 1.0
C      1  0.4701850000000  0.5482630000000  0.4703500000000 1.0
C      1  0.5158510000000  0.5605730000000  0.4772830000000 1.0
C      1  0.5619490000000  0.5157710000000  0.4762890000000 1.0
C      1  0.5298200000000  0.4518050000000  0.4703950000000 1.0
C      1  0.4841750000000  0.4395750000000  0.4775610000000 1.0
C      1  0.4381850000000  0.4844290000000  0.4763860000000 1.0
C      1  0.5495020000000  0.5311220000000  0.5035330000000 1.0
C      1  0.5555680000000  0.4708580000000  0.4976120000000 1.0
C      1  0.5035730000000  0.4450130000000  0.5046580000000 1.0
C      1  0.4502490000000  0.4689440000000  0.5036680000000 1.0
C      1  0.4447590000000  0.5291680000000  0.4978320000000 1.0
C      1  0.4967300000000  0.5550980000000  0.5046340000000 1.0
END
