TITL C-1154829-9094-309 0.000127133661768175 125000 -350.772984472479 0 0 60 (C1) n - 1
REM
REM in /home/nfs/bkarasulu/CARBON/AIRSS/Generating-Clusters/AIREBO/Higher-Symm/Only-C60
REM
REM
REM
REM
REM
REM ./C.cell (28575a23ae977d3b5fae324c64b13b57)
REM
REM compiler GCC version 9.2.1 20190827 (Red Hat 9.2.1-1)
REM options -cpp -mtune=generic -march=x86-64 -g -O0 -fpre-include=/usr/include/finclude/math-vector-fortran.h
REM seed -496943363 811966558 830877255 -137986198 493231306 877836018 -2061135981 493567389 -2090738237 1539438604 -1250138539 -1775182026 925855530 -600908761 205360133 -710041001 1749149312 869858317 506250023 -455428169 -1669370509 -1249122779 -1933873207 -799523991 2098073632 -505221522 1554301065 -2041973533 938567705 -968623744 909005598 1975766901 523203961
REM
CELL 1.54180   50.00000   50.00000   50.00000   90.00000   90.00000   90.00000
LATT -1
SFAC C  
C      1  0.4482860000000  0.4692230000000  0.4654160000000 1.0
C      1  0.4505630000000  0.4530480000000  0.5118560000000 1.0
C      1  0.4652880000000  0.4818590000000  0.5479160000000 1.0
C      1  0.4592750000000  0.5305490000000  0.5359930000000 1.0
C      1  0.4568760000000  0.5555870000000  0.4896120000000 1.0
C      1  0.4599950000000  0.5202340000000  0.4512760000000 1.0
C      1  0.4502920000000  0.5401390000000  0.4675450000000 1.0
C      1  0.4515430000000  0.5467910000000  0.5151930000000 1.0
C      1  0.4504150000000  0.5045320000000  0.5410410000000 1.0
C      1  0.4631590000000  0.4567510000000  0.5365680000000 1.0
C      1  0.4551990000000  0.4506470000000  0.4846360000000 1.0
C      1  0.4569630000000  0.4914550000000  0.4525550000000 1.0
C      1  0.4862990000000  0.4790250000000  0.4112070000000 1.0
C      1  0.4712610000000  0.4041090000000  0.4816420000000 1.0
C      1  0.4686480000000  0.4230310000000  0.5705710000000 1.0
C      1  0.4802630000000  0.5230860000000  0.6001870000000 1.0
C      1  0.4952650000000  0.6023080000000  0.5283630000000 1.0
C      1  0.5093290000000  0.5665100000000  0.4216860000000 1.0
C      1  0.4697260000000  0.5323820000000  0.4034910000000 1.0
C      1  0.4765820000000  0.5949130000000  0.4675740000000 1.0
C      1  0.4793970000000  0.5647460000000  0.5647770000000 1.0
C      1  0.4937660000000  0.4717830000000  0.5869550000000 1.0
C      1  0.5071580000000  0.3980690000000  0.5350370000000 1.0
C      1  0.4932800000000  0.4288690000000  0.4271690000000 1.0
C      1  0.4832010000000  0.5391700000000  0.5529590000000 1.0
C      1  0.4800290000000  0.5742110000000  0.4859600000000 1.0
C      1  0.4809290000000  0.5269380000000  0.4287150000000 1.0
C      1  0.4961280000000  0.4374200000000  0.4515470000000 1.0
C      1  0.4999170000000  0.4245310000000  0.5344030000000 1.0
C      1  0.4896150000000  0.4890880000000  0.5648140000000 1.0
C      1  0.4771830000000  0.4341260000000  0.5474460000000 1.0
C      1  0.4769180000000  0.4311150000000  0.4776120000000 1.0
C      1  0.4850890000000  0.4937070000000  0.4352770000000 1.0
C      1  0.5035030000000  0.5454450000000  0.4360660000000 1.0
C      1  0.4984620000000  0.5821230000000  0.5123170000000 1.0
C      1  0.4849650000000  0.5177210000000  0.5750330000000 1.0
C      1  0.5618190000000  0.4808500000000  0.4564330000000 1.0
C      1  0.5567680000000  0.4422170000000  0.4861690000000 1.0
C      1  0.5544260000000  0.4703130000000  0.5290720000000 1.0
C      1  0.5535090000000  0.5172850000000  0.5409400000000 1.0
C      1  0.5491530000000  0.5562280000000  0.5126830000000 1.0
C      1  0.5501680000000  0.5376790000000  0.4666740000000 1.0
C      1  0.5532010000000  0.5068170000000  0.4617300000000 1.0
C      1  0.5594470000000  0.5549900000000  0.4865350000000 1.0
C      1  0.5625700000000  0.5428530000000  0.5334640000000 1.0
C      1  0.5671370000000  0.4924910000000  0.5401650000000 1.0
C      1  0.5482060000000  0.4453800000000  0.5126800000000 1.0
C      1  0.5473320000000  0.4582830000000  0.4651250000000 1.0
C      1  0.5040750000000  0.4446320000000  0.4889180000000 1.0
C      1  0.5244490000000  0.4694140000000  0.5333360000000 1.0
C      1  0.5253620000000  0.5153680000000  0.5428390000000 1.0
C      1  0.5187390000000  0.5564100000000  0.5152670000000 1.0
C      1  0.5167330000000  0.5399490000000  0.4622940000000 1.0
C      1  0.5078230000000  0.4878680000000  0.4545780000000 1.0
C      1  0.5060910000000  0.5554640000000  0.4850480000000 1.0
C      1  0.5094150000000  0.5374870000000  0.5371760000000 1.0
C      1  0.5136360000000  0.4903270000000  0.5466240000000 1.0
C      1  0.5149720000000  0.4432260000000  0.5166780000000 1.0
C      1  0.5169240000000  0.4601660000000  0.4628420000000 1.0
C      1  0.5232700000000  0.5090600000000  0.4623150000000 1.0
END
