TITL C-1154808-8168-548 -0.000754463610289217 125000 -307.1800021263 0 0 60 (C1) n - 1
REM
REM in /home/nfs/bkarasulu/CARBON/AIRSS/Generating-Clusters/AIREBO/Higher-Symm/Only-C60
REM
REM
REM
REM
REM
REM ./C.cell (28575a23ae977d3b5fae324c64b13b57)
REM
REM compiler GCC version 9.2.1 20190827 (Red Hat 9.2.1-1)
REM options -cpp -mtune=generic -march=x86-64 -g -O0 -fpre-include=/usr/include/finclude/math-vector-fortran.h
REM seed 96801025 -1291559256 -1687607999 -171912326 -1236727286 1462556721 1502281976 111798108 1978574205 1285534920 -602732696 -245884110 -1822090065 1941855151 -170386291 1935413940 -1977694209 -97985369 -1151660656 -1439468009 1880868910 2132432196 1518283153 -826175630 -29273719 2053297231 209377078 -1068877739 754146271 773594962 45876179 -1422418495 992566766
REM
CELL 1.54180   50.00000   50.00000   50.00000   90.00000   90.00000   90.00000
LATT -1
SFAC C  
C      1  0.4823090000000  0.6025170000000  0.4543450000000 1.0
C      1  0.5056270000000  0.6082880000000  0.5336150000000 1.0
C      1  0.4791890000000  0.3947860000000  0.4615890000000 1.0
C      1  0.5157030000000  0.3917190000000  0.5256190000000 1.0
C      1  0.4784850000000  0.6044930000000  0.5290920000000 1.0
C      1  0.5082400000000  0.6088640000000  0.4614450000000 1.0
C      1  0.4904000000000  0.3850730000000  0.5350530000000 1.0
C      1  0.5060380000000  0.4000190000000  0.4567580000000 1.0
C      1  0.5295820000000  0.5632720000000  0.5220960000000 1.0
C      1  0.4887600000000  0.5491200000000  0.4792420000000 1.0
C      1  0.5228260000000  0.4456010000000  0.5133330000000 1.0
C      1  0.4660840000000  0.4370450000000  0.4897140000000 1.0
C      1  0.5316370000000  0.5650390000000  0.4911300000000 1.0
C      1  0.4817030000000  0.5576470000000  0.5099950000000 1.0
C      1  0.5134780000000  0.4483130000000  0.4805380000000 1.0
C      1  0.4666530000000  0.4397780000000  0.5192970000000 1.0
C      1  0.5158430000000  0.4870050000000  0.5580300000000 1.0
C      1  0.4823760000000  0.4779800000000  0.4446160000000 1.0
C      1  0.5211300000000  0.5200370000000  0.5588310000000 1.0
C      1  0.4862470000000  0.5100520000000  0.4435310000000 1.0
C      1  0.5149180000000  0.4837370000000  0.4526340000000 1.0
C      1  0.4817950000000  0.4843290000000  0.5542980000000 1.0
C      1  0.5193100000000  0.5168950000000  0.4460300000000 1.0
C      1  0.4893790000000  0.5162170000000  0.5513180000000 1.0
C      1  0.4675370000000  0.4076620000000  0.4833880000000 1.0
C      1  0.5143880000000  0.4166260000000  0.5048600000000 1.0
C      1  0.4838680000000  0.5826540000000  0.4793800000000 1.0
C      1  0.5234700000000  0.5933140000000  0.5178360000000 1.0
C      1  0.4822410000000  0.4100220000000  0.5140150000000 1.0
C      1  0.5186800000000  0.4168110000000  0.4734360000000 1.0
C      1  0.4713650000000  0.5854580000000  0.5099730000000 1.0
C      1  0.5182870000000  0.5936550000000  0.4858280000000 1.0
C      1  0.5230060000000  0.5150300000000  0.5252480000000 1.0
C      1  0.4788940000000  0.5206130000000  0.4880680000000 1.0
C      1  0.5219220000000  0.4855360000000  0.5151660000000 1.0
C      1  0.4772810000000  0.4890990000000  0.4763480000000 1.0
C      1  0.5244970000000  0.5117810000000  0.4792420000000 1.0
C      1  0.4839160000000  0.5188910000000  0.5184940000000 1.0
C      1  0.5154460000000  0.4809720000000  0.4865170000000 1.0
C      1  0.4786390000000  0.4678800000000  0.5266080000000 1.0
C      1  0.5558290000000  0.5240530000000  0.5205680000000 1.0
C      1  0.4467710000000  0.5142600000000  0.4811170000000 1.0
C      1  0.5539730000000  0.4909710000000  0.5174510000000 1.0
C      1  0.4457010000000  0.4805630000000  0.4856200000000 1.0
C      1  0.5560230000000  0.5179440000000  0.4873320000000 1.0
C      1  0.4520860000000  0.5074640000000  0.5144740000000 1.0
C      1  0.5587430000000  0.4849930000000  0.4842830000000 1.0
C      1  0.4463390000000  0.4741710000000  0.5182960000000 1.0
C      1  0.5472190000000  0.5353460000000  0.5490690000000 1.0
C      1  0.4622670000000  0.5224680000000  0.4519550000000 1.0
C      1  0.5442050000000  0.4779120000000  0.5472860000000 1.0
C      1  0.4505980000000  0.4702320000000  0.4543360000000 1.0
C      1  0.5505260000000  0.5272940000000  0.4547650000000 1.0
C      1  0.4558670000000  0.5178680000000  0.5458150000000 1.0
C      1  0.5461030000000  0.4739580000000  0.4620570000000 1.0
C      1  0.4502250000000  0.4788110000000  0.5518150000000 1.0
C      1  0.5187190000000  0.5439990000000  0.4778270000000 1.0
C      1  0.5092020000000  0.4636790000000  0.5341790000000 1.0
C      1  0.5051850000000  0.5439420000000  0.5272300000000 1.0
C      1  0.4832660000000  0.4562430000000  0.4779700000000 1.0
END
