TITL C-1154801-8518-641 0.000838141084405942 125000 -330.781444630221 0 0 60 (C2) n - 1
REM
REM in /home/nfs/bkarasulu/CARBON/AIRSS/Generating-Clusters/AIREBO/Higher-Symm/Only-C60
REM
REM
REM
REM
REM
REM ./C.cell (28575a23ae977d3b5fae324c64b13b57)
REM
REM compiler GCC version 9.2.1 20190827 (Red Hat 9.2.1-1)
REM options -cpp -mtune=generic -march=x86-64 -g -O0 -fpre-include=/usr/include/finclude/math-vector-fortran.h
REM seed 641054706 1387356025 1233107027 186799987 -1428970850 -565010393 345905397 -934920224 -1396739475 731881303 1360000883 -560224920 152874072 -878136628 -1519508500 1371192762 -1360350503 1616804069 -2083979278 -913687791 -1714859535 -1914303008 -1273679913 -999184914 -165689183 -982322280 1041382466 1058361420 -194713848 2044305690 49374783 -1977254716 1226488042
REM
CELL 1.54180   50.00000   50.00000   50.00000   90.00000   90.00000   90.00000
LATT -1
SFAC C  
C      1  0.5016690000000  0.5386470000000  0.4516040000000 1.0
C      1  0.4592100000000  0.5028210000000  0.4491180000000 1.0
C      1  0.4985440000000  0.4605310000000  0.4440080000000 1.0
C      1  0.5431100000000  0.4977370000000  0.4455100000000 1.0
C      1  0.4983190000000  0.5386740000000  0.5446000000000 1.0
C      1  0.5407890000000  0.5028650000000  0.5471080000000 1.0
C      1  0.5014680000000  0.4605650000000  0.5522440000000 1.0
C      1  0.4568900000000  0.4977550000000  0.5507190000000 1.0
C      1  0.4680850000000  0.5486630000000  0.5433410000000 1.0
C      1  0.4496030000000  0.4667250000000  0.5507590000000 1.0
C      1  0.5320100000000  0.4521120000000  0.5513390000000 1.0
C      1  0.5497560000000  0.5332050000000  0.5444330000000 1.0
C      1  0.5319000000000  0.5486460000000  0.4528560000000 1.0
C      1  0.5504070000000  0.4667090000000  0.4454890000000 1.0
C      1  0.4680050000000  0.4520690000000  0.4449180000000 1.0
C      1  0.4502340000000  0.5331600000000  0.4517740000000 1.0
C      1  0.4472050000000  0.5242490000000  0.5363300000000 1.0
C      1  0.4742760000000  0.4487300000000  0.5396510000000 1.0
C      1  0.5503550000000  0.4738760000000  0.5365490000000 1.0
C      1  0.5243560000000  0.5532360000000  0.5376050000000 1.0
C      1  0.5527870000000  0.5242420000000  0.4598820000000 1.0
C      1  0.5257400000000  0.4487130000000  0.4566080000000 1.0
C      1  0.4496530000000  0.4738370000000  0.4596950000000 1.0
C      1  0.4756270000000  0.5532040000000  0.4585900000000 1.0
C      1  0.5201170000000  0.5760060000000  0.5134710000000 1.0
C      1  0.4240220000000  0.5189960000000  0.5126950000000 1.0
C      1  0.4813230000000  0.4257560000000  0.5157950000000 1.0
C      1  0.5757770000000  0.4789250000000  0.5150850000000 1.0
C      1  0.4798590000000  0.5759900000000  0.4827100000000 1.0
C      1  0.5759720000000  0.5190120000000  0.4835210000000 1.0
C      1  0.5187010000000  0.4257510000000  0.4804780000000 1.0
C      1  0.4242300000000  0.4788900000000  0.4811560000000 1.0
C      1  0.4998070000000  0.4821520000000  0.5743460000000 1.0
C      1  0.5235420000000  0.5021740000000  0.5724490000000 1.0
C      1  0.4996780000000  0.5217070000000  0.5706360000000 1.0
C      1  0.4759040000000  0.5020610000000  0.5741170000000 1.0
C      1  0.5001980000000  0.4821050000000  0.4218930000000 1.0
C      1  0.4764570000000  0.5021210000000  0.4237770000000 1.0
C      1  0.5003150000000  0.5216620000000  0.4255780000000 1.0
C      1  0.5240960000000  0.5020220000000  0.4221090000000 1.0
C      1  0.5022120000000  0.5171200000000  0.4735100000000 1.0
C      1  0.4785920000000  0.4977700000000  0.4733730000000 1.0
C      1  0.5017380000000  0.4775640000000  0.4702920000000 1.0
C      1  0.5253270000000  0.4976120000000  0.4715400000000 1.0
C      1  0.4977830000000  0.5171350000000  0.5227070000000 1.0
C      1  0.5214090000000  0.4977920000000  0.5228560000000 1.0
C      1  0.4982690000000  0.4775810000000  0.5259500000000 1.0
C      1  0.4746740000000  0.4976210000000  0.5246890000000 1.0
C      1  0.5529060000000  0.4600250000000  0.5057120000000 1.0
C      1  0.5411300000000  0.5536890000000  0.5077610000000 1.0
C      1  0.4457350000000  0.5405370000000  0.5063590000000 1.0
C      1  0.4597570000000  0.4469630000000  0.5088380000000 1.0
C      1  0.4471070000000  0.4600040000000  0.4905400000000 1.0
C      1  0.4588530000000  0.5536700000000  0.4884340000000 1.0
C      1  0.5542520000000  0.5405490000000  0.4898440000000 1.0
C      1  0.5402600000000  0.4469690000000  0.4874230000000 1.0
C      1  0.4999860000000  0.5862710000000  0.4980870000000 1.0
C      1  0.4141160000000  0.4992210000000  0.4966120000000 1.0
C      1  0.5000130000000  0.4163560000000  0.4981390000000 1.0
C      1  0.5858850000000  0.4992490000000  0.4996160000000 1.0
END
