TITL C-1154816-9297-66 -0.000765226727294359 125000 -331.451610622683 0 0 60 (C1) n - 1
REM
REM in /home/nfs/bkarasulu/CARBON/AIRSS/Generating-Clusters/AIREBO/Higher-Symm/Only-C60
REM
REM
REM
REM
REM
REM ./C.cell (28575a23ae977d3b5fae324c64b13b57)
REM
REM compiler GCC version 9.2.1 20190827 (Red Hat 9.2.1-1)
REM options -cpp -mtune=generic -march=x86-64 -g -O0 -fpre-include=/usr/include/finclude/math-vector-fortran.h
REM seed -1100277112 1158041298 -1133555063 -1565672086 -2127526642 -892491619 651737138 -794468415 -1680136945 -1902757924 2067431137 931826081 -1096021777 -1059480159 -437373525 3461888 -273729993 1819399666 956570761 559200018 1380514734 805160793 1107440261 -1273556943 1110483001 728008568 -849102012 -74918286 1956767383 24919868 1862750045 -40072329 -815915559
REM
CELL 1.54180   50.00000   50.00000   50.00000   90.00000   90.00000   90.00000
LATT -1
SFAC C  
C      1  0.5518790000000  0.4508420000000  0.4050510000000 1.0
C      1  0.5084160000000  0.4311370000000  0.5216700000000 1.0
C      1  0.5165660000000  0.5832330000000  0.5014370000000 1.0
C      1  0.4835240000000  0.5332200000000  0.5340030000000 1.0
C      1  0.5425660000000  0.4670170000000  0.5213490000000 1.0
C      1  0.5010800000000  0.4956180000000  0.5074080000000 1.0
C      1  0.4222910000000  0.4640450000000  0.4826730000000 1.0
C      1  0.5297550000000  0.4420840000000  0.5363730000000 1.0
C      1  0.4440390000000  0.5384890000000  0.4719080000000 1.0
C      1  0.5292930000000  0.4400260000000  0.5642700000000 1.0
C      1  0.5438750000000  0.5405410000000  0.5459610000000 1.0
C      1  0.4752640000000  0.4825160000000  0.4153560000000 1.0
C      1  0.4567720000000  0.5199280000000  0.5220470000000 1.0
C      1  0.4797010000000  0.5709320000000  0.4720380000000 1.0
C      1  0.5337710000000  0.5079550000000  0.4880120000000 1.0
C      1  0.4622050000000  0.5856270000000  0.4889610000000 1.0
C      1  0.4694100000000  0.5463050000000  0.4623620000000 1.0
C      1  0.4390950000000  0.5328680000000  0.4981120000000 1.0
C      1  0.4917740000000  0.5277450000000  0.5957940000000 1.0
C      1  0.4841820000000  0.4995070000000  0.4604900000000 1.0
C      1  0.4614200000000  0.4622720000000  0.4753250000000 1.0
C      1  0.5645380000000  0.5393630000000  0.4707650000000 1.0
C      1  0.4534820000000  0.5500680000000  0.5628450000000 1.0
C      1  0.5215980000000  0.5464340000000  0.5313880000000 1.0
C      1  0.5252460000000  0.4760060000000  0.4941260000000 1.0
C      1  0.5125210000000  0.4576280000000  0.4439700000000 1.0
C      1  0.5248070000000  0.4918970000000  0.4283100000000 1.0
C      1  0.4443650000000  0.4446200000000  0.4990470000000 1.0
C      1  0.5149160000000  0.5349580000000  0.4794940000000 1.0
C      1  0.5069140000000  0.5676100000000  0.4800980000000 1.0
C      1  0.5134560000000  0.4783550000000  0.5321240000000 1.0
C      1  0.4767660000000  0.4873280000000  0.4877670000000 1.0
C      1  0.5145420000000  0.4268330000000  0.4944210000000 1.0
C      1  0.4578700000000  0.5766100000000  0.5140950000000 1.0
C      1  0.5100450000000  0.4543310000000  0.5776370000000 1.0
C      1  0.4356470000000  0.4752760000000  0.5098270000000 1.0
C      1  0.4342670000000  0.4704110000000  0.4565260000000 1.0
C      1  0.5065910000000  0.5259170000000  0.5112090000000 1.0
C      1  0.5102290000000  0.5731440000000  0.5269790000000 1.0
C      1  0.4966880000000  0.5027070000000  0.5774190000000 1.0
C      1  0.4849550000000  0.4508410000000  0.4610330000000 1.0
C      1  0.5653500000000  0.5199900000000  0.4917500000000 1.0
C      1  0.5953880000000  0.4592410000000  0.5304680000000 1.0
C      1  0.4893280000000  0.5267110000000  0.4619040000000 1.0
C      1  0.4802670000000  0.4711190000000  0.5349980000000 1.0
C      1  0.4824010000000  0.4402800000000  0.5280410000000 1.0
C      1  0.5148560000000  0.4524830000000  0.4770810000000 1.0
C      1  0.5739210000000  0.4681640000000  0.5190990000000 1.0
C      1  0.4614510000000  0.4902800000000  0.5165740000000 1.0
C      1  0.5544430000000  0.4911570000000  0.4665280000000 1.0
C      1  0.5397070000000  0.5341180000000  0.4562360000000 1.0
C      1  0.4990400000000  0.4786660000000  0.5621170000000 1.0
C      1  0.4935910000000  0.4848430000000  0.4362580000000 1.0
C      1  0.4821100000000  0.5638710000000  0.5298890000000 1.0
C      1  0.5644310000000  0.4874160000000  0.4976070000000 1.0
C      1  0.4597550000000  0.4285670000000  0.5188990000000 1.0
C      1  0.4845330000000  0.5288400000000  0.5638740000000 1.0
C      1  0.5347170000000  0.4637610000000  0.4209980000000 1.0
C      1  0.4479980000000  0.5511280000000  0.5324470000000 1.0
C      1  0.5403890000000  0.5071220000000  0.4455540000000 1.0
END
