TITL C-1154827-9204-406 -0.00564810190535699 125000 -303.704374994419 0 0 60 (C1) n - 1
REM
REM in /home/nfs/bkarasulu/CARBON/AIRSS/Generating-Clusters/AIREBO/Higher-Symm/Only-C60
REM
REM
REM
REM
REM
REM ./C.cell (28575a23ae977d3b5fae324c64b13b57)
REM
REM compiler GCC version 9.2.1 20190827 (Red Hat 9.2.1-1)
REM options -cpp -mtune=generic -march=x86-64 -g -O0 -fpre-include=/usr/include/finclude/math-vector-fortran.h
REM seed 1350357997 -954090529 1744772957 -1474096660 2138811741 636210440 -896978912 1855377230 282823476 -109058420 470214203 672344000 116803050 -1493769847 788154487 1686761317 -1241436670 1561955130 949579225 -1966701817 -1728301634 -1198784605 -527019849 378948581 -900289904 1703387924 -56122678 -1602220597 -433281843 -1279192127 419975052 -263885544 19520806
REM
CELL 1.54180   50.00000   50.00000   50.00000   90.00000   90.00000   90.00000
LATT -1
SFAC C  
C      1  0.4766100000000  0.4727840000000  0.5005060000000 1.0
C      1  0.4971330000000  0.4759740000000  0.5274500000000 1.0
C      1  0.5293750000000  0.4806600000000  0.4906500000000 1.0
C      1  0.4997530000000  0.4734510000000  0.4755770000000 1.0
C      1  0.5581340000000  0.5303430000000  0.5095530000000 1.0
C      1  0.5084660000000  0.5399220000000  0.4385370000000 1.0
C      1  0.4294740000000  0.5353540000000  0.4947680000000 1.0
C      1  0.5095130000000  0.5271500000000  0.5623950000000 1.0
C      1  0.5529830000000  0.4990500000000  0.5570160000000 1.0
C      1  0.5505060000000  0.5004350000000  0.4426510000000 1.0
C      1  0.4559950000000  0.5029030000000  0.4571820000000 1.0
C      1  0.4510900000000  0.5058080000000  0.5405360000000 1.0
C      1  0.5068560000000  0.4768710000000  0.5600240000000 1.0
C      1  0.5622460000000  0.4721880000000  0.4926520000000 1.0
C      1  0.4928230000000  0.4637790000000  0.4437060000000 1.0
C      1  0.4428240000000  0.4687750000000  0.5012350000000 1.0
C      1  0.4708830000000  0.4438790000000  0.4594140000000 1.0
C      1  0.4514590000000  0.4514910000000  0.5289600000000 1.0
C      1  0.5391970000000  0.4545530000000  0.5373600000000 1.0
C      1  0.5476580000000  0.4529400000000  0.4684970000000 1.0
C      1  0.4109480000000  0.5383200000000  0.5196480000000 1.0
C      1  0.5390060000000  0.5216670000000  0.5708070000000 1.0
C      1  0.5707150000000  0.5263560000000  0.4810940000000 1.0
C      1  0.4812540000000  0.5219690000000  0.4328780000000 1.0
C      1  0.5773000000000  0.4781380000000  0.5453860000000 1.0
C      1  0.5378790000000  0.4857160000000  0.4151830000000 1.0
C      1  0.4245290000000  0.4923910000000  0.4485440000000 1.0
C      1  0.4575260000000  0.4931980000000  0.5718690000000 1.0
C      1  0.4823530000000  0.5153240000000  0.5499450000000 1.0
C      1  0.5635860000000  0.5100450000000  0.5266430000000 1.0
C      1  0.5177970000000  0.5088770000000  0.4402370000000 1.0
C      1  0.4429810000000  0.5097230000000  0.4878480000000 1.0
C      1  0.5210110000000  0.4475030000000  0.4699380000000 1.0
C      1  0.4717460000000  0.4421170000000  0.4866420000000 1.0
C      1  0.4770490000000  0.4504640000000  0.5375590000000 1.0
C      1  0.5238770000000  0.4628090000000  0.5161120000000 1.0
C      1  0.4873840000000  0.4921570000000  0.5741100000000 1.0
C      1  0.5767810000000  0.4840560000000  0.5151880000000 1.0
C      1  0.5100050000000  0.4791330000000  0.4256760000000 1.0
C      1  0.4278970000000  0.4832520000000  0.4776090000000 1.0
C      1  0.4625990000000  0.5026700000000  0.5086930000000 1.0
C      1  0.5056990000000  0.5088890000000  0.5260780000000 1.0
C      1  0.5436840000000  0.5057360000000  0.4816700000000 1.0
C      1  0.4899340000000  0.5009570000000  0.4581640000000 1.0
C      1  0.5195460000000  0.5383730000000  0.5160800000000 1.0
C      1  0.5026660000000  0.5514800000000  0.4896190000000 1.0
C      1  0.4751440000000  0.5511130000000  0.5089890000000 1.0
C      1  0.4834310000000  0.5232550000000  0.5102080000000 1.0
C      1  0.5351120000000  0.4726620000000  0.5592890000000 1.0
C      1  0.5635220000000  0.4793320000000  0.4594330000000 1.0
C      1  0.4603910000000  0.4713940000000  0.4451720000000 1.0
C      1  0.4339840000000  0.4781590000000  0.5327630000000 1.0
C      1  0.4358450000000  0.5336480000000  0.5380320000000 1.0
C      1  0.5489240000000  0.5511040000000  0.5643030000000 1.0
C      1  0.5461590000000  0.5303390000000  0.4582570000000 1.0
C      1  0.4611060000000  0.5366310000000  0.4533530000000 1.0
C      1  0.5243370000000  0.5478220000000  0.5446960000000 1.0
C      1  0.5358450000000  0.5439540000000  0.4876800000000 1.0
C      1  0.4897430000000  0.5479890000000  0.4616770000000 1.0
C      1  0.4477270000000  0.5529710000000  0.5142610000000 1.0
END
