TITL C-1154823-9327-451 69.6260223285352 125000 -296.000500874443 0 0 60 (C1) n - 1
REM
REM in /home/nfs/bkarasulu/CARBON/AIRSS/Generating-Clusters/AIREBO/Higher-Symm/Only-C60
REM
REM
REM
REM
REM
REM ./C.cell (28575a23ae977d3b5fae324c64b13b57)
REM
REM compiler GCC version 9.2.1 20190827 (Red Hat 9.2.1-1)
REM options -cpp -mtune=generic -march=x86-64 -g -O0 -fpre-include=/usr/include/finclude/math-vector-fortran.h
REM seed 1785328356 1165721347 394348165 -580143021 324651255 1622586565 -101924272 -1687976536 -852805133 845809632 1471776107 1602582879 439642362 1944398342 1479318728 80449237 1494661739 -459934205 69073740 408652188 189694687 -769335755 1982368030 -234564395 997261552 1485848066 -1255080821 58018495 252048476 -485869892 416217079 743473781 -1354460645
REM
CELL 1.54180   50.00000   50.00000   50.00000   90.00000   90.00000   90.00000
LATT -1
SFAC C  
C      1  0.4866550000000  0.4720060000000  0.4805120000000 1.0
C      1  0.4887280000000  0.4715530000000  0.5144780000000 1.0
C      1  0.5212140000000  0.4785180000000  0.5070750000000 1.0
C      1  0.4979560000000  0.5593710000000  0.5086860000000 1.0
C      1  0.5250640000000  0.5617100000000  0.5043950000000 1.0
C      1  0.4819910000000  0.5575970000000  0.4860550000000 1.0
C      1  0.4595770000000  0.4855780000000  0.4714930000000 1.0
C      1  0.4943250000000  0.4879710000000  0.5437310000000 1.0
C      1  0.5410380000000  0.4938450000000  0.4851500000000 1.0
C      1  0.4850130000000  0.5476690000000  0.5379200000000 1.0
C      1  0.5529780000000  0.5457690000000  0.4933070000000 1.0
C      1  0.4640360000000  0.5492500000000  0.4600050000000 1.0
C      1  0.5647050000000  0.5082770000000  0.4498200000000 1.0
C      1  0.4236190000000  0.5030370000000  0.4702000000000 1.0
C      1  0.5181720000000  0.5133810000000  0.5770230000000 1.0
C      1  0.5124710000000  0.5324540000000  0.4802060000000 1.0
C      1  0.4799850000000  0.5237160000000  0.5063500000000 1.0
C      1  0.5030060000000  0.5086420000000  0.5106180000000 1.0
C      1  0.5023350000000  0.4235270000000  0.5214900000000 1.0
C      1  0.5168970000000  0.4266740000000  0.4931070000000 1.0
C      1  0.4848490000000  0.4226810000000  0.4942190000000 1.0
C      1  0.5254590000000  0.5117250000000  0.4607750000000 1.0
C      1  0.4527880000000  0.5056120000000  0.4973850000000 1.0
C      1  0.5222560000000  0.5064720000000  0.5378910000000 1.0
C      1  0.4127480000000  0.5046910000000  0.5289790000000 1.0
C      1  0.5562720000000  0.4993780000000  0.5575390000000 1.0
C      1  0.5131460000000  0.5108700000000  0.4133270000000 1.0
C      1  0.4510310000000  0.4954960000000  0.4420770000000 1.0
C      1  0.4773980000000  0.4975680000000  0.5714740000000 1.0
C      1  0.5748820000000  0.4961660000000  0.4874360000000 1.0
C      1  0.4562700000000  0.4802850000000  0.5198260000000 1.0
C      1  0.5421710000000  0.4792000000000  0.5338530000000 1.0
C      1  0.5066940000000  0.4838700000000  0.4553250000000 1.0
C      1  0.4424820000000  0.5259070000000  0.4721130000000 1.0
C      1  0.5091510000000  0.5323900000000  0.5555740000000 1.0
C      1  0.5533700000000  0.5306840000000  0.4650210000000 1.0
C      1  0.4285590000000  0.4732830000000  0.4772680000000 1.0
C      1  0.5148310000000  0.4849490000000  0.5706840000000 1.0
C      1  0.5551180000000  0.4810000000000  0.4569870000000 1.0
C      1  0.4610410000000  0.5253830000000  0.4370790000000 1.0
C      1  0.4704710000000  0.5277430000000  0.5613800000000 1.0
C      1  0.5759580000000  0.5245020000000  0.5026340000000 1.0
C      1  0.4236910000000  0.4789200000000  0.5294910000000 1.0
C      1  0.5613440000000  0.4542460000000  0.5303240000000 1.0
C      1  0.5121880000000  0.4840850000000  0.4217660000000 1.0
C      1  0.5268470000000  0.4518660000000  0.4867130000000 1.0
C      1  0.4694900000000  0.4446630000000  0.4869930000000 1.0
C      1  0.5017110000000  0.4479580000000  0.5352500000000 1.0
C      1  0.4932330000000  0.5480110000000  0.4425900000000 1.0
C      1  0.4566550000000  0.5335860000000  0.5255070000000 1.0
C      1  0.5540410000000  0.5468320000000  0.5272750000000 1.0
C      1  0.4821270000000  0.5023510000000  0.4430410000000 1.0
C      1  0.4566640000000  0.5002580000000  0.5473440000000 1.0
C      1  0.5653760000000  0.4980450000000  0.5176540000000 1.0
C      1  0.5212060000000  0.4599320000000  0.5524370000000 1.0
C      1  0.5309850000000  0.4635070000000  0.4612040000000 1.0
C      1  0.4459210000000  0.4579560000000  0.4969160000000 1.0
C      1  0.4306190000000  0.5230240000000  0.5168680000000 1.0
C      1  0.5501200000000  0.5254120000000  0.5424850000000 1.0
C      1  0.5110710000000  0.5289460000000  0.4356790000000 1.0
END
