TITL C-1154830-9999-578 0.000402502965032521 125000 -349.534270132454 0 0 60 (C1) n - 1
REM
REM in /home/nfs/bkarasulu/CARBON/AIRSS/Generating-Clusters/AIREBO/Higher-Symm/Only-C60
REM
REM
REM
REM
REM
REM ./C.cell (28575a23ae977d3b5fae324c64b13b57)
REM
REM compiler GCC version 9.2.1 20190827 (Red Hat 9.2.1-1)
REM options -cpp -mtune=generic -march=x86-64 -g -O0 -fpre-include=/usr/include/finclude/math-vector-fortran.h
REM seed 705406296 1806180243 -1685245048 -1129935922 -819071 -111164280 969167054 -204125137 -440303738 1915959382 -1672822687 1931352763 -1175363176 -164144739 -1782555262 1279748565 104457286 -843455122 -1115801683 -575490180 -293345323 436197352 -1424044501 -927434288 -900890539 743437979 2011868953 671463154 919094603 -1521090233 -1081909593 997812363 -100022575
REM
CELL 1.54180   50.00000   50.00000   50.00000   90.00000   90.00000   90.00000
LATT -1
SFAC C  
C      1  0.5693420000000  0.5379430000000  0.5208150000000 1.0
C      1  0.4670370000000  0.5570370000000  0.5244550000000 1.0
C      1  0.4227860000000  0.4649920000000  0.5179300000000 1.0
C      1  0.5322090000000  0.4379200000000  0.5303930000000 1.0
C      1  0.5525960000000  0.4717150000000  0.5239820000000 1.0
C      1  0.4694020000000  0.4349590000000  0.5211560000000 1.0
C      1  0.4402950000000  0.5252130000000  0.5271850000000 1.0
C      1  0.5283300000000  0.5665450000000  0.5137620000000 1.0
C      1  0.5654700000000  0.5214460000000  0.4761120000000 1.0
C      1  0.4861090000000  0.5745250000000  0.4798860000000 1.0
C      1  0.4365720000000  0.4922520000000  0.4780090000000 1.0
C      1  0.5178810000000  0.4359810000000  0.4826780000000 1.0
C      1  0.5658630000000  0.4901010000000  0.4779160000000 1.0
C      1  0.4860420000000  0.4278270000000  0.4837470000000 1.0
C      1  0.4417140000000  0.5207300000000  0.4773290000000 1.0
C      1  0.5169400000000  0.5650290000000  0.4755930000000 1.0
C      1  0.4696600000000  0.4868880000000  0.4394960000000 1.0
C      1  0.5123250000000  0.4656500000000  0.4321410000000 1.0
C      1  0.5314850000000  0.5093410000000  0.4384450000000 1.0
C      1  0.4874040000000  0.5268310000000  0.4187000000000 1.0
C      1  0.4685170000000  0.5144170000000  0.4358300000000 1.0
C      1  0.5130710000000  0.5310950000000  0.4291790000000 1.0
C      1  0.5314950000000  0.4849710000000  0.4244510000000 1.0
C      1  0.4854770000000  0.4693240000000  0.4243050000000 1.0
C      1  0.4692210000000  0.4562590000000  0.5447610000000 1.0
C      1  0.5431770000000  0.4777110000000  0.5494910000000 1.0
C      1  0.5042990000000  0.5380080000000  0.5476540000000 1.0
C      1  0.4648780000000  0.5128200000000  0.5475420000000 1.0
C      1  0.4759490000000  0.5431270000000  0.5481030000000 1.0
C      1  0.5486910000000  0.5211480000000  0.5308450000000 1.0
C      1  0.5182330000000  0.4582660000000  0.5539920000000 1.0
C      1  0.4517760000000  0.4705340000000  0.5253940000000 1.0
C      1  0.5288070000000  0.5156970000000  0.5065180000000 1.0
C      1  0.4857110000000  0.5369240000000  0.5043770000000 1.0
C      1  0.4682360000000  0.4855970000000  0.5012770000000 1.0
C      1  0.5134470000000  0.4646470000000  0.5209360000000 1.0
C      1  0.5300580000000  0.4851400000000  0.5031530000000 1.0
C      1  0.4873840000000  0.4595510000000  0.5092930000000 1.0
C      1  0.4686950000000  0.5129510000000  0.5137550000000 1.0
C      1  0.5131250000000  0.5401140000000  0.5183000000000 1.0
C      1  0.4643940000000  0.4791210000000  0.4680190000000 1.0
C      1  0.5152720000000  0.4597250000000  0.4608990000000 1.0
C      1  0.5335270000000  0.5129020000000  0.4725390000000 1.0
C      1  0.4848680000000  0.5415340000000  0.4735960000000 1.0
C      1  0.4620970000000  0.5283370000000  0.4592890000000 1.0
C      1  0.5137480000000  0.5376870000000  0.4602700000000 1.0
C      1  0.5341520000000  0.4789050000000  0.4724260000000 1.0
C      1  0.4874270000000  0.4607980000000  0.4767440000000 1.0
C      1  0.5662130000000  0.5448940000000  0.4927640000000 1.0
C      1  0.4599450000000  0.5658740000000  0.4951090000000 1.0
C      1  0.4355950000000  0.4622090000000  0.4899070000000 1.0
C      1  0.5392780000000  0.4417100000000  0.5008650000000 1.0
C      1  0.5630360000000  0.4640050000000  0.4954500000000 1.0
C      1  0.4562060000000  0.4413930000000  0.4922110000000 1.0
C      1  0.4416510000000  0.5387870000000  0.4995980000000 1.0
C      1  0.5450900000000  0.5654940000000  0.4888720000000 1.0
C      1  0.4881280000000  0.4968720000000  0.5605220000000 1.0
C      1  0.4898050000000  0.4697360000000  0.5574800000000 1.0
C      1  0.5382630000000  0.5053800000000  0.5529240000000 1.0
C      1  0.5115910000000  0.5134120000000  0.5599470000000 1.0
END
