TITL C-1154824-75-626 -0.000841487277796468 125000 -355.514187742984 0 0 60 (C1) n - 1
REM
REM in /home/nfs/bkarasulu/CARBON/AIRSS/Generating-Clusters/AIREBO/Higher-Symm/Only-C60
REM
REM
REM
REM
REM
REM ./C.cell (28575a23ae977d3b5fae324c64b13b57)
REM
REM compiler GCC version 9.2.1 20190827 (Red Hat 9.2.1-1)
REM options -cpp -mtune=generic -march=x86-64 -g -O0 -fpre-include=/usr/include/finclude/math-vector-fortran.h
REM seed 2844909 1823098481 -1241944447 -1535035434 1244504150 -1465487349 1181781259 830551878 -122438072 1158121509 1470235596 1237994795 -1218032297 1864082766 -1188389008 1129626718 989734658 -965485762 2062277487 -1319208920 -698930562 2045241662 -1945337993 1855975745 1581162275 368650846 1586455142 -909517651 1091138076 -599285106 2067618691 -665147946 1232696228
REM
CELL 1.54180   50.00000   50.00000   50.00000   90.00000   90.00000   90.00000
LATT -1
SFAC C  
C      1  0.4761180000000  0.5132730000000  0.4331620000000 1.0
C      1  0.5067420000000  0.5189190000000  0.4457320000000 1.0
C      1  0.5184560000000  0.4889340000000  0.4353680000000 1.0
C      1  0.4885710000000  0.4859000000000  0.4326940000000 1.0
C      1  0.4373240000000  0.4921410000000  0.5807400000000 1.0
C      1  0.5219520000000  0.5639790000000  0.5534610000000 1.0
C      1  0.5628750000000  0.4773350000000  0.5541500000000 1.0
C      1  0.4775550000000  0.4389700000000  0.5544750000000 1.0
C      1  0.5272040000000  0.5047890000000  0.4904050000000 1.0
C      1  0.5067260000000  0.4821330000000  0.4928960000000 1.0
C      1  0.4780890000000  0.4998650000000  0.4912160000000 1.0
C      1  0.5024230000000  0.5173600000000  0.4751570000000 1.0
C      1  0.4711490000000  0.4304160000000  0.4823200000000 1.0
C      1  0.4208870000000  0.5295600000000  0.4800190000000 1.0
C      1  0.5293000000000  0.5722910000000  0.4828070000000 1.0
C      1  0.5754630000000  0.4721740000000  0.4825260000000 1.0
C      1  0.5420830000000  0.5700670000000  0.5078470000000 1.0
C      1  0.5714850000000  0.4589360000000  0.5072610000000 1.0
C      1  0.4592400000000  0.4339880000000  0.5075840000000 1.0
C      1  0.4265830000000  0.5449310000000  0.5030460000000 1.0
C      1  0.5004270000000  0.5490010000000  0.5617110000000 1.0
C      1  0.5438700000000  0.4945630000000  0.5644910000000 1.0
C      1  0.4972190000000  0.4545950000000  0.5658410000000 1.0
C      1  0.4534370000000  0.4891860000000  0.5614470000000 1.0
C      1  0.4521160000000  0.5255490000000  0.4376330000000 1.0
C      1  0.5251090000000  0.5433140000000  0.4403770000000 1.0
C      1  0.5425890000000  0.4774710000000  0.4413520000000 1.0
C      1  0.4757470000000  0.4624690000000  0.4408870000000 1.0
C      1  0.5169910000000  0.4580210000000  0.5027100000000 1.0
C      1  0.4544600000000  0.4874660000000  0.5040910000000 1.0
C      1  0.4818050000000  0.5339820000000  0.4942780000000 1.0
C      1  0.5472300000000  0.5170710000000  0.5046760000000 1.0
C      1  0.5372110000000  0.5552790000000  0.5314010000000 1.0
C      1  0.5562490000000  0.4629270000000  0.5306910000000 1.0
C      1  0.4631450000000  0.4472660000000  0.5318170000000 1.0
C      1  0.4451110000000  0.5428870000000  0.5233070000000 1.0
C      1  0.4131180000000  0.5032590000000  0.4853750000000 1.0
C      1  0.5019990000000  0.5783100000000  0.4846000000000 1.0
C      1  0.5865700000000  0.4979010000000  0.4850780000000 1.0
C      1  0.4966720000000  0.4188470000000  0.4833180000000 1.0
C      1  0.4707610000000  0.5343080000000  0.5227660000000 1.0
C      1  0.5388250000000  0.5276210000000  0.5291070000000 1.0
C      1  0.5287120000000  0.4616940000000  0.5277490000000 1.0
C      1  0.4598110000000  0.4770420000000  0.5313750000000 1.0
C      1  0.5121000000000  0.4767410000000  0.5480600000000 1.0
C      1  0.4837770000000  0.4935930000000  0.5484540000000 1.0
C      1  0.4894990000000  0.5245420000000  0.5443380000000 1.0
C      1  0.5201080000000  0.5097960000000  0.5469960000000 1.0
C      1  0.5441560000000  0.4215960000000  0.4845340000000 1.0
C      1  0.4194080000000  0.4566590000000  0.4903310000000 1.0
C      1  0.4563640000000  0.5721330000000  0.4725670000000 1.0
C      1  0.5862190000000  0.5447120000000  0.4952030000000 1.0
C      1  0.5613330000000  0.4675090000000  0.4584790000000 1.0
C      1  0.4656330000000  0.4446840000000  0.4587220000000 1.0
C      1  0.4327090000000  0.5338670000000  0.4548010000000 1.0
C      1  0.5365380000000  0.5609580000000  0.4579310000000 1.0
C      1  0.5201390000000  0.4326900000000  0.4897810000000 1.0
C      1  0.4292620000000  0.4816660000000  0.4928510000000 1.0
C      1  0.4795940000000  0.5620600000000  0.4829870000000 1.0
C      1  0.5737540000000  0.5208060000000  0.4950210000000 1.0
END
