TITL C-1154802-8274-120 -0.000610429225911979 125000 -320.590471807618 0 0 60 (C1) n - 1
REM
REM in /home/nfs/bkarasulu/CARBON/AIRSS/Generating-Clusters/AIREBO/Higher-Symm/Only-C60
REM
REM
REM
REM
REM
REM ./C.cell (28575a23ae977d3b5fae324c64b13b57)
REM
REM compiler GCC version 9.2.1 20190827 (Red Hat 9.2.1-1)
REM options -cpp -mtune=generic -march=x86-64 -g -O0 -fpre-include=/usr/include/finclude/math-vector-fortran.h
REM seed -1228369116 1231341544 308396961 -57619547 -1979293558 -995702710 780068878 -755961259 1266251725 -1635423361 1214628997 522055100 455011352 1638847749 2036372898 309909029 1426600825 1770049033 -810500407 705302506 1662107279 -1952564818 -1648597819 -1041751551 2124011405 -1733190599 -1057137422 -2048796468 529214565 397672398 1463137585 810989321 -1940779424
REM
CELL 1.54180   50.00000   50.00000   50.00000   90.00000   90.00000   90.00000
LATT -1
SFAC C  
C      1  0.4641580000000  0.5294640000000  0.5246870000000 1.0
C      1  0.5439900000000  0.4864130000000  0.5208020000000 1.0
C      1  0.4642730000000  0.4740040000000  0.5235660000000 1.0
C      1  0.5452690000000  0.5197930000000  0.5238760000000 1.0
C      1  0.5555280000000  0.5290230000000  0.4727000000000 1.0
C      1  0.4508350000000  0.4726610000000  0.4739950000000 1.0
C      1  0.5558370000000  0.4687420000000  0.4679230000000 1.0
C      1  0.4452920000000  0.5315900000000  0.4761340000000 1.0
C      1  0.4491930000000  0.4872920000000  0.4981770000000 1.0
C      1  0.5595480000000  0.5125150000000  0.4949720000000 1.0
C      1  0.4459550000000  0.5155240000000  0.5000490000000 1.0
C      1  0.5605830000000  0.4825640000000  0.4913570000000 1.0
C      1  0.5093250000000  0.5512680000000  0.4354470000000 1.0
C      1  0.4848060000000  0.4365600000000  0.4372800000000 1.0
C      1  0.5099930000000  0.4403430000000  0.4331830000000 1.0
C      1  0.4840100000000  0.5552900000000  0.4366630000000 1.0
C      1  0.5486550000000  0.5151490000000  0.4464220000000 1.0
C      1  0.4570790000000  0.4903280000000  0.4492140000000 1.0
C      1  0.5435580000000  0.4854910000000  0.4463130000000 1.0
C      1  0.4607110000000  0.5177110000000  0.4532880000000 1.0
C      1  0.5150640000000  0.5127820000000  0.4511190000000 1.0
C      1  0.4821530000000  0.4744740000000  0.4492010000000 1.0
C      1  0.5109800000000  0.4800960000000  0.4500900000000 1.0
C      1  0.4894400000000  0.5253720000000  0.4634080000000 1.0
C      1  0.4910670000000  0.4185840000000  0.4723900000000 1.0
C      1  0.5168170000000  0.5753370000000  0.4664250000000 1.0
C      1  0.4916920000000  0.5801910000000  0.4683530000000 1.0
C      1  0.5162200000000  0.4203500000000  0.4671600000000 1.0
C      1  0.4839580000000  0.5525810000000  0.4987770000000 1.0
C      1  0.5200420000000  0.4503210000000  0.4932120000000 1.0
C      1  0.4887130000000  0.4550520000000  0.4966540000000 1.0
C      1  0.5149410000000  0.5452020000000  0.4962380000000 1.0
C      1  0.4689140000000  0.5688460000000  0.5195690000000 1.0
C      1  0.5322180000000  0.4340450000000  0.5163180000000 1.0
C      1  0.4754050000000  0.4360700000000  0.5177810000000 1.0
C      1  0.5304670000000  0.5643830000000  0.5153290000000 1.0
C      1  0.5083900000000  0.4844810000000  0.5569240000000 1.0
C      1  0.4813570000000  0.5269390000000  0.5541910000000 1.0
C      1  0.5079830000000  0.5164770000000  0.5605530000000 1.0
C      1  0.4811500000000  0.4742870000000  0.5531630000000 1.0
C      1  0.5365930000000  0.4421860000000  0.5397700000000 1.0
C      1  0.4475500000000  0.5572490000000  0.5350990000000 1.0
C      1  0.5344460000000  0.5609110000000  0.5400320000000 1.0
C      1  0.4511950000000  0.4437210000000  0.5318080000000 1.0
C      1  0.4733460000000  0.4471990000000  0.4674920000000 1.0
C      1  0.5255540000000  0.5425520000000  0.4640440000000 1.0
C      1  0.4707310000000  0.5534110000000  0.4679150000000 1.0
C      1  0.5275070000000  0.4516490000000  0.4600630000000 1.0
C      1  0.4562770000000  0.5133280000000  0.5721580000000 1.0
C      1  0.5482440000000  0.4864970000000  0.5728380000000 1.0
C      1  0.4565230000000  0.4865900000000  0.5718120000000 1.0
C      1  0.5379040000000  0.5119680000000  0.5760610000000 1.0
C      1  0.5187830000000  0.5136260000000  0.5062540000000 1.0
C      1  0.4884030000000  0.4877670000000  0.5055210000000 1.0
C      1  0.5193970000000  0.4804570000000  0.5000130000000 1.0
C      1  0.4856230000000  0.5187720000000  0.5008760000000 1.0
C      1  0.5366930000000  0.5318120000000  0.5502920000000 1.0
C      1  0.4515410000000  0.4582900000000  0.5580010000000 1.0
C      1  0.5366150000000  0.4722240000000  0.5467400000000 1.0
C      1  0.4515090000000  0.5421940000000  0.5603110000000 1.0
END
