TITL C-1154829-9094-269 -0.000190929430280885 125000 -314.84046592598 0 0 60 (C1) n - 1
REM
REM in /home/nfs/bkarasulu/CARBON/AIRSS/Generating-Clusters/AIREBO/Higher-Symm/Only-C60
REM
REM
REM
REM
REM
REM ./C.cell (28575a23ae977d3b5fae324c64b13b57)
REM
REM compiler GCC version 9.2.1 20190827 (Red Hat 9.2.1-1)
REM options -cpp -mtune=generic -march=x86-64 -g -O0 -fpre-include=/usr/include/finclude/math-vector-fortran.h
REM seed -497306057 1762019225 -1958073123 -1535313269 350683564 1807608383 -1018835046 -1189443424 1160315029 -1598298656 -1362473991 -1165218756 -1683100702 1240276296 -1472756057 1913050885 -1084358784 28963922 -2022121165 1853244202 -1808322622 -1610664646 1903534716 1937734454 1532688680 -2106789686 337400415 -82069841 -1567960293 -1676875317 -2002245352 881208662 -1606617429
REM
CELL 1.54180   50.00000   50.00000   50.00000   90.00000   90.00000   90.00000
LATT -1
SFAC C  
C      1  0.4394000000000  0.4997190000000  0.4861290000000 1.0
C      1  0.4455120000000  0.5095390000000  0.5393680000000 1.0
C      1  0.5044170000000  0.5104460000000  0.5531900000000 1.0
C      1  0.5551710000000  0.5090750000000  0.5386990000000 1.0
C      1  0.5505120000000  0.5032300000000  0.4910790000000 1.0
C      1  0.5206540000000  0.5077710000000  0.4429940000000 1.0
C      1  0.4702610000000  0.5032150000000  0.4398980000000 1.0
C      1  0.4631280000000  0.4664430000000  0.5266700000000 1.0
C      1  0.4944900000000  0.4560120000000  0.5491070000000 1.0
C      1  0.5415130000000  0.4569450000000  0.5380850000000 1.0
C      1  0.5544310000000  0.4518230000000  0.4926530000000 1.0
C      1  0.5373190000000  0.4714190000000  0.4707400000000 1.0
C      1  0.4916840000000  0.4453890000000  0.4529630000000 1.0
C      1  0.4678240000000  0.4619700000000  0.4804570000000 1.0
C      1  0.5399050000000  0.4723740000000  0.5639490000000 1.0
C      1  0.5603800000000  0.4631040000000  0.5176630000000 1.0
C      1  0.5534230000000  0.4846030000000  0.4449640000000 1.0
C      1  0.4973940000000  0.4638260000000  0.4290060000000 1.0
C      1  0.4432870000000  0.4683200000000  0.4617710000000 1.0
C      1  0.4366140000000  0.4726670000000  0.5270670000000 1.0
C      1  0.4796570000000  0.4707360000000  0.5669730000000 1.0
C      1  0.4700270000000  0.5019270000000  0.5616660000000 1.0
C      1  0.5357150000000  0.4998690000000  0.5582440000000 1.0
C      1  0.5657500000000  0.4918260000000  0.5162020000000 1.0
C      1  0.5470010000000  0.5094000000000  0.4641080000000 1.0
C      1  0.4983130000000  0.4922260000000  0.4335240000000 1.0
C      1  0.4447670000000  0.4966470000000  0.4524000000000 1.0
C      1  0.4293450000000  0.4981400000000  0.5125820000000 1.0
C      1  0.4745130000000  0.4293890000000  0.4776430000000 1.0
C      1  0.4725800000000  0.4435090000000  0.5076960000000 1.0
C      1  0.4858790000000  0.4342090000000  0.5339290000000 1.0
C      1  0.4842840000000  0.4082040000000  0.5421110000000 1.0
C      1  0.5309960000000  0.4349530000000  0.4850580000000 1.0
C      1  0.5221300000000  0.4103030000000  0.4746010000000 1.0
C      1  0.4981000000000  0.4131940000000  0.4618160000000 1.0
C      1  0.4896410000000  0.5675500000000  0.5427070000000 1.0
C      1  0.5194020000000  0.5722050000000  0.5407640000000 1.0
C      1  0.5303090000000  0.5845300000000  0.5176420000000 1.0
C      1  0.5347600000000  0.5743830000000  0.4918930000000 1.0
C      1  0.5231950000000  0.5673100000000  0.4646320000000 1.0
C      1  0.4586570000000  0.5548950000000  0.4499970000000 1.0
C      1  0.4364620000000  0.5555810000000  0.5062540000000 1.0
C      1  0.4525830000000  0.5363320000000  0.4951950000000 1.0
C      1  0.4853950000000  0.5382570000000  0.5262250000000 1.0
C      1  0.5167230000000  0.5388590000000  0.5391690000000 1.0
C      1  0.5380990000000  0.5280400000000  0.5197720000000 1.0
C      1  0.5354930000000  0.5404590000000  0.4908280000000 1.0
C      1  0.5156170000000  0.5341410000000  0.4638600000000 1.0
C      1  0.4638410000000  0.5370770000000  0.4701530000000 1.0
C      1  0.4681310000000  0.5140450000000  0.5141460000000 1.0
C      1  0.4848880000000  0.4912400000000  0.5330080000000 1.0
C      1  0.5148280000000  0.4750960000000  0.5330080000000 1.0
C      1  0.5263190000000  0.4966540000000  0.5140770000000 1.0
C      1  0.5103740000000  0.4911380000000  0.4778390000000 1.0
C      1  0.4883110000000  0.5139260000000  0.4655340000000 1.0
C      1  0.4715980000000  0.4936670000000  0.4871390000000 1.0
C      1  0.5054970000000  0.5162980000000  0.5002010000000 1.0
C      1  0.4949030000000  0.5769990000000  0.4911210000000 1.0
C      1  0.5046170000000  0.5499630000000  0.5014390000000 1.0
C      1  0.5077080000000  0.4574620000000  0.4772690000000 1.0
END
