TITL C-1154802-8274-542 -0.00222181092377058 125000 -293.91426112248 0 0 60 (C1) n - 1
REM
REM in /home/nfs/bkarasulu/CARBON/AIRSS/Generating-Clusters/AIREBO/Higher-Symm/Only-C60
REM
REM
REM
REM
REM
REM ./C.cell (28575a23ae977d3b5fae324c64b13b57)
REM
REM compiler GCC version 9.2.1 20190827 (Red Hat 9.2.1-1)
REM options -cpp -mtune=generic -march=x86-64 -g -O0 -fpre-include=/usr/include/finclude/math-vector-fortran.h
REM seed -468425623 873836588 679164762 1994327543 1541829490 2130670520 751752080 -1382108496 1903107010 1199372752 1738953212 -909666183 1102352916 -657557712 -1753705982 581332258 -351565491 -608552432 -1150486186 1882656878 -1987122980 889544451 1735187500 -675188291 -1585338439 1532887685 -688279828 -1646508239 1734743876 1384089537 -234883414 -67536239 -364922828
REM
CELL 1.54180   50.00000   50.00000   50.00000   90.00000   90.00000   90.00000
LATT -1
SFAC C  
C      1  0.5328770000000  0.4442720000000  0.5395360000000 1.0
C      1  0.5323400000000  0.5582160000000  0.4688690000000 1.0
C      1  0.4754720000000  0.5564860000000  0.5387340000000 1.0
C      1  0.4726110000000  0.4436170000000  0.4639510000000 1.0
C      1  0.5322220000000  0.5388050000000  0.4440820000000 1.0
C      1  0.5256460000000  0.4698470000000  0.5594960000000 1.0
C      1  0.4737560000000  0.5334220000000  0.5599200000000 1.0
C      1  0.4733330000000  0.4680560000000  0.4398320000000 1.0
C      1  0.5166560000000  0.5224930000000  0.4894800000000 1.0
C      1  0.5215840000000  0.4822360000000  0.5034160000000 1.0
C      1  0.4811400000000  0.4737800000000  0.5077520000000 1.0
C      1  0.4772020000000  0.5219370000000  0.4958250000000 1.0
C      1  0.5201650000000  0.5091640000000  0.5202860000000 1.0
C      1  0.5230970000000  0.4944450000000  0.4714890000000 1.0
C      1  0.4792000000000  0.4975800000000  0.4719990000000 1.0
C      1  0.4756630000000  0.5009470000000  0.5199760000000 1.0
C      1  0.4766800000000  0.5163760000000  0.4359700000000 1.0
C      1  0.4708640000000  0.4874440000000  0.5789850000000 1.0
C      1  0.5284700000000  0.4909470000000  0.4240980000000 1.0
C      1  0.5271030000000  0.5164000000000  0.5651420000000 1.0
C      1  0.4748840000000  0.4343100000000  0.5154890000000 1.0
C      1  0.4758340000000  0.5643150000000  0.4881070000000 1.0
C      1  0.5223100000000  0.4374340000000  0.4874720000000 1.0
C      1  0.5236520000000  0.5604110000000  0.5149620000000 1.0
C      1  0.5071210000000  0.5169660000000  0.4511130000000 1.0
C      1  0.4878620000000  0.4806600000000  0.5522110000000 1.0
C      1  0.4996900000000  0.4727910000000  0.4607860000000 1.0
C      1  0.4971720000000  0.5077470000000  0.5401140000000 1.0
C      1  0.5070750000000  0.4600560000000  0.5240060000000 1.0
C      1  0.4933550000000  0.5400230000000  0.4719800000000 1.0
C      1  0.4946860000000  0.4558490000000  0.4866350000000 1.0
C      1  0.4957340000000  0.5410770000000  0.5169660000000 1.0
C      1  0.5442650000000  0.5074740000000  0.4402010000000 1.0
C      1  0.5377520000000  0.4940690000000  0.5528130000000 1.0
C      1  0.4552270000000  0.4954700000000  0.4479790000000 1.0
C      1  0.4601220000000  0.5089190000000  0.5572840000000 1.0
C      1  0.5407990000000  0.4475070000000  0.5066110000000 1.0
C      1  0.5430360000000  0.5515090000000  0.4949840000000 1.0
C      1  0.4572050000000  0.4451050000000  0.4942510000000 1.0
C      1  0.4592480000000  0.5549550000000  0.5094360000000 1.0
C      1  0.5041140000000  0.4785800000000  0.4277290000000 1.0
C      1  0.4993670000000  0.5312850000000  0.5768200000000 1.0
C      1  0.5055490000000  0.5343860000000  0.4219520000000 1.0
C      1  0.5019870000000  0.4734100000000  0.5808120000000 1.0
C      1  0.5016700000000  0.4250050000000  0.4632750000000 1.0
C      1  0.5036560000000  0.5755200000000  0.5342210000000 1.0
C      1  0.5059250000000  0.4262390000000  0.5273860000000 1.0
C      1  0.5055600000000  0.5717580000000  0.4729230000000 1.0
C      1  0.4484310000000  0.4767970000000  0.5037400000000 1.0
C      1  0.4441930000000  0.5260920000000  0.5028510000000 1.0
C      1  0.5498660000000  0.5181690000000  0.4953520000000 1.0
C      1  0.5535340000000  0.4777210000000  0.4974220000000 1.0
C      1  0.4471120000000  0.5002060000000  0.4809970000000 1.0
C      1  0.4442500000000  0.5009790000000  0.5282410000000 1.0
C      1  0.5523240000000  0.4993820000000  0.5236450000000 1.0
C      1  0.5569320000000  0.4969570000000  0.4691950000000 1.0
C      1  0.4736870000000  0.5464450000000  0.4446590000000 1.0
C      1  0.4787970000000  0.4523730000000  0.5412740000000 1.0
C      1  0.5190300000000  0.4472910000000  0.4492780000000 1.0
C      1  0.5109080000000  0.5382900000000  0.5459910000000 1.0
END
