TITL C-1154829-9094-668 -0.00113443063757038 125000 -341.504128863299 0 0 60 (C1) n - 1
REM
REM in /home/nfs/bkarasulu/CARBON/AIRSS/Generating-Clusters/AIREBO/Higher-Symm/Only-C60
REM
REM
REM
REM
REM
REM ./C.cell (28575a23ae977d3b5fae324c64b13b57)
REM
REM compiler GCC version 9.2.1 20190827 (Red Hat 9.2.1-1)
REM options -cpp -mtune=generic -march=x86-64 -g -O0 -fpre-include=/usr/include/finclude/math-vector-fortran.h
REM seed -1258876734 997370689 -348657118 -283428827 726098847 284163656 150849390 -37469022 1359057433 982495279 2145477806 491494008 702138393 -940552862 -1773329850 1791049980 -1352997085 -1732368770 62088744 -284591294 1125200082 -912513058 545511872 548107441 406147673 1621047557 535326057 214463239 121790740 -1259735625 229376020 -1238115032 1780778494
REM
CELL 1.54180   50.00000   50.00000   50.00000   90.00000   90.00000   90.00000
LATT -1
SFAC C  
C      1  0.4547120000000  0.5250350000000  0.4998290000000 1.0
C      1  0.5254620000000  0.5004970000000  0.4549830000000 1.0
C      1  0.5018380000000  0.4546920000000  0.5249260000000 1.0
C      1  0.5458220000000  0.5250180000000  0.4997700000000 1.0
C      1  0.5453310000000  0.4749510000000  0.5019130000000 1.0
C      1  0.4548000000000  0.4745930000000  0.4999050000000 1.0
C      1  0.4747260000000  0.5007610000000  0.5452720000000 1.0
C      1  0.4750730000000  0.4990410000000  0.4544400000000 1.0
C      1  0.5248140000000  0.4979990000000  0.5452960000000 1.0
C      1  0.4994790000000  0.4545770000000  0.4748340000000 1.0
C      1  0.5000030000000  0.5453080000000  0.5253590000000 1.0
C      1  0.5020200000000  0.5443960000000  0.4750080000000 1.0
C      1  0.4999430000000  0.5199770000000  0.4545320000000 1.0
C      1  0.4547510000000  0.5005240000000  0.5197050000000 1.0
C      1  0.5205360000000  0.4549620000000  0.4993280000000 1.0
C      1  0.5000860000000  0.5192980000000  0.5448670000000 1.0
C      1  0.4991220000000  0.4795360000000  0.5448230000000 1.0
C      1  0.5000690000000  0.4802740000000  0.4550130000000 1.0
C      1  0.5450680000000  0.4999410000000  0.4808830000000 1.0
C      1  0.4550430000000  0.4991330000000  0.4799720000000 1.0
C      1  0.5450010000000  0.5004690000000  0.5206630000000 1.0
C      1  0.4807630000000  0.4550300000000  0.5000430000000 1.0
C      1  0.5204190000000  0.5454430000000  0.5002780000000 1.0
C      1  0.4806610000000  0.5445110000000  0.5001100000000 1.0
C      1  0.5381310000000  0.5795890000000  0.5256110000000 1.0
C      1  0.5744770000000  0.5220290000000  0.5369200000000 1.0
C      1  0.5278700000000  0.5417220000000  0.5820590000000 1.0
C      1  0.4584550000000  0.5815520000000  0.4717810000000 1.0
C      1  0.4580320000000  0.4180020000000  0.5279280000000 1.0
C      1  0.5363990000000  0.4258130000000  0.4770400000000 1.0
C      1  0.4201280000000  0.5254730000000  0.4618710000000 1.0
C      1  0.4198650000000  0.4743010000000  0.5375420000000 1.0
C      1  0.5818210000000  0.4720190000000  0.4577190000000 1.0
C      1  0.4773950000000  0.5358070000000  0.4255680000000 1.0
C      1  0.4770040000000  0.4636820000000  0.5741030000000 1.0
C      1  0.5253550000000  0.4627990000000  0.4198160000000 1.0
C      1  0.5201470000000  0.5753240000000  0.5424150000000 1.0
C      1  0.5475630000000  0.5258670000000  0.5801340000000 1.0
C      1  0.5757770000000  0.5410300000000  0.5208100000000 1.0
C      1  0.4742850000000  0.5794550000000  0.4521230000000 1.0
C      1  0.5203600000000  0.4250010000000  0.4579450000000 1.0
C      1  0.4737110000000  0.4200730000000  0.5477510000000 1.0
C      1  0.4583190000000  0.5197760000000  0.4246930000000 1.0
C      1  0.5420910000000  0.4807990000000  0.4244150000000 1.0
C      1  0.4579970000000  0.4798250000000  0.5748940000000 1.0
C      1  0.4245950000000  0.5422100000000  0.4799200000000 1.0
C      1  0.5798490000000  0.4522970000000  0.4735260000000 1.0
C      1  0.4244510000000  0.4575340000000  0.5195560000000 1.0
C      1  0.5548110000000  0.4471780000000  0.4890060000000 1.0
C      1  0.4890160000000  0.4452360000000  0.5527690000000 1.0
C      1  0.4513350000000  0.5573220000000  0.4892440000000 1.0
C      1  0.5575530000000  0.4896420000000  0.4510520000000 1.0
C      1  0.4894910000000  0.5541930000000  0.4470250000000 1.0
C      1  0.4421050000000  0.4922950000000  0.5499320000000 1.0
C      1  0.4424380000000  0.5074350000000  0.4497320000000 1.0
C      1  0.4512170000000  0.4423280000000  0.5104570000000 1.0
C      1  0.5105980000000  0.5487330000000  0.5576410000000 1.0
C      1  0.5077960000000  0.4499540000000  0.4421790000000 1.0
C      1  0.5513380000000  0.5573010000000  0.5080080000000 1.0
C      1  0.5526810000000  0.5104430000000  0.5550650000000 1.0
END
