TITL C-1154830-9999-624 -0.00105862506077017 125000 -328.547040430122 0 0 60 (C1) n - 1
REM
REM in /home/nfs/bkarasulu/CARBON/AIRSS/Generating-Clusters/AIREBO/Higher-Symm/Only-C60
REM
REM
REM
REM
REM
REM ./C.cell (28575a23ae977d3b5fae324c64b13b57)
REM
REM compiler GCC version 9.2.1 20190827 (Red Hat 9.2.1-1)
REM options -cpp -mtune=generic -march=x86-64 -g -O0 -fpre-include=/usr/include/finclude/math-vector-fortran.h
REM seed 808291780 -814380581 1967634860 1991652547 174810725 583726073 302557767 -943149376 -1091041144 -51178075 189414647 132135667 -396637734 -664382205 -695504562 -1699619267 2115368132 1416784025 -1067748438 -1212442534 -1279038425 -1767979448 -1408142570 1321777381 1077381156 -1427738076 371269570 1147282124 -1974738873 -400209588 -1826864494 1200583203 -1295177015
REM
CELL 1.54180   50.00000   50.00000   50.00000   90.00000   90.00000   90.00000
LATT -1
SFAC C  
C      1  0.4605360000000  0.4729960000000  0.5013260000000 1.0
C      1  0.5071230000000  0.4495960000000  0.4793560000000 1.0
C      1  0.4630080000000  0.4863580000000  0.4457580000000 1.0
C      1  0.5469350000000  0.5231010000000  0.4930160000000 1.0
C      1  0.5583510000000  0.4736340000000  0.5061850000000 1.0
C      1  0.4510060000000  0.5281500000000  0.5109170000000 1.0
C      1  0.5106560000000  0.5491030000000  0.4646900000000 1.0
C      1  0.4979490000000  0.4441230000000  0.5293560000000 1.0
C      1  0.4937220000000  0.5473030000000  0.5395590000000 1.0
C      1  0.5363640000000  0.5098320000000  0.4412030000000 1.0
C      1  0.5278230000000  0.4883340000000  0.5456580000000 1.0
C      1  0.4756700000000  0.4966600000000  0.5478100000000 1.0
C      1  0.4841740000000  0.4506120000000  0.4987800000000 1.0
C      1  0.4475030000000  0.4810460000000  0.4740400000000 1.0
C      1  0.4898010000000  0.4728620000000  0.4373030000000 1.0
C      1  0.5302450000000  0.5477930000000  0.4864080000000 1.0
C      1  0.4706330000000  0.5520120000000  0.5164350000000 1.0
C      1  0.5406690000000  0.4515960000000  0.4939340000000 1.0
C      1  0.5564940000000  0.5106750000000  0.4668150000000 1.0
C      1  0.4593730000000  0.5000510000000  0.5218920000000 1.0
C      1  0.5481960000000  0.5010920000000  0.5215270000000 1.0
C      1  0.5169510000000  0.5328550000000  0.4388690000000 1.0
C      1  0.4885890000000  0.5228930000000  0.5575120000000 1.0
C      1  0.5013720000000  0.4750640000000  0.5428450000000 1.0
C      1  0.5789520000000  0.4954650000000  0.4692330000000 1.0
C      1  0.4730000000000  0.5693190000000  0.4956670000000 1.0
C      1  0.4539120000000  0.4876210000000  0.5979730000000 1.0
C      1  0.4255010000000  0.4972700000000  0.4774080000000 1.0
C      1  0.4272130000000  0.5042520000000  0.5322260000000 1.0
C      1  0.5806550000000  0.5096660000000  0.5270160000000 1.0
C      1  0.5345320000000  0.4220620000000  0.4887750000000 1.0
C      1  0.5279480000000  0.5669550000000  0.5054360000000 1.0
C      1  0.4766610000000  0.4193330000000  0.5067140000000 1.0
C      1  0.5068820000000  0.5177490000000  0.5775250000000 1.0
C      1  0.5045950000000  0.4758300000000  0.4133990000000 1.0
C      1  0.4951870000000  0.5275540000000  0.4234100000000 1.0
C      1  0.4873630000000  0.5704680000000  0.4724140000000 1.0
C      1  0.5811730000000  0.4784590000000  0.4911420000000 1.0
C      1  0.4539560000000  0.4884410000000  0.5711180000000 1.0
C      1  0.5139930000000  0.4185050000000  0.4707720000000 1.0
C      1  0.4947800000000  0.4104110000000  0.5262640000000 1.0
C      1  0.5048860000000  0.5724080000000  0.5195210000000 1.0
C      1  0.4247060000000  0.5204780000000  0.4925660000000 1.0
C      1  0.5694580000000  0.5337780000000  0.5130540000000 1.0
C      1  0.4048580000000  0.5180690000000  0.5271790000000 1.0
C      1  0.5287760000000  0.5015180000000  0.5702740000000 1.0
C      1  0.4764700000000  0.5076860000000  0.4229350000000 1.0
C      1  0.5290800000000  0.4889870000000  0.4161960000000 1.0
C      1  0.4363500000000  0.4807430000000  0.5480890000000 1.0
C      1  0.5510570000000  0.4668660000000  0.4675390000000 1.0
C      1  0.4846650000000  0.5319120000000  0.4623260000000 1.0
C      1  0.5318960000000  0.4813270000000  0.4553490000000 1.0
C      1  0.4610180000000  0.5335880000000  0.4822720000000 1.0
C      1  0.4510190000000  0.4624470000000  0.5322300000000 1.0
C      1  0.5557590000000  0.5546250000000  0.5310660000000 1.0
C      1  0.5073610000000  0.4693080000000  0.4580850000000 1.0
C      1  0.5261230000000  0.5516890000000  0.5458520000000 1.0
C      1  0.4739130000000  0.4551570000000  0.5467830000000 1.0
C      1  0.4578970000000  0.5157230000000  0.4571710000000 1.0
C      1  0.5452610000000  0.5265900000000  0.5438290000000 1.0
END
