TITL C-1154823-9327-682 0.00203172321261712 125000 -322.640375667464 0 0 60 (C1) n - 1
REM
REM in /home/nfs/bkarasulu/CARBON/AIRSS/Generating-Clusters/AIREBO/Higher-Symm/Only-C60
REM
REM
REM
REM
REM
REM ./C.cell (28575a23ae977d3b5fae324c64b13b57)
REM
REM compiler GCC version 9.2.1 20190827 (Red Hat 9.2.1-1)
REM options -cpp -mtune=generic -march=x86-64 -g -O0 -fpre-include=/usr/include/finclude/math-vector-fortran.h
REM seed 293963071 -1077475997 -1355595562 -2015827958 -44141914 -605465444 237998374 -1124276904 652355485 -858446408 -181336036 -702578080 1157446205 -217108277 459791424 949841466 -483070588 -1999390730 -1140945213 -1906297478 1477213265 48197494 914544681 -1603829373 -1626785308 -1087038877 224233370 1994590110 502285424 972050412 1877645985 1141910062 1750443855
REM
CELL 1.54180   50.00000   50.00000   50.00000   90.00000   90.00000   90.00000
LATT -1
SFAC C  
C      1  0.5377450000000  0.5605470000000  0.5209590000000 1.0
C      1  0.4649760000000  0.5631710000000  0.4788740000000 1.0
C      1  0.4273940000000  0.5039540000000  0.5205710000000 1.0
C      1  0.4556800000000  0.4371900000000  0.4793140000000 1.0
C      1  0.5318550000000  0.4337980000000  0.5127970000000 1.0
C      1  0.5710970000000  0.4943430000000  0.4844520000000 1.0
C      1  0.4897480000000  0.4558440000000  0.5335680000000 1.0
C      1  0.5372690000000  0.4823200000000  0.4668360000000 1.0
C      1  0.5346610000000  0.5230450000000  0.5342090000000 1.0
C      1  0.5097610000000  0.5366950000000  0.4709840000000 1.0
C      1  0.4746970000000  0.5287400000000  0.5276460000000 1.0
C      1  0.4521560000000  0.4841310000000  0.4624130000000 1.0
C      1  0.4961820000000  0.4772010000000  0.5847930000000 1.0
C      1  0.5066620000000  0.4733520000000  0.4141250000000 1.0
C      1  0.5252980000000  0.4909880000000  0.5870180000000 1.0
C      1  0.5102400000000  0.5043470000000  0.4082710000000 1.0
C      1  0.4997130000000  0.5083980000000  0.5937870000000 1.0
C      1  0.4804320000000  0.4917140000000  0.4151690000000 1.0
C      1  0.4638040000000  0.5007050000000  0.4380340000000 1.0
C      1  0.4813410000000  0.4708420000000  0.5601260000000 1.0
C      1  0.5206390000000  0.4660590000000  0.4420240000000 1.0
C      1  0.5361070000000  0.4985160000000  0.5587470000000 1.0
C      1  0.5302450000000  0.5163400000000  0.4230600000000 1.0
C      1  0.4980350000000  0.5315280000000  0.5794440000000 1.0
C      1  0.4987510000000  0.4888160000000  0.4548700000000 1.0
C      1  0.5086980000000  0.4931450000000  0.5393280000000 1.0
C      1  0.5291860000000  0.5143900000000  0.4571590000000 1.0
C      1  0.5032470000000  0.5322000000000  0.5457960000000 1.0
C      1  0.4893800000000  0.5169610000000  0.4581810000000 1.0
C      1  0.4801640000000  0.5004770000000  0.5392470000000 1.0
C      1  0.5199140000000  0.4415710000000  0.5388180000000 1.0
C      1  0.5693090000000  0.4855950000000  0.4559100000000 1.0
C      1  0.5371730000000  0.5528510000000  0.5503870000000 1.0
C      1  0.4595170000000  0.5571050000000  0.4519040000000 1.0
C      1  0.4307270000000  0.4969590000000  0.5476980000000 1.0
C      1  0.4637530000000  0.4554070000000  0.4582520000000 1.0
C      1  0.4649870000000  0.5322010000000  0.4440580000000 1.0
C      1  0.4548610000000  0.4884370000000  0.5548030000000 1.0
C      1  0.4891490000000  0.4596560000000  0.4509760000000 1.0
C      1  0.5276110000000  0.4675100000000  0.5482610000000 1.0
C      1  0.5550280000000  0.5042080000000  0.4384550000000 1.0
C      1  0.5131510000000  0.5563530000000  0.5675890000000 1.0
C      1  0.4198460000000  0.4840750000000  0.5033330000000 1.0
C      1  0.4757560000000  0.4249330000000  0.4927830000000 1.0
C      1  0.5531240000000  0.4478930000000  0.5039790000000 1.0
C      1  0.5771300000000  0.5170160000000  0.4981970000000 1.0
C      1  0.5198160000000  0.5728160000000  0.5047930000000 1.0
C      1  0.4466390000000  0.5550180000000  0.4976020000000 1.0
C      1  0.4996260000000  0.4407550000000  0.5046770000000 1.0
C      1  0.5492340000000  0.4780030000000  0.4984890000000 1.0
C      1  0.5540120000000  0.5349050000000  0.5084210000000 1.0
C      1  0.4950500000000  0.5597530000000  0.4870260000000 1.0
C      1  0.4483260000000  0.5264860000000  0.5107430000000 1.0
C      1  0.4411150000000  0.4662830000000  0.4892280000000 1.0
C      1  0.4645920000000  0.4582210000000  0.5119420000000 1.0
C      1  0.5173340000000  0.4598570000000  0.4828180000000 1.0
C      1  0.5351620000000  0.4925820000000  0.5191030000000 1.0
C      1  0.5367190000000  0.5437280000000  0.4831670000000 1.0
C      1  0.4866530000000  0.5548740000000  0.5178510000000 1.0
C      1  0.4495230000000  0.5051930000000  0.4869350000000 1.0
END
