TITL C-1154830-9999-495 -0.000825148151585039 125000 -317.105434366241 0 0 60 (C1) n - 1
REM
REM in /home/nfs/bkarasulu/CARBON/AIRSS/Generating-Clusters/AIREBO/Higher-Symm/Only-C60
REM
REM
REM
REM
REM
REM ./C.cell (28575a23ae977d3b5fae324c64b13b57)
REM
REM compiler GCC version 9.2.1 20190827 (Red Hat 9.2.1-1)
REM options -cpp -mtune=generic -march=x86-64 -g -O0 -fpre-include=/usr/include/finclude/math-vector-fortran.h
REM seed 1496578349 1415084267 28211978 -284447040 723453609 1980609775 -1704278157 208651730 -1407225037 -1827170420 -1484706337 -1215472305 261186821 -685736524 1220949380 1758111153 -1961726447 380071512 -391390488 233782865 1268521924 878399460 2034300086 1223549212 1033022898 -750908131 -1497603196 1523614242 -1845993893 -818123816 1565840538 -691619211 934101554
REM
CELL 1.54180   50.00000   50.00000   50.00000   90.00000   90.00000   90.00000
LATT -1
SFAC C  
C      1  0.5065630000000  0.5495650000000  0.5161200000000 1.0
C      1  0.5564170000000  0.5349510000000  0.5077300000000 1.0
C      1  0.5361270000000  0.5107230000000  0.5442300000000 1.0
C      1  0.5030830000000  0.5443800000000  0.4767160000000 1.0
C      1  0.4805580000000  0.4430330000000  0.5310270000000 1.0
C      1  0.5040510000000  0.4577880000000  0.4855060000000 1.0
C      1  0.4497620000000  0.5292650000000  0.4978000000000 1.0
C      1  0.4522560000000  0.4750130000000  0.5014390000000 1.0
C      1  0.5532650000000  0.4786430000000  0.4951270000000 1.0
C      1  0.4705000000000  0.5108390000000  0.4561400000000 1.0
C      1  0.4607770000000  0.4880390000000  0.5502130000000 1.0
C      1  0.5231760000000  0.4973170000000  0.4558720000000 1.0
C      1  0.5322910000000  0.5500670000000  0.4982370000000 1.0
C      1  0.5132070000000  0.5357410000000  0.5420410000000 1.0
C      1  0.5515170000000  0.5049640000000  0.5175850000000 1.0
C      1  0.4788870000000  0.5521680000000  0.4965110000000 1.0
C      1  0.5282960000000  0.4597470000000  0.5036440000000 1.0
C      1  0.4748310000000  0.4542240000000  0.5025500000000 1.0
C      1  0.4995880000000  0.5217630000000  0.4573810000000 1.0
C      1  0.5110440000000  0.4683100000000  0.4574450000000 1.0
C      1  0.4781910000000  0.4638990000000  0.5558860000000 1.0
C      1  0.4553300000000  0.5032480000000  0.4827300000000 1.0
C      1  0.5525030000000  0.4941980000000  0.4646830000000 1.0
C      1  0.4395800000000  0.4808220000000  0.5296930000000 1.0
C      1  0.5786550000000  0.4887810000000  0.5242710000000 1.0
C      1  0.4887540000000  0.5295470000000  0.5590430000000 1.0
C      1  0.5387890000000  0.5770040000000  0.4821120000000 1.0
C      1  0.4281820000000  0.4882300000000  0.4725550000000 1.0
C      1  0.4206150000000  0.5051460000000  0.5276950000000 1.0
C      1  0.5715210000000  0.5183660000000  0.4650120000000 1.0
C      1  0.5064420000000  0.5332080000000  0.4256810000000 1.0
C      1  0.5052980000000  0.4729170000000  0.5654940000000 1.0
C      1  0.4867050000000  0.4676670000000  0.4384340000000 1.0
C      1  0.4708530000000  0.5845160000000  0.5103240000000 1.0
C      1  0.4661370000000  0.4261390000000  0.4842770000000 1.0
C      1  0.5293130000000  0.4418270000000  0.5238020000000 1.0
C      1  0.5244120000000  0.4866860000000  0.5589590000000 1.0
C      1  0.5764700000000  0.5332990000000  0.4845080000000 1.0
C      1  0.4944950000000  0.5787330000000  0.5219520000000 1.0
C      1  0.4700490000000  0.4864330000000  0.4370750000000 1.0
C      1  0.5223150000000  0.5108710000000  0.4264580000000 1.0
C      1  0.4687000000000  0.5118840000000  0.5584590000000 1.0
C      1  0.4293550000000  0.5269170000000  0.5177000000000 1.0
C      1  0.5828720000000  0.4675380000000  0.5076600000000 1.0
C      1  0.4266620000000  0.4625300000000  0.4820700000000 1.0
C      1  0.5183110000000  0.5686240000000  0.4657520000000 1.0
C      1  0.4933490000000  0.4273110000000  0.4798210000000 1.0
C      1  0.5072610000000  0.4280800000000  0.5323210000000 1.0
C      1  0.5598800000000  0.4550490000000  0.4715520000000 1.0
C      1  0.4532420000000  0.5352910000000  0.4489820000000 1.0
C      1  0.4280570000000  0.4544020000000  0.5402820000000 1.0
C      1  0.5635390000000  0.4706200000000  0.4429110000000 1.0
C      1  0.4397110000000  0.5643170000000  0.4472530000000 1.0
C      1  0.5366410000000  0.4530690000000  0.4492500000000 1.0
C      1  0.4554890000000  0.4396460000000  0.5526790000000 1.0
C      1  0.5613010000000  0.5259750000000  0.5614820000000 1.0
C      1  0.5391570000000  0.5489970000000  0.5547320000000 1.0
C      1  0.4522350000000  0.5534690000000  0.4768590000000 1.0
C      1  0.4288270000000  0.4222520000000  0.5408750000000 1.0
C      1  0.5646070000000  0.5459550000000  0.5354010000000 1.0
END
