TITL C-1154821-8623-652 0.00165214975521167 125000 -322.152031500089 0 0 60 (C1) n - 1
REM
REM in /home/nfs/bkarasulu/CARBON/AIRSS/Generating-Clusters/AIREBO/Higher-Symm/Only-C60
REM
REM
REM
REM
REM
REM ./C.cell (28575a23ae977d3b5fae324c64b13b57)
REM
REM compiler GCC version 9.2.1 20190827 (Red Hat 9.2.1-1)
REM options -cpp -mtune=generic -march=x86-64 -g -O0 -fpre-include=/usr/include/finclude/math-vector-fortran.h
REM seed -2013181101 508329053 -1146464538 -555373966 1503357777 1074911760 561607121 -1598802744 -1476119359 168420860 -1356824264 -1463459934 565626812 1828378516 1423898937 -833510370 -426868691 54328008 1099747862 71882234 -1515823101 245289888 1393273507 -1540294943 191671051 -1563966218 -94681463 114944566 -1985370333 1215334821 1206708541 -92481058 -1334617256
REM
CELL 1.54180   50.00000   50.00000   50.00000   90.00000   90.00000   90.00000
LATT -1
SFAC C  
C      1  0.4863310000000  0.4394510000000  0.5379490000000 1.0
C      1  0.5413880000000  0.4494810000000  0.5342040000000 1.0
C      1  0.5553600000000  0.5011540000000  0.5383850000000 1.0
C      1  0.5392050000000  0.5568440000000  0.5335890000000 1.0
C      1  0.4881500000000  0.5646790000000  0.5324920000000 1.0
C      1  0.4520330000000  0.5243630000000  0.5411500000000 1.0
C      1  0.4396290000000  0.4697420000000  0.5340670000000 1.0
C      1  0.5173470000000  0.4698520000000  0.4277820000000 1.0
C      1  0.5319730000000  0.5005460000000  0.4276250000000 1.0
C      1  0.5250890000000  0.5319730000000  0.4249260000000 1.0
C      1  0.4954110000000  0.5390850000000  0.4223550000000 1.0
C      1  0.4727670000000  0.5245980000000  0.4143680000000 1.0
C      1  0.4669120000000  0.5017040000000  0.4268230000000 1.0
C      1  0.4836160000000  0.4735970000000  0.4257410000000 1.0
C      1  0.5412460000000  0.5191370000000  0.5002490000000 1.0
C      1  0.5142860000000  0.5379360000000  0.4948680000000 1.0
C      1  0.4847130000000  0.5242870000000  0.4986990000000 1.0
C      1  0.4639120000000  0.4973920000000  0.4971160000000 1.0
C      1  0.4715640000000  0.4653180000000  0.4946570000000 1.0
C      1  0.5009150000000  0.4519000000000  0.5029230000000 1.0
C      1  0.5365750000000  0.4878430000000  0.5057130000000 1.0
C      1  0.4659340000000  0.5541140000000  0.5473300000000 1.0
C      1  0.4358500000000  0.4962660000000  0.5439670000000 1.0
C      1  0.4558320000000  0.4512310000000  0.5479480000000 1.0
C      1  0.5184140000000  0.4343470000000  0.5426820000000 1.0
C      1  0.5562960000000  0.4686680000000  0.5493240000000 1.0
C      1  0.5530080000000  0.5342840000000  0.5457800000000 1.0
C      1  0.5125820000000  0.5587660000000  0.5459540000000 1.0
C      1  0.4779160000000  0.4281180000000  0.5074750000000 1.0
C      1  0.5401970000000  0.4574920000000  0.5074280000000 1.0
C      1  0.5683260000000  0.4999430000000  0.5069700000000 1.0
C      1  0.5387050000000  0.5583120000000  0.5054830000000 1.0
C      1  0.4882000000000  0.5575240000000  0.5038570000000 1.0
C      1  0.4467940000000  0.5225320000000  0.5102740000000 1.0
C      1  0.4404720000000  0.4667480000000  0.5064390000000 1.0
C      1  0.4867720000000  0.4616710000000  0.4574290000000 1.0
C      1  0.5207240000000  0.4642780000000  0.4610320000000 1.0
C      1  0.5393840000000  0.4930510000000  0.4599560000000 1.0
C      1  0.5306800000000  0.5260820000000  0.4579560000000 1.0
C      1  0.4993570000000  0.5389190000000  0.4542770000000 1.0
C      1  0.4776580000000  0.5180150000000  0.4660300000000 1.0
C      1  0.4647710000000  0.4876610000000  0.4577190000000 1.0
C      1  0.4400140000000  0.4820260000000  0.4776640000000 1.0
C      1  0.4757170000000  0.4372750000000  0.4758860000000 1.0
C      1  0.5260630000000  0.4456400000000  0.4844460000000 1.0
C      1  0.5633870000000  0.4914100000000  0.4763810000000 1.0
C      1  0.5492230000000  0.5435170000000  0.4778340000000 1.0
C      1  0.4946320000000  0.5643620000000  0.4722250000000 1.0
C      1  0.4494870000000  0.5305130000000  0.4804150000000 1.0
C      1  0.4789760000000  0.4972250000000  0.5583460000000 1.0
C      1  0.4823170000000  0.4639500000000  0.5611830000000 1.0
C      1  0.5123730000000  0.4780780000000  0.5623380000000 1.0
C      1  0.5390470000000  0.4906520000000  0.5663170000000 1.0
C      1  0.5329860000000  0.5214710000000  0.5644660000000 1.0
C      1  0.5088820000000  0.5359820000000  0.5635330000000 1.0
C      1  0.4779280000000  0.5270960000000  0.5633320000000 1.0
C      1  0.5000800000000  0.4948590000000  0.4768760000000 1.0
C      1  0.5053590000000  0.4832260000000  0.5062910000000 1.0
C      1  0.4991160000000  0.4890050000000  0.5351550000000 1.0
C      1  0.5027360000000  0.4956930000000  0.4443620000000 1.0
END
