TITL C-1154804-8633-493 -0.00448830928636188 125000 -342.639760072086 0 0 60 (C1) n - 1
REM
REM in /home/nfs/bkarasulu/CARBON/AIRSS/Generating-Clusters/AIREBO/Higher-Symm/Only-C60
REM
REM
REM
REM
REM
REM ./C.cell (28575a23ae977d3b5fae324c64b13b57)
REM
REM compiler GCC version 9.2.1 20190827 (Red Hat 9.2.1-1)
REM options -cpp -mtune=generic -march=x86-64 -g -O0 -fpre-include=/usr/include/finclude/math-vector-fortran.h
REM seed -1417582143 476691826 87706052 1748629500 1545210188 1674306042 1044433754 -1454793063 993409605 -1558296659 -1121938797 -68746393 -258658303 -2042330178 -441107508 1340766380 842713799 1944422915 -189026386 688386243 1161110207 -109785022 1194059421 -1782297911 -57668614 903711328 -1855937653 -1400250439 147568654 408531627 -1947454898 239883123 -1898485342
REM
CELL 1.54180   50.00000   50.00000   50.00000   90.00000   90.00000   90.00000
LATT -1
SFAC C  
C      1  0.5048870000000  0.4633250000000  0.4414370000000 1.0
C      1  0.4996770000000  0.5483790000000  0.5598700000000 1.0
C      1  0.4944610000000  0.4600700000000  0.5664950000000 1.0
C      1  0.5036560000000  0.5367080000000  0.4353770000000 1.0
C      1  0.5358490000000  0.5142770000000  0.4404930000000 1.0
C      1  0.5324960000000  0.4778240000000  0.5675320000000 1.0
C      1  0.5396120000000  0.5009450000000  0.5761490000000 1.0
C      1  0.5465370000000  0.4916100000000  0.4371090000000 1.0
C      1  0.4529510000000  0.5615250000000  0.5184180000000 1.0
C      1  0.4443720000000  0.4314420000000  0.4909120000000 1.0
C      1  0.4477840000000  0.5681570000000  0.4917120000000 1.0
C      1  0.4508550000000  0.4351910000000  0.5180040000000 1.0
C      1  0.5386330000000  0.5163510000000  0.4802380000000 1.0
C      1  0.5326320000000  0.4965450000000  0.5214960000000 1.0
C      1  0.5343510000000  0.5221710000000  0.5327600000000 1.0
C      1  0.5403780000000  0.4932260000000  0.4957230000000 1.0
C      1  0.4588650000000  0.4698060000000  0.4587750000000 1.0
C      1  0.4762490000000  0.5147920000000  0.5335170000000 1.0
C      1  0.4833910000000  0.4815470000000  0.5346470000000 1.0
C      1  0.4789160000000  0.5285830000000  0.4649150000000 1.0
C      1  0.5389110000000  0.5643730000000  0.4647420000000 1.0
C      1  0.5333210000000  0.4254220000000  0.5341110000000 1.0
C      1  0.5326160000000  0.5770260000000  0.5263390000000 1.0
C      1  0.5389700000000  0.4363440000000  0.4674240000000 1.0
C      1  0.4372890000000  0.5087350000000  0.5399010000000 1.0
C      1  0.4319210000000  0.4851180000000  0.4490520000000 1.0
C      1  0.4290210000000  0.5089630000000  0.4576830000000 1.0
C      1  0.4501330000000  0.4809640000000  0.5417190000000 1.0
C      1  0.4725490000000  0.4513520000000  0.5233890000000 1.0
C      1  0.4660050000000  0.5583770000000  0.4727610000000 1.0
C      1  0.4628130000000  0.4420290000000  0.4718560000000 1.0
C      1  0.4754910000000  0.5468070000000  0.5237180000000 1.0
C      1  0.4517340000000  0.5181840000000  0.5101810000000 1.0
C      1  0.4524080000000  0.4888560000000  0.4831190000000 1.0
C      1  0.4520150000000  0.5203160000000  0.4774280000000 1.0
C      1  0.4510790000000  0.4847900000000  0.5114110000000 1.0
C      1  0.4893930000000  0.4361770000000  0.4782600000000 1.0
C      1  0.5009250000000  0.5572750000000  0.5077910000000 1.0
C      1  0.4981150000000  0.4410880000000  0.5069550000000 1.0
C      1  0.4945000000000  0.5626690000000  0.4786670000000 1.0
C      1  0.5513380000000  0.5906910000000  0.5102500000000 1.0
C      1  0.5538840000000  0.4153910000000  0.4816820000000 1.0
C      1  0.5587290000000  0.5756250000000  0.4871250000000 1.0
C      1  0.5524580000000  0.4199510000000  0.5094850000000 1.0
C      1  0.5257810000000  0.5224670000000  0.5610550000000 1.0
C      1  0.5345020000000  0.4686900000000  0.4504060000000 1.0
C      1  0.5122000000000  0.5206120000000  0.4640890000000 1.0
C      1  0.5169390000000  0.4779240000000  0.5388740000000 1.0
C      1  0.5473420000000  0.5438060000000  0.4894390000000 1.0
C      1  0.5303650000000  0.4449350000000  0.5055250000000 1.0
C      1  0.5308410000000  0.5460740000000  0.5158640000000 1.0
C      1  0.5383180000000  0.4664840000000  0.4831680000000 1.0
C      1  0.4933430000000  0.5150170000000  0.5617400000000 1.0
C      1  0.4834400000000  0.4805920000000  0.4428030000000 1.0
C      1  0.4850780000000  0.5083500000000  0.4382880000000 1.0
C      1  0.4935010000000  0.4844290000000  0.5732050000000 1.0
C      1  0.5063420000000  0.5662250000000  0.5401500000000 1.0
C      1  0.5087680000000  0.4394740000000  0.4589090000000 1.0
C      1  0.5124320000000  0.5598440000000  0.4569290000000 1.0
C      1  0.5086380000000  0.4460820000000  0.5389280000000 1.0
END
