TITL C-1154828-9214-155 -0.00319338408853554 125000 -313.315627692133 0 0 60 (C1) n - 1
REM
REM in /home/nfs/bkarasulu/CARBON/AIRSS/Generating-Clusters/AIREBO/Higher-Symm/Only-C60
REM
REM
REM
REM
REM
REM ./C.cell (28575a23ae977d3b5fae324c64b13b57)
REM
REM compiler GCC version 9.2.1 20190827 (Red Hat 9.2.1-1)
REM options -cpp -mtune=generic -march=x86-64 -g -O0 -fpre-include=/usr/include/finclude/math-vector-fortran.h
REM seed 430439032 -1724884137 -699691258 66254704 543917049 -232728168 875819886 106486056 755520009 1915456577 -1011719117 1815083768 547702801 -847699339 -1519308794 -119858368 2125285878 -1908585135 -99348314 1823911048 1431316693 1190053436 160810773 -1774641586 980829065 -1206559409 906371210 -1528472617 -1441553521 -1973908932 -1263388136 576396495 592659363
REM
CELL 1.54180   50.00000   50.00000   50.00000   90.00000   90.00000   90.00000
LATT -1
SFAC C  
C      1  0.5218110000000  0.5448640000000  0.4555280000000 1.0
C      1  0.4833620000000  0.5347320000000  0.5418790000000 1.0
C      1  0.4853570000000  0.5373940000000  0.4444580000000 1.0
C      1  0.5198570000000  0.5384130000000  0.5550890000000 1.0
C      1  0.4303000000000  0.5542870000000  0.5057150000000 1.0
C      1  0.5662150000000  0.5429980000000  0.4844590000000 1.0
C      1  0.5687290000000  0.5490100000000  0.5090750000000 1.0
C      1  0.4357660000000  0.5549710000000  0.4810040000000 1.0
C      1  0.4717640000000  0.4333770000000  0.4843660000000 1.0
C      1  0.5224000000000  0.4339540000000  0.5151620000000 1.0
C      1  0.5208460000000  0.4423810000000  0.4864050000000 1.0
C      1  0.4745770000000  0.4356610000000  0.5130170000000 1.0
C      1  0.5158150000000  0.5127280000000  0.4518830000000 1.0
C      1  0.4835720000000  0.5007390000000  0.5412610000000 1.0
C      1  0.4852060000000  0.5053190000000  0.4557460000000 1.0
C      1  0.5131020000000  0.5083650000000  0.5446610000000 1.0
C      1  0.4869170000000  0.4662980000000  0.5203440000000 1.0
C      1  0.5054210000000  0.4726800000000  0.4855060000000 1.0
C      1  0.5196700000000  0.4696220000000  0.5149590000000 1.0
C      1  0.4741250000000  0.4667330000000  0.4826440000000 1.0
C      1  0.4846740000000  0.4488080000000  0.4563740000000 1.0
C      1  0.5141130000000  0.4420460000000  0.5432240000000 1.0
C      1  0.5151390000000  0.4460880000000  0.4573180000000 1.0
C      1  0.4817380000000  0.4450210000000  0.5453070000000 1.0
C      1  0.5153390000000  0.5492620000000  0.5228910000000 1.0
C      1  0.4881070000000  0.5500090000000  0.4763820000000 1.0
C      1  0.4839330000000  0.5466040000000  0.5100470000000 1.0
C      1  0.5184760000000  0.5443500000000  0.4893800000000 1.0
C      1  0.5570580000000  0.5146440000000  0.5494060000000 1.0
C      1  0.4444450000000  0.5153510000000  0.4510340000000 1.0
C      1  0.4406780000000  0.5206630000000  0.5480690000000 1.0
C      1  0.5596080000000  0.5185130000000  0.4515580000000 1.0
C      1  0.4663370000000  0.5111190000000  0.5145830000000 1.0
C      1  0.5125710000000  0.5051150000000  0.4848750000000 1.0
C      1  0.5256830000000  0.5117440000000  0.5155530000000 1.0
C      1  0.4794850000000  0.5131850000000  0.4878980000000 1.0
C      1  0.5467280000000  0.5364560000000  0.5257310000000 1.0
C      1  0.4578550000000  0.5348280000000  0.4730160000000 1.0
C      1  0.4499770000000  0.5383840000000  0.5205780000000 1.0
C      1  0.5421160000000  0.5214360000000  0.4805680000000 1.0
C      1  0.5478260000000  0.5438330000000  0.4441260000000 1.0
C      1  0.4612160000000  0.5406560000000  0.5587490000000 1.0
C      1  0.4589920000000  0.5349380000000  0.4331260000000 1.0
C      1  0.5455340000000  0.5363880000000  0.5656990000000 1.0
C      1  0.5309030000000  0.4596820000000  0.5559720000000 1.0
C      1  0.4740020000000  0.4773240000000  0.4443310000000 1.0
C      1  0.4703620000000  0.4749300000000  0.5551460000000 1.0
C      1  0.5321000000000  0.4628340000000  0.4442650000000 1.0
C      1  0.4555640000000  0.4794770000000  0.5182690000000 1.0
C      1  0.5581560000000  0.4868240000000  0.4819960000000 1.0
C      1  0.5491200000000  0.4797160000000  0.5140660000000 1.0
C      1  0.4453930000000  0.4792800000000  0.4858150000000 1.0
C      1  0.4488160000000  0.4887850000000  0.4564490000000 1.0
C      1  0.5401190000000  0.4877310000000  0.5440480000000 1.0
C      1  0.5409060000000  0.4903830000000  0.4554520000000 1.0
C      1  0.4448560000000  0.4932410000000  0.5474730000000 1.0
C      1  0.4336400000000  0.4542810000000  0.5262380000000 1.0
C      1  0.5892170000000  0.4788920000000  0.4816750000000 1.0
C      1  0.5805640000000  0.4708310000000  0.5085750000000 1.0
C      1  0.4238430000000  0.4618200000000  0.5015770000000 1.0
END
