TITL C-1154810-7815-283 0.000309418871664998 125000 -342.088520187055 0 0 60 (C1) n - 1
REM
REM in /home/nfs/bkarasulu/CARBON/AIRSS/Generating-Clusters/AIREBO/Higher-Symm/Only-C60
REM
REM
REM
REM
REM
REM ./C.cell (28575a23ae977d3b5fae324c64b13b57)
REM
REM compiler GCC version 9.2.1 20190827 (Red Hat 9.2.1-1)
REM options -cpp -mtune=generic -march=x86-64 -g -O0 -fpre-include=/usr/include/finclude/math-vector-fortran.h
REM seed -104390576 -696031780 -272542290 1184690956 -317328834 -1980738493 -58485550 1881071959 -304970700 -1907878368 129747071 1808825174 1884535470 54859203 -387176859 786711396 2008101519 -1895285934 -1359675147 878577546 -1377271789 -997077086 -1029198535 1054454898 2128150225 -66055389 -1723241567 1609544450 874103900 230434111 -1989842692 1812857402 -490800949
REM
CELL 1.54180   50.00000   50.00000   50.00000   90.00000   90.00000   90.00000
LATT -1
SFAC C  
C      1  0.4452180000000  0.5573200000000  0.5001990000000 1.0
C      1  0.4452410000000  0.5288010000000  0.5499620000000 1.0
C      1  0.4452250000000  0.4711620000000  0.5499880000000 1.0
C      1  0.4450190000000  0.4424950000000  0.5006240000000 1.0
C      1  0.4450120000000  0.4709830000000  0.4506060000000 1.0
C      1  0.4451680000000  0.5284250000000  0.4503150000000 1.0
C      1  0.5354140000000  0.4738510000000  0.5383090000000 1.0
C      1  0.5369130000000  0.4532610000000  0.4961620000000 1.0
C      1  0.5378640000000  0.4799410000000  0.4574780000000 1.0
C      1  0.5383000000000  0.5268170000000  0.4608390000000 1.0
C      1  0.5371080000000  0.5471370000000  0.5032560000000 1.0
C      1  0.5354770000000  0.5204350000000  0.5418370000000 1.0
C      1  0.5193330000000  0.4546400000000  0.5532620000000 1.0
C      1  0.5191220000000  0.4314110000000  0.4874530000000 1.0
C      1  0.5192540000000  0.4766460000000  0.4345620000000 1.0
C      1  0.5194220000000  0.5451840000000  0.4470350000000 1.0
C      1  0.5193350000000  0.5686140000000  0.5127840000000 1.0
C      1  0.5192860000000  0.5232640000000  0.5658860000000 1.0
C      1  0.4732650000000  0.5333560000000  0.4441920000000 1.0
C      1  0.4733260000000  0.5650930000000  0.5012470000000 1.0
C      1  0.4733820000000  0.5316040000000  0.5571870000000 1.0
C      1  0.4733490000000  0.4663330000000  0.5560780000000 1.0
C      1  0.4731500000000  0.4348340000000  0.4994060000000 1.0
C      1  0.4731040000000  0.4681300000000  0.4432690000000 1.0
C      1  0.4996700000000  0.5305630000000  0.4318460000000 1.0
C      1  0.4995390000000  0.5746710000000  0.4925410000000 1.0
C      1  0.4994690000000  0.5440310000000  0.5613800000000 1.0
C      1  0.4994950000000  0.4689680000000  0.5689140000000 1.0
C      1  0.4994890000000  0.4253190000000  0.5078150000000 1.0
C      1  0.4995530000000  0.4561200000000  0.4394900000000 1.0
C      1  0.4597900000000  0.4959590000000  0.4684620000000 1.0
C      1  0.4599150000000  0.5255590000000  0.4808990000000 1.0
C      1  0.4600780000000  0.5293910000000  0.5128490000000 1.0
C      1  0.4599240000000  0.5037650000000  0.5321210000000 1.0
C      1  0.4599880000000  0.4744180000000  0.5194570000000 1.0
C      1  0.4596670000000  0.4704490000000  0.4877850000000 1.0
C      1  0.5600170000000  0.5167330000000  0.4765430000000 1.0
C      1  0.5593050000000  0.5288530000000  0.5027960000000 1.0
C      1  0.5583340000000  0.5121690000000  0.5263040000000 1.0
C      1  0.5581830000000  0.4835440000000  0.5236920000000 1.0
C      1  0.5590450000000  0.4713750000000  0.4976530000000 1.0
C      1  0.5596450000000  0.4879490000000  0.4741150000000 1.0
C      1  0.4879820000000  0.4966220000000  0.4494660000000 1.0
C      1  0.4881080000000  0.5423340000000  0.4719630000000 1.0
C      1  0.4884620000000  0.5452420000000  0.5228130000000 1.0
C      1  0.4884290000000  0.5028970000000  0.5506370000000 1.0
C      1  0.4886130000000  0.4581330000000  0.5279130000000 1.0
C      1  0.4880180000000  0.4545920000000  0.4777410000000 1.0
C      1  0.5117180000000  0.5084370000000  0.4675760000000 1.0
C      1  0.5115720000000  0.5309630000000  0.4902170000000 1.0
C      1  0.5107390000000  0.5227400000000  0.5207130000000 1.0
C      1  0.5098140000000  0.4923420000000  0.5295830000000 1.0
C      1  0.5105450000000  0.4692830000000  0.5073290000000 1.0
C      1  0.5106540000000  0.4773550000000  0.4761820000000 1.0
C      1  0.5076900000000  0.4343350000000  0.4590340000000 1.0
C      1  0.5079480000000  0.5027630000000  0.4228430000000 1.0
C      1  0.5079560000000  0.5683550000000  0.4639590000000 1.0
C      1  0.5078150000000  0.5655180000000  0.5413980000000 1.0
C      1  0.5077250000000  0.4970230000000  0.5776130000000 1.0
C      1  0.5078220000000  0.4314930000000  0.5364240000000 1.0
END
