TITL C-1154821-8623-65 -0.000211095808101459 125000 -340.307614923907 0 0 60 (C2) n - 1
REM
REM in /home/nfs/bkarasulu/CARBON/AIRSS/Generating-Clusters/AIREBO/Higher-Symm/Only-C60
REM
REM
REM
REM
REM
REM ./C.cell (28575a23ae977d3b5fae324c64b13b57)
REM
REM compiler GCC version 9.2.1 20190827 (Red Hat 9.2.1-1)
REM options -cpp -mtune=generic -march=x86-64 -g -O0 -fpre-include=/usr/include/finclude/math-vector-fortran.h
REM seed 1323980116 1243988105 100305463 126131059 -194612352 -126574255 -1310069627 1396131932 -1729007461 980584621 1495390880 652013234 -602306086 -796548368 -1526220118 -767040883 1756323633 -404877683 -316894548 -2052349561 -254907098 -31066279 -509082746 1245082178 -579939550 -1334866818 136039934 -96083808 859791744 -831067620 -1016336857 80251438 181433065
REM
CELL 1.54180   50.00000   50.00000   50.00000   90.00000   90.00000   90.00000
LATT -1
SFAC C  
C      1  0.4792950000000  0.4857180000000  0.4497390000000 1.0
C      1  0.5195090000000  0.5154420000000  0.4574410000000 1.0
C      1  0.4742890000000  0.4840020000000  0.5543620000000 1.0
C      1  0.5098980000000  0.5121150000000  0.5431140000000 1.0
C      1  0.4743400000000  0.5160320000000  0.4455900000000 1.0
C      1  0.5098360000000  0.4881100000000  0.4575300000000 1.0
C      1  0.4790190000000  0.5144300000000  0.5502740000000 1.0
C      1  0.5193510000000  0.4846210000000  0.5426230000000 1.0
C      1  0.5177460000000  0.5283380000000  0.4301380000000 1.0
C      1  0.4940120000000  0.4708490000000  0.4253170000000 1.0
C      1  0.5232200000000  0.5297620000000  0.5690500000000 1.0
C      1  0.4894450000000  0.4704470000000  0.5744670000000 1.0
C      1  0.5231060000000  0.4692620000000  0.4307140000000 1.0
C      1  0.4895110000000  0.5295750000000  0.4255280000000 1.0
C      1  0.5176940000000  0.4714920000000  0.5697500000000 1.0
C      1  0.4935550000000  0.5297460000000  0.5747720000000 1.0
C      1  0.5303480000000  0.4680290000000  0.4699530000000 1.0
C      1  0.4594650000000  0.5277340000000  0.4707210000000 1.0
C      1  0.5373950000000  0.4694900000000  0.5219030000000 1.0
C      1  0.4602820000000  0.5259610000000  0.5277970000000 1.0
C      1  0.5374140000000  0.5309670000000  0.4779720000000 1.0
C      1  0.4605950000000  0.4739740000000  0.4720950000000 1.0
C      1  0.5305980000000  0.5318200000000  0.5298530000000 1.0
C      1  0.4592250000000  0.4723420000000  0.5292090000000 1.0
C      1  0.4130620000000  0.5274020000000  0.5142650000000 1.0
C      1  0.5760410000000  0.4747290000000  0.5133450000000 1.0
C      1  0.4127610000000  0.5276570000000  0.4865740000000 1.0
C      1  0.5765540000000  0.4729920000000  0.4887030000000 1.0
C      1  0.4126590000000  0.4723270000000  0.5131480000000 1.0
C      1  0.5767120000000  0.5269500000000  0.5110670000000 1.0
C      1  0.4132680000000  0.4725510000000  0.4854610000000 1.0
C      1  0.5760030000000  0.5251840000000  0.4864300000000 1.0
C      1  0.5489720000000  0.4726830000000  0.5660610000000 1.0
C      1  0.4808440000000  0.5382800000000  0.5972840000000 1.0
C      1  0.5498870000000  0.4671730000000  0.4351860000000 1.0
C      1  0.4784470000000  0.5425510000000  0.4047280000000 1.0
C      1  0.5499290000000  0.5327070000000  0.5647160000000 1.0
C      1  0.4783650000000  0.4576590000000  0.5953750000000 1.0
C      1  0.5490140000000  0.5269580000000  0.4336730000000 1.0
C      1  0.4808250000000  0.4619570000000  0.4031750000000 1.0
C      1  0.4337440000000  0.4866170000000  0.4721880000000 1.0
C      1  0.5597990000000  0.5120110000000  0.4614190000000 1.0
C      1  0.4328170000000  0.4856350000000  0.5275670000000 1.0
C      1  0.5598920000000  0.5190690000000  0.5360120000000 1.0
C      1  0.4330690000000  0.5143510000000  0.4723750000000 1.0
C      1  0.5596090000000  0.4808870000000  0.4638610000000 1.0
C      1  0.4334660000000  0.5133670000000  0.5276760000000 1.0
C      1  0.5600660000000  0.4879280000000  0.5384830000000 1.0
C      1  0.5120810000000  0.4472880000000  0.5273210000000 1.0
C      1  0.4813770000000  0.5528260000000  0.5287040000000 1.0
C      1  0.5093490000000  0.4416410000000  0.4715820000000 1.0
C      1  0.4838160000000  0.5514040000000  0.4715680000000 1.0
C      1  0.5094510000000  0.5580210000000  0.5287820000000 1.0
C      1  0.4838500000000  0.4489660000000  0.5286690000000 1.0
C      1  0.5120660000000  0.5532070000000  0.4728510000000 1.0
C      1  0.4812190000000  0.4467240000000  0.4716110000000 1.0
C      1  0.5261130000000  0.4516310000000  0.4977970000000 1.0
C      1  0.4698600000000  0.5417190000000  0.4997830000000 1.0
C      1  0.4696630000000  0.4581270000000  0.5003440000000 1.0
C      1  0.5262000000000  0.5485610000000  0.5023050000000 1.0
END
