TITL C-1154830-9999-541 -0.000844896278480852 125000 -319.980490490469 0 0 60 (C1) n - 1
REM
REM in /home/nfs/bkarasulu/CARBON/AIRSS/Generating-Clusters/AIREBO/Higher-Symm/Only-C60
REM
REM
REM
REM
REM
REM ./C.cell (28575a23ae977d3b5fae324c64b13b57)
REM
REM compiler GCC version 9.2.1 20190827 (Red Hat 9.2.1-1)
REM options -cpp -mtune=generic -march=x86-64 -g -O0 -fpre-include=/usr/include/finclude/math-vector-fortran.h
REM seed 565245419 718174716 -1024363719 1871542192 -461889333 1099549239 -1846201624 1824588934 411240559 975832411 -118940873 614253901 895791992 -779298196 2134060360 1311977396 1096783673 1235396009 -615225285 1502917740 -1404865268 -1810621589 15461594 -1069819871 1785822342 -508345542 -490436830 -1844015754 1936619025 -1303833259 455897353 373557711 1244694441
REM
CELL 1.54180   50.00000   50.00000   50.00000   90.00000   90.00000   90.00000
LATT -1
SFAC C  
C      1  0.5635180000000  0.4870550000000  0.4709450000000 1.0
C      1  0.5103720000000  0.4309180000000  0.4694630000000 1.0
C      1  0.4389820000000  0.4695670000000  0.4666580000000 1.0
C      1  0.4561230000000  0.5487140000000  0.4690220000000 1.0
C      1  0.5325630000000  0.5591790000000  0.4641880000000 1.0
C      1  0.5241250000000  0.5610370000000  0.5416600000000 1.0
C      1  0.5651340000000  0.4952320000000  0.5363640000000 1.0
C      1  0.5163980000000  0.4349240000000  0.5365860000000 1.0
C      1  0.4435050000000  0.4643620000000  0.5383540000000 1.0
C      1  0.4494440000000  0.5406900000000  0.5373610000000 1.0
C      1  0.5194420000000  0.4685430000000  0.4356560000000 1.0
C      1  0.4774140000000  0.4803890000000  0.4399070000000 1.0
C      1  0.4718290000000  0.5051770000000  0.4399620000000 1.0
C      1  0.4989430000000  0.5323620000000  0.4374060000000 1.0
C      1  0.5339160000000  0.5101520000000  0.4384430000000 1.0
C      1  0.4374750000000  0.5443290000000  0.5065700000000 1.0
C      1  0.5183840000000  0.5677600000000  0.5141020000000 1.0
C      1  0.5765090000000  0.5008080000000  0.5059590000000 1.0
C      1  0.5251540000000  0.4267100000000  0.5063720000000 1.0
C      1  0.4394270000000  0.4637790000000  0.5098540000000 1.0
C      1  0.5217490000000  0.5150860000000  0.5282450000000 1.0
C      1  0.5198360000000  0.4872790000000  0.5391920000000 1.0
C      1  0.4948140000000  0.4742410000000  0.5293090000000 1.0
C      1  0.4743460000000  0.4976430000000  0.5289720000000 1.0
C      1  0.4915930000000  0.5232900000000  0.5268990000000 1.0
C      1  0.5224550000000  0.4611180000000  0.4623970000000 1.0
C      1  0.4723790000000  0.4660480000000  0.4669730000000 1.0
C      1  0.4596130000000  0.5155010000000  0.4664360000000 1.0
C      1  0.5028090000000  0.5429130000000  0.4636690000000 1.0
C      1  0.5423040000000  0.5121320000000  0.4655260000000 1.0
C      1  0.4791200000000  0.4377890000000  0.4800190000000 1.0
C      1  0.4290380000000  0.5017610000000  0.4721240000000 1.0
C      1  0.4804060000000  0.5643890000000  0.4735260000000 1.0
C      1  0.5596750000000  0.5401170000000  0.4719770000000 1.0
C      1  0.5532900000000  0.4623490000000  0.4757360000000 1.0
C      1  0.5396560000000  0.4476840000000  0.5509930000000 1.0
C      1  0.4616890000000  0.4453000000000  0.5495340000000 1.0
C      1  0.4377460000000  0.5161570000000  0.5514470000000 1.0
C      1  0.4991130000000  0.5610200000000  0.5560230000000 1.0
C      1  0.5617500000000  0.5233700000000  0.5501590000000 1.0
C      1  0.4799230000000  0.5454940000000  0.5446990000000 1.0
C      1  0.5381610000000  0.5355990000000  0.5433450000000 1.0
C      1  0.5435770000000  0.4740110000000  0.5458700000000 1.0
C      1  0.4880430000000  0.4477280000000  0.5436680000000 1.0
C      1  0.4495300000000  0.4923390000000  0.5449540000000 1.0
C      1  0.4723730000000  0.5023960000000  0.4953590000000 1.0
C      1  0.4933020000000  0.5295120000000  0.4935100000000 1.0
C      1  0.5246290000000  0.5156710000000  0.4943690000000 1.0
C      1  0.5213320000000  0.4822520000000  0.4890170000000 1.0
C      1  0.4903070000000  0.4728390000000  0.4956290000000 1.0
C      1  0.4282330000000  0.5348570000000  0.4805350000000 1.0
C      1  0.5107930000000  0.5751210000000  0.4848770000000 1.0
C      1  0.5790800000000  0.5146630000000  0.4801240000000 1.0
C      1  0.5417410000000  0.4330890000000  0.4824440000000 1.0
C      1  0.4465590000000  0.4441000000000  0.4876510000000 1.0
C      1  0.5357500000000  0.5474800000000  0.4989120000000 1.0
C      1  0.5478670000000  0.4863500000000  0.5082910000000 1.0
C      1  0.4974260000000  0.4411120000000  0.5055920000000 1.0
C      1  0.4411210000000  0.4903600000000  0.5002330000000 1.0
C      1  0.4682140000000  0.5481540000000  0.5069350000000 1.0
END
