TITL C-1154802-8274-510 9.55662877822941e-05 125000 -327.3401522393 0 0 60 (C1) n - 1
REM
REM in /home/nfs/bkarasulu/CARBON/AIRSS/Generating-Clusters/AIREBO/Higher-Symm/Only-C60
REM
REM
REM
REM
REM
REM ./C.cell (28575a23ae977d3b5fae324c64b13b57)
REM
REM compiler GCC version 9.2.1 20190827 (Red Hat 9.2.1-1)
REM options -cpp -mtune=generic -march=x86-64 -g -O0 -fpre-include=/usr/include/finclude/math-vector-fortran.h
REM seed -2018794852 -534325962 1111294916 -1131563297 -402140240 -126296084 1912451155 -1643223369 -1831748842 -1280780062 -535696954 1647088587 462047741 1264376144 -1792663334 1661195254 -1559936161 82768109 -2092766237 -1467485858 -1460914611 -173360661 209236236 2008501665 -1559146737 -1434789153 -367642221 281547691 -1112699396 -891297485 1679144549 -254802956 -1226888481
REM
CELL 1.54180   50.00000   50.00000   50.00000   90.00000   90.00000   90.00000
LATT -1
SFAC C  
C      1  0.5293850000000  0.4643480000000  0.5490200000000 1.0
C      1  0.5446880000000  0.5187320000000  0.5501590000000 1.0
C      1  0.4987760000000  0.5502970000000  0.5517210000000 1.0
C      1  0.4540420000000  0.5157770000000  0.5446040000000 1.0
C      1  0.4718560000000  0.4596690000000  0.5475190000000 1.0
C      1  0.5275140000000  0.5417990000000  0.5459020000000 1.0
C      1  0.5460960000000  0.4880120000000  0.5447210000000 1.0
C      1  0.5006860000000  0.4527510000000  0.5433720000000 1.0
C      1  0.4564780000000  0.4849460000000  0.5494470000000 1.0
C      1  0.4716370000000  0.5403300000000  0.5512070000000 1.0
C      1  0.4319630000000  0.5190440000000  0.4868650000000 1.0
C      1  0.4517730000000  0.4361880000000  0.4956140000000 1.0
C      1  0.5419190000000  0.4349240000000  0.4969290000000 1.0
C      1  0.5747800000000  0.5201380000000  0.4978090000000 1.0
C      1  0.5033480000000  0.5777630000000  0.4973950000000 1.0
C      1  0.4266870000000  0.4771490000000  0.4990540000000 1.0
C      1  0.4511270000000  0.5543660000000  0.4971610000000 1.0
C      1  0.5407330000000  0.5596410000000  0.4900440000000 1.0
C      1  0.5691470000000  0.4791370000000  0.4897960000000 1.0
C      1  0.5011130000000  0.4272830000000  0.4883020000000 1.0
C      1  0.4963930000000  0.4561780000000  0.5037680000000 1.0
C      1  0.5400390000000  0.4833610000000  0.5054850000000 1.0
C      1  0.5277940000000  0.5336460000000  0.5067690000000 1.0
C      1  0.4758920000000  0.5380080000000  0.5115650000000 1.0
C      1  0.4555940000000  0.4859610000000  0.5094890000000 1.0
C      1  0.5018900000000  0.5492080000000  0.5119520000000 1.0
C      1  0.5463470000000  0.5126080000000  0.5107870000000 1.0
C      1  0.5257930000000  0.4594730000000  0.5096060000000 1.0
C      1  0.4690390000000  0.4606910000000  0.5077880000000 1.0
C      1  0.4637530000000  0.5129920000000  0.4965800000000 1.0
C      1  0.5389060000000  0.5754520000000  0.4602340000000 1.0
C      1  0.4489300000000  0.5510020000000  0.4699150000000 1.0
C      1  0.4263040000000  0.4697760000000  0.4720490000000 1.0
C      1  0.5118270000000  0.4162530000000  0.4584320000000 1.0
C      1  0.5835600000000  0.4855850000000  0.4600960000000 1.0
C      1  0.5356770000000  0.4339990000000  0.4693470000000 1.0
C      1  0.4462260000000  0.4456830000000  0.4687840000000 1.0
C      1  0.4238890000000  0.5355210000000  0.4583910000000 1.0
C      1  0.5088290000000  0.5743480000000  0.4700300000000 1.0
C      1  0.5743790000000  0.5141050000000  0.4703640000000 1.0
C      1  0.5299680000000  0.4621720000000  0.4567020000000 1.0
C      1  0.5463110000000  0.5175190000000  0.4569170000000 1.0
C      1  0.4979450000000  0.5478040000000  0.4571850000000 1.0
C      1  0.4503700000000  0.5127330000000  0.4589800000000 1.0
C      1  0.4716700000000  0.4587430000000  0.4540540000000 1.0
C      1  0.5312450000000  0.5423790000000  0.4622360000000 1.0
C      1  0.5496550000000  0.4839730000000  0.4621970000000 1.0
C      1  0.4992540000000  0.4477560000000  0.4608960000000 1.0
C      1  0.4503400000000  0.4826850000000  0.4550180000000 1.0
C      1  0.4732940000000  0.5379080000000  0.4560060000000 1.0
C      1  0.4538400000000  0.5574870000000  0.5295330000000 1.0
C      1  0.4282400000000  0.4851140000000  0.5305080000000 1.0
C      1  0.5036130000000  0.4287050000000  0.5222450000000 1.0
C      1  0.5688130000000  0.4821440000000  0.5236610000000 1.0
C      1  0.5390150000000  0.5609140000000  0.5238960000000 1.0
C      1  0.4549420000000  0.4389060000000  0.5290190000000 1.0
C      1  0.4405070000000  0.5213890000000  0.5196460000000 1.0
C      1  0.5033040000000  0.5765680000000  0.5312670000000 1.0
C      1  0.5720540000000  0.5207940000000  0.5311980000000 1.0
C      1  0.5408100000000  0.4381650000000  0.5307660000000 1.0
END
