TITL C-1154801-8518-470 0.00185665210673008 125000 -355.497174324201 0 0 60 (C1) n - 1
REM
REM in /home/nfs/bkarasulu/CARBON/AIRSS/Generating-Clusters/AIREBO/Higher-Symm/Only-C60
REM
REM
REM
REM
REM
REM ./C.cell (28575a23ae977d3b5fae324c64b13b57)
REM
REM compiler GCC version 9.2.1 20190827 (Red Hat 9.2.1-1)
REM options -cpp -mtune=generic -march=x86-64 -g -O0 -fpre-include=/usr/include/finclude/math-vector-fortran.h
REM seed 746795228 -100616650 323185618 403387510 -55829423 -1636186978 1470456074 1897166234 -777125805 -1098973021 1942155130 452179315 -408854879 -1366220915 289042381 -1898038475 -1790751856 -2111965406 -1601971944 1171997646 -2116534522 936780606 1362826096 1177468956 1394607625 -580775922 1651584076 -1543414802 256313528 1898298189 1325029785 1764114395 -2028538311
REM
CELL 1.54180   50.00000   50.00000   50.00000   90.00000   90.00000   90.00000
LATT -1
SFAC C  
C      1  0.5395780000000  0.4592540000000  0.4351900000000 1.0
C      1  0.4444450000000  0.4854720000000  0.4485750000000 1.0
C      1  0.5182120000000  0.5555870000000  0.4452210000000 1.0
C      1  0.4607440000000  0.4612000000000  0.4458800000000 1.0
C      1  0.5605560000000  0.4812770000000  0.4352540000000 1.0
C      1  0.4896010000000  0.5579200000000  0.4414350000000 1.0
C      1  0.5431060000000  0.4522310000000  0.5354170000000 1.0
C      1  0.4425380000000  0.4805490000000  0.5400200000000 1.0
C      1  0.5014340000000  0.5758380000000  0.5355350000000 1.0
C      1  0.4595980000000  0.4570070000000  0.5389380000000 1.0
C      1  0.5595640000000  0.4753230000000  0.5381650000000 1.0
C      1  0.4756470000000  0.5616790000000  0.5326500000000 1.0
C      1  0.5161500000000  0.4773080000000  0.5198090000000 1.0
C      1  0.4730390000000  0.5048370000000  0.5126000000000 1.0
C      1  0.5195840000000  0.5325580000000  0.5159210000000 1.0
C      1  0.4870050000000  0.4747840000000  0.5064560000000 1.0
C      1  0.5353640000000  0.5033390000000  0.5234300000000 1.0
C      1  0.4881370000000  0.5311200000000  0.5020710000000 1.0
C      1  0.4864410000000  0.5216010000000  0.5864830000000 1.0
C      1  0.5273370000000  0.4983940000000  0.5739470000000 1.0
C      1  0.4811980000000  0.4761540000000  0.5788000000000 1.0
C      1  0.5118690000000  0.5224560000000  0.5729140000000 1.0
C      1  0.4700930000000  0.5018670000000  0.5738310000000 1.0
C      1  0.5117270000000  0.4746900000000  0.5737350000000 1.0
C      1  0.5612380000000  0.4795410000000  0.4842750000000 1.0
C      1  0.4468100000000  0.4497090000000  0.4918180000000 1.0
C      1  0.4852680000000  0.5773810000000  0.4853700000000 1.0
C      1  0.4265900000000  0.4703450000000  0.4931950000000 1.0
C      1  0.5444550000000  0.4503490000000  0.4848860000000 1.0
C      1  0.5141890000000  0.5776030000000  0.4891710000000 1.0
C      1  0.4814220000000  0.4559430000000  0.5564170000000 1.0
C      1  0.4771420000000  0.5357390000000  0.5447710000000 1.0
C      1  0.5475880000000  0.4980430000000  0.5547740000000 1.0
C      1  0.5135040000000  0.4577300000000  0.5452390000000 1.0
C      1  0.5054580000000  0.5303110000000  0.5467730000000 1.0
C      1  0.4605180000000  0.5068400000000  0.5415580000000 1.0
C      1  0.4895210000000  0.4660090000000  0.4461720000000 1.0
C      1  0.4748800000000  0.5320720000000  0.4407130000000 1.0
C      1  0.5318860000000  0.4980510000000  0.4401880000000 1.0
C      1  0.5120460000000  0.4717140000000  0.4313910000000 1.0
C      1  0.5274330000000  0.5293260000000  0.4503560000000 1.0
C      1  0.4606840000000  0.5090490000000  0.4524600000000 1.0
C      1  0.5471680000000  0.4368690000000  0.5129600000000 1.0
C      1  0.4219690000000  0.4797390000000  0.5199400000000 1.0
C      1  0.5203250000000  0.5665400000000  0.5150530000000 1.0
C      1  0.4668710000000  0.4526500000000  0.5117020000000 1.0
C      1  0.5645570000000  0.4902120000000  0.5119620000000 1.0
C      1  0.4732910000000  0.5588630000000  0.5035640000000 1.0
C      1  0.4757290000000  0.5011690000000  0.4791120000000 1.0
C      1  0.5226610000000  0.5245440000000  0.4830180000000 1.0
C      1  0.5220310000000  0.4727730000000  0.4876460000000 1.0
C      1  0.5355800000000  0.4978000000000  0.4731270000000 1.0
C      1  0.4920960000000  0.5274530000000  0.4688920000000 1.0
C      1  0.4929190000000  0.4749330000000  0.4742980000000 1.0
C      1  0.5280830000000  0.5753480000000  0.4641080000000 1.0
C      1  0.5432440000000  0.4395080000000  0.4555980000000 1.0
C      1  0.4225350000000  0.4822220000000  0.4673340000000 1.0
C      1  0.4777210000000  0.5780720000000  0.4578970000000 1.0
C      1  0.4522690000000  0.4411420000000  0.4649560000000 1.0
C      1  0.5773500000000  0.4819630000000  0.4570310000000 1.0
END
