TITL C-1154810-7815-362 -0.000589024426281851 125000 -313.582086529795 0 0 60 (Ci) n - 1
REM
REM in /home/nfs/bkarasulu/CARBON/AIRSS/Generating-Clusters/AIREBO/Higher-Symm/Only-C60
REM
REM
REM
REM
REM
REM ./C.cell (28575a23ae977d3b5fae324c64b13b57)
REM
REM compiler GCC version 9.2.1 20190827 (Red Hat 9.2.1-1)
REM options -cpp -mtune=generic -march=x86-64 -g -O0 -fpre-include=/usr/include/finclude/math-vector-fortran.h
REM seed 72815240 555205243 -1280385123 -1285301333 539405481 1095852795 1538123750 -163803098 -1398501475 -2116683884 -911117319 1362963280 -1130768208 -1795499153 -2132737893 -742604686 -859891885 -778266979 892324831 886776536 709888421 -1383006825 514881256 -2127363278 601936966 -900963870 -1535372423 538441 311402204 -453813435 613340736 -593953648 417562267
REM
CELL 1.54180   50.00000   50.00000   50.00000   90.00000   90.00000   90.00000
LATT -1
SFAC C  
C      1  0.5108560000000  0.5148600000000  0.4288510000000 1.0
C      1  0.4409020000000  0.4846680000000  0.4542800000000 1.0
C      1  0.4313500000000  0.5127210000000  0.5295010000000 1.0
C      1  0.4891440000000  0.4851400000000  0.5711490000000 1.0
C      1  0.5590980000000  0.5153320000000  0.5457200000000 1.0
C      1  0.5686500000000  0.4872790000000  0.4704990000000 1.0
C      1  0.5192260000000  0.4676840000000  0.4753020000000 1.0
C      1  0.4853610000000  0.5293060000000  0.4700740000000 1.0
C      1  0.4678950000000  0.4686410000000  0.4969220000000 1.0
C      1  0.4807740000000  0.5323160000000  0.5246980000000 1.0
C      1  0.5146390000000  0.4706940000000  0.5299260000000 1.0
C      1  0.5321050000000  0.5313590000000  0.5030780000000 1.0
C      1  0.4508350000000  0.4977040000000  0.4984120000000 1.0
C      1  0.4717010000000  0.5038260000000  0.5407080000000 1.0
C      1  0.5221090000000  0.5006610000000  0.5441720000000 1.0
C      1  0.5491650000000  0.5022960000000  0.5015880000000 1.0
C      1  0.5282990000000  0.4961740000000  0.4592920000000 1.0
C      1  0.4778910000000  0.4993390000000  0.4558280000000 1.0
C      1  0.5275790000000  0.5615340000000  0.4772760000000 1.0
C      1  0.4908100000000  0.4446740000000  0.4592260000000 1.0
C      1  0.4612670000000  0.5610400000000  0.4706630000000 1.0
C      1  0.4724210000000  0.4384660000000  0.5227240000000 1.0
C      1  0.5091900000000  0.5553260000000  0.5407740000000 1.0
C      1  0.5387330000000  0.4389600000000  0.5293370000000 1.0
C      1  0.5373310000000  0.5250200000000  0.4442960000000 1.0
C      1  0.4629610000000  0.4777370000000  0.4341700000000 1.0
C      1  0.4344580000000  0.5274960000000  0.4990150000000 1.0
C      1  0.4626690000000  0.4749800000000  0.5557040000000 1.0
C      1  0.5370390000000  0.5222630000000  0.5658300000000 1.0
C      1  0.5655420000000  0.4725040000000  0.5009850000000 1.0
C      1  0.5102130000000  0.5351520000000  0.5603620000000 1.0
C      1  0.5563290000000  0.4606030000000  0.5294180000000 1.0
C      1  0.5490000000000  0.5457770000000  0.4663800000000 1.0
C      1  0.4897870000000  0.4648480000000  0.4396380000000 1.0
C      1  0.4436710000000  0.5393970000000  0.4705820000000 1.0
C      1  0.4510000000000  0.4542230000000  0.5336200000000 1.0
C      1  0.5616880000000  0.5185500000000  0.4750180000000 1.0
C      1  0.5099640000000  0.4838270000000  0.4342670000000 1.0
C      1  0.4481770000000  0.5158700000000  0.4558360000000 1.0
C      1  0.4383120000000  0.4814500000000  0.5249820000000 1.0
C      1  0.4900360000000  0.5161730000000  0.5657330000000 1.0
C      1  0.5518230000000  0.4841300000000  0.5441640000000 1.0
C      1  0.5113070000000  0.4366080000000  0.4851330000000 1.0
C      1  0.4935930000000  0.5603220000000  0.4813320000000 1.0
C      1  0.4783770000000  0.4369860000000  0.4902710000000 1.0
C      1  0.4886930000000  0.5633920000000  0.5148670000000 1.0
C      1  0.5064070000000  0.4396780000000  0.5186680000000 1.0
C      1  0.5216230000000  0.5630140000000  0.5097290000000 1.0
C      1  0.5104180000000  0.5192590000000  0.5236810000000 1.0
C      1  0.5309130000000  0.4768910000000  0.5034340000000 1.0
C      1  0.5177390000000  0.5224940000000  0.4739860000000 1.0
C      1  0.4895820000000  0.4807410000000  0.4763190000000 1.0
C      1  0.4690870000000  0.5231090000000  0.4965660000000 1.0
C      1  0.4822610000000  0.4775060000000  0.5260140000000 1.0
C      1  0.4410520000000  0.4660370000000  0.4761990000000 1.0
C      1  0.4489350000000  0.5361470000000  0.5360330000000 1.0
C      1  0.5098150000000  0.4679230000000  0.5634760000000 1.0
C      1  0.5589480000000  0.5339630000000  0.5238010000000 1.0
C      1  0.5510650000000  0.4638530000000  0.4639670000000 1.0
C      1  0.4901850000000  0.5320770000000  0.4365240000000 1.0
END
