TITL C-1154824-75-430 -0.000427118520541724 125000 -329.376852852216 0 0 60 (C1) n - 1
REM
REM in /home/nfs/bkarasulu/CARBON/AIRSS/Generating-Clusters/AIREBO/Higher-Symm/Only-C60
REM
REM
REM
REM
REM
REM ./C.cell (28575a23ae977d3b5fae324c64b13b57)
REM
REM compiler GCC version 9.2.1 20190827 (Red Hat 9.2.1-1)
REM options -cpp -mtune=generic -march=x86-64 -g -O0 -fpre-include=/usr/include/finclude/math-vector-fortran.h
REM seed -844954759 -602676062 1917789884 -1988587011 1589788586 -939333524 1892136696 -1890349850 -1145171170 -776696514 -56994661 389119434 -771281349 356654964 -593743889 289359958 1616815408 -992121094 1386614224 1096917037 1528808517 -1466105011 -397875786 -93077858 -104364013 1699756034 -1684989065 -879435074 -538808359 -2146897447 390488068 -1931095818 -1303340303
REM
CELL 1.54180   50.00000   50.00000   50.00000   90.00000   90.00000   90.00000
LATT -1
SFAC C  
C      1  0.5268840000000  0.5397430000000  0.4857220000000 1.0
C      1  0.5245850000000  0.4567510000000  0.5157690000000 1.0
C      1  0.5285790000000  0.4591390000000  0.4862090000000 1.0
C      1  0.5222090000000  0.5412310000000  0.5151990000000 1.0
C      1  0.4477600000000  0.4878440000000  0.5086790000000 1.0
C      1  0.4423170000000  0.5147010000000  0.4799260000000 1.0
C      1  0.4414940000000  0.5198780000000  0.5127430000000 1.0
C      1  0.4420500000000  0.4819250000000  0.4782610000000 1.0
C      1  0.4855160000000  0.5123720000000  0.4221860000000 1.0
C      1  0.4836640000000  0.4807680000000  0.5677170000000 1.0
C      1  0.4855180000000  0.4818070000000  0.4182460000000 1.0
C      1  0.4816450000000  0.5130510000000  0.5715790000000 1.0
C      1  0.5169420000000  0.5644110000000  0.5283610000000 1.0
C      1  0.5183350000000  0.4331570000000  0.4727540000000 1.0
C      1  0.5163950000000  0.4337060000000  0.5275540000000 1.0
C      1  0.5174860000000  0.5659480000000  0.4719900000000 1.0
C      1  0.4689560000000  0.5173240000000  0.4506460000000 1.0
C      1  0.4663470000000  0.4892500000000  0.5436010000000 1.0
C      1  0.4727150000000  0.4860730000000  0.4494530000000 1.0
C      1  0.4606810000000  0.5206600000000  0.5474750000000 1.0
C      1  0.4744930000000  0.5252110000000  0.4832600000000 1.0
C      1  0.4814180000000  0.4814160000000  0.5141390000000 1.0
C      1  0.4753140000000  0.4746250000000  0.4813760000000 1.0
C      1  0.4755850000000  0.5204060000000  0.5169110000000 1.0
C      1  0.4484890000000  0.5461000000000  0.5310400000000 1.0
C      1  0.4431690000000  0.4520420000000  0.4740560000000 1.0
C      1  0.4504550000000  0.4624200000000  0.5300520000000 1.0
C      1  0.4408060000000  0.5462110000000  0.4789370000000 1.0
C      1  0.5665740000000  0.4736730000000  0.5129040000000 1.0
C      1  0.5563000000000  0.5293400000000  0.4868250000000 1.0
C      1  0.5647990000000  0.5262570000000  0.5132840000000 1.0
C      1  0.5576650000000  0.4702780000000  0.4866190000000 1.0
C      1  0.4942150000000  0.4612640000000  0.4441400000000 1.0
C      1  0.4956320000000  0.5373570000000  0.5573440000000 1.0
C      1  0.4926810000000  0.5380230000000  0.4443200000000 1.0
C      1  0.5001090000000  0.4599280000000  0.5591370000000 1.0
C      1  0.5261600000000  0.5260240000000  0.5517790000000 1.0
C      1  0.5243770000000  0.4716650000000  0.4475940000000 1.0
C      1  0.5295980000000  0.4707820000000  0.5528540000000 1.0
C      1  0.5228160000000  0.5270980000000  0.4479970000000 1.0
C      1  0.4922160000000  0.4378820000000  0.4636890000000 1.0
C      1  0.4911620000000  0.5628040000000  0.5410720000000 1.0
C      1  0.4908270000000  0.5627120000000  0.4630110000000 1.0
C      1  0.4908760000000  0.4374700000000  0.5407600000000 1.0
C      1  0.5509280000000  0.4855370000000  0.5331470000000 1.0
C      1  0.5476650000000  0.5133410000000  0.4641180000000 1.0
C      1  0.5496490000000  0.5131430000000  0.5331400000000 1.0
C      1  0.5482400000000  0.4860500000000  0.4641410000000 1.0
C      1  0.5394440000000  0.5126060000000  0.4249870000000 1.0
C      1  0.5396190000000  0.4870500000000  0.5781920000000 1.0
C      1  0.5403690000000  0.4873120000000  0.4249470000000 1.0
C      1  0.5364320000000  0.5122160000000  0.5782820000000 1.0
C      1  0.4704110000000  0.5589170000000  0.4881150000000 1.0
C      1  0.4691080000000  0.4418930000000  0.5215720000000 1.0
C      1  0.4710520000000  0.4414720000000  0.4876290000000 1.0
C      1  0.4694960000000  0.5628250000000  0.5212320000000 1.0
C      1  0.5062840000000  0.5154280000000  0.4753270000000 1.0
C      1  0.5113740000000  0.4832210000000  0.5269770000000 1.0
C      1  0.5075370000000  0.4832710000000  0.4747640000000 1.0
C      1  0.5065760000000  0.5149890000000  0.5262580000000 1.0
END
