TITL C-1154803-8277-10 -0.00157829430206323 125000 -325.536896863806 0 0 60 (C1) n - 1
REM
REM in /home/nfs/bkarasulu/CARBON/AIRSS/Generating-Clusters/AIREBO/Higher-Symm/Only-C60
REM
REM
REM
REM
REM
REM ./C.cell (28575a23ae977d3b5fae324c64b13b57)
REM
REM compiler GCC version 9.2.1 20190827 (Red Hat 9.2.1-1)
REM options -cpp -mtune=generic -march=x86-64 -g -O0 -fpre-include=/usr/include/finclude/math-vector-fortran.h
REM seed -1685606507 1945414596 2079666268 1219828867 -1110769016 1066463965 -275024205 -781748045 910524593 -510256258 1234207366 -1017663331 -767215271 166796822 215482564 1885897237 -337489231 -1902847201 -377688892 761309423 1170583237 556258060 -2136181009 -501038174 -1820335158 -852336631 250686339 1367223471 -207324115 20907061 410321647 595152488 1535731492
REM
CELL 1.54180   50.00000   50.00000   50.00000   90.00000   90.00000   90.00000
LATT -1
SFAC C  
C      1  0.5419140000000  0.5320440000000  0.4653840000000 1.0
C      1  0.4436750000000  0.4665080000000  0.4707020000000 1.0
C      1  0.4997440000000  0.4987070000000  0.4268610000000 1.0
C      1  0.5039550000000  0.5280690000000  0.4287110000000 1.0
C      1  0.5323270000000  0.5655600000000  0.5552690000000 1.0
C      1  0.4744490000000  0.4457510000000  0.5595820000000 1.0
C      1  0.4896640000000  0.5206270000000  0.5018280000000 1.0
C      1  0.5140520000000  0.4653440000000  0.5077460000000 1.0
C      1  0.5504330000000  0.5655090000000  0.5073300000000 1.0
C      1  0.4392030000000  0.4561380000000  0.5234680000000 1.0
C      1  0.4643860000000  0.4606380000000  0.5379370000000 1.0
C      1  0.5365360000000  0.5442650000000  0.5299570000000 1.0
C      1  0.5282240000000  0.4616610000000  0.4707730000000 1.0
C      1  0.4613060000000  0.5299660000000  0.4595700000000 1.0
C      1  0.4914930000000  0.5378440000000  0.4725590000000 1.0
C      1  0.5009730000000  0.4463560000000  0.4841690000000 1.0
C      1  0.4597920000000  0.4659030000000  0.4987380000000 1.0
C      1  0.5386780000000  0.5632680000000  0.4782010000000 1.0
C      1  0.4833720000000  0.4595090000000  0.5828670000000 1.0
C      1  0.5520880000000  0.5231450000000  0.5638490000000 1.0
C      1  0.4764430000000  0.4591570000000  0.4695790000000 1.0
C      1  0.5397010000000  0.5654340000000  0.4444100000000 1.0
C      1  0.5280550000000  0.5392450000000  0.4351660000000 1.0
C      1  0.4864140000000  0.4702890000000  0.4435730000000 1.0
C      1  0.5433330000000  0.4516930000000  0.4973580000000 1.0
C      1  0.4591860000000  0.5298290000000  0.4935430000000 1.0
C      1  0.5129290000000  0.5153860000000  0.4702690000000 1.0
C      1  0.4671850000000  0.4921450000000  0.4290590000000 1.0
C      1  0.5076490000000  0.5323810000000  0.5434490000000 1.0
C      1  0.5222220000000  0.4625590000000  0.5564410000000 1.0
C      1  0.5101080000000  0.4671090000000  0.5815310000000 1.0
C      1  0.5266550000000  0.5282930000000  0.5686410000000 1.0
C      1  0.4989580000000  0.4190780000000  0.4965010000000 1.0
C      1  0.5053390000000  0.5672110000000  0.4835990000000 1.0
C      1  0.5598940000000  0.5208120000000  0.5286220000000 1.0
C      1  0.3788750000000  0.4993950000000  0.4641870000000 1.0
C      1  0.4041490000000  0.4933490000000  0.4607850000000 1.0
C      1  0.5687540000000  0.5125510000000  0.5044240000000 1.0
C      1  0.4945820000000  0.3972230000000  0.4806610000000 1.0
C      1  0.4966670000000  0.5893230000000  0.4669580000000 1.0
C      1  0.4805390000000  0.5417830000000  0.4344980000000 1.0
C      1  0.5190000000000  0.4756040000000  0.4419040000000 1.0
C      1  0.4563990000000  0.5498190000000  0.5378210000000 1.0
C      1  0.5516260000000  0.4259340000000  0.5370400000000 1.0
C      1  0.5021450000000  0.4189900000000  0.5235230000000 1.0
C      1  0.4929490000000  0.5754160000000  0.5141850000000 1.0
C      1  0.5599080000000  0.5090780000000  0.4796080000000 1.0
C      1  0.4312210000000  0.4883540000000  0.4595100000000 1.0
C      1  0.4909870000000  0.4241070000000  0.5522820000000 1.0
C      1  0.5077700000000  0.5681410000000  0.5619360000000 1.0
C      1  0.4839100000000  0.4777130000000  0.5178580000000 1.0
C      1  0.5135080000000  0.5423020000000  0.5052560000000 1.0
C      1  0.5589430000000  0.4373740000000  0.5131930000000 1.0
C      1  0.4456800000000  0.5402190000000  0.5143570000000 1.0
C      1  0.5358630000000  0.4928010000000  0.4649360000000 1.0
C      1  0.4494280000000  0.5052800000000  0.4465020000000 1.0
C      1  0.4983640000000  0.5062410000000  0.5294010000000 1.0
C      1  0.5189820000000  0.4807780000000  0.5355670000000 1.0
C      1  0.5232170000000  0.4328790000000  0.5465050000000 1.0
C      1  0.4861970000000  0.5579110000000  0.5398610000000 1.0
END
