TITL C-1154802-8274-230 0.00121425968116142 125000 -327.14943637612 0 0 60 (C1) n - 1
REM
REM in /home/nfs/bkarasulu/CARBON/AIRSS/Generating-Clusters/AIREBO/Higher-Symm/Only-C60
REM
REM
REM
REM
REM
REM ./C.cell (28575a23ae977d3b5fae324c64b13b57)
REM
REM compiler GCC version 9.2.1 20190827 (Red Hat 9.2.1-1)
REM options -cpp -mtune=generic -march=x86-64 -g -O0 -fpre-include=/usr/include/finclude/math-vector-fortran.h
REM seed 70410208 1422226239 -1106231262 -1855331487 1686745046 2058836035 1991069231 -1202186413 1529340280 -1898393007 2067582911 -1342463144 -11385691 401212405 1635308613 84093334 1936063983 -1614491692 -2039303977 -745611918 -62995077 720550766 -816488790 2146675374 612457503 -1091707629 -1449871828 1527815276 -400060669 -145677669 494839073 -140505431 -1387414064
REM
CELL 1.54180   50.00000   50.00000   50.00000   90.00000   90.00000   90.00000
LATT -1
SFAC C  
C      1  0.5679320000000  0.5270770000000  0.5212620000000 1.0
C      1  0.5590710000000  0.4676890000000  0.4664420000000 1.0
C      1  0.4353890000000  0.5337470000000  0.4617470000000 1.0
C      1  0.4391400000000  0.4700740000000  0.5370670000000 1.0
C      1  0.4682720000000  0.5092190000000  0.5113870000000 1.0
C      1  0.4718820000000  0.4907320000000  0.4872660000000 1.0
C      1  0.4558000000000  0.5264670000000  0.4471770000000 1.0
C      1  0.4588390000000  0.4801310000000  0.5546110000000 1.0
C      1  0.4939530000000  0.5053620000000  0.5296010000000 1.0
C      1  0.4996780000000  0.4953630000000  0.4739710000000 1.0
C      1  0.4931170000000  0.5595600000000  0.5366820000000 1.0
C      1  0.5014410000000  0.4332610000000  0.4719220000000 1.0
C      1  0.5280190000000  0.4892590000000  0.4090640000000 1.0
C      1  0.5319020000000  0.5034780000000  0.5903580000000 1.0
C      1  0.4760910000000  0.4386820000000  0.4911810000000 1.0
C      1  0.4710110000000  0.5590920000000  0.5107010000000 1.0
C      1  0.5115770000000  0.4447620000000  0.4496470000000 1.0
C      1  0.5195970000000  0.5535120000000  0.5571400000000 1.0
C      1  0.5184290000000  0.5134340000000  0.4012310000000 1.0
C      1  0.5127360000000  0.4849670000000  0.5959750000000 1.0
C      1  0.5314100000000  0.5226720000000  0.5657220000000 1.0
C      1  0.5224850000000  0.4740160000000  0.4357520000000 1.0
C      1  0.4504860000000  0.4635780000000  0.4560360000000 1.0
C      1  0.4397540000000  0.5451140000000  0.5404650000000 1.0
C      1  0.5243160000000  0.4826900000000  0.4900110000000 1.0
C      1  0.5193100000000  0.5184700000000  0.5209790000000 1.0
C      1  0.5591570000000  0.5148090000000  0.4736610000000 1.0
C      1  0.5495620000000  0.4880550000000  0.5121850000000 1.0
C      1  0.4697940000000  0.4744800000000  0.4399520000000 1.0
C      1  0.4697060000000  0.5383060000000  0.5504040000000 1.0
C      1  0.5239950000000  0.4640580000000  0.5364120000000 1.0
C      1  0.5300820000000  0.5418010000000  0.4686120000000 1.0
C      1  0.4522880000000  0.5350650000000  0.5111240000000 1.0
C      1  0.4580210000000  0.4623610000000  0.4869830000000 1.0
C      1  0.5566490000000  0.5303890000000  0.4960440000000 1.0
C      1  0.5585820000000  0.4626890000000  0.4938400000000 1.0
C      1  0.5288880000000  0.4544000000000  0.5083070000000 1.0
C      1  0.5262450000000  0.5415280000000  0.5001870000000 1.0
C      1  0.5155020000000  0.5189620000000  0.4554960000000 1.0
C      1  0.4981890000000  0.4750840000000  0.5404480000000 1.0
C      1  0.4964160000000  0.4643750000000  0.5891420000000 1.0
C      1  0.4989450000000  0.5310090000000  0.4088000000000 1.0
C      1  0.4862640000000  0.5600260000000  0.4572670000000 1.0
C      1  0.4796550000000  0.4325230000000  0.5466340000000 1.0
C      1  0.4859490000000  0.5659020000000  0.4830670000000 1.0
C      1  0.4860830000000  0.4299150000000  0.5199290000000 1.0
C      1  0.5436680000000  0.4770640000000  0.5501150000000 1.0
C      1  0.5451770000000  0.5591110000000  0.4562550000000 1.0
C      1  0.4370280000000  0.4641380000000  0.5104600000000 1.0
C      1  0.4312510000000  0.5355010000000  0.4884680000000 1.0
C      1  0.4917240000000  0.4601820000000  0.4314340000000 1.0
C      1  0.4984330000000  0.5305490000000  0.5631780000000 1.0
C      1  0.5461780000000  0.5090110000000  0.5387540000000 1.0
C      1  0.5370320000000  0.4928040000000  0.4601420000000 1.0
C      1  0.5119490000000  0.4315730000000  0.5014180000000 1.0
C      1  0.5075550000000  0.5633270000000  0.5066300000000 1.0
C      1  0.4811630000000  0.4600330000000  0.5624660000000 1.0
C      1  0.4891710000000  0.5316800000000  0.4387070000000 1.0
C      1  0.4697210000000  0.5057840000000  0.5511290000000 1.0
C      1  0.4783400000000  0.5010980000000  0.4489550000000 1.0
END
