TITL C-1154803-8277-374 -0.000110194554335787 125000 -286.317789946277 0 0 60 (C1) n - 1
REM
REM in /home/nfs/bkarasulu/CARBON/AIRSS/Generating-Clusters/AIREBO/Higher-Symm/Only-C60
REM
REM
REM
REM
REM
REM ./C.cell (28575a23ae977d3b5fae324c64b13b57)
REM
REM compiler GCC version 9.2.1 20190827 (Red Hat 9.2.1-1)
REM options -cpp -mtune=generic -march=x86-64 -g -O0 -fpre-include=/usr/include/finclude/math-vector-fortran.h
REM seed 1307917102 2117354243 -2041857930 1710896164 2025742041 377731523 57325571 1692571643 402943248 -1559540088 -52218576 1474079950 -287267787 -2054733965 1069484177 274197332 1486937812 -435700276 -1907162243 -1175093770 255491639 1040956823 -2145084049 -613122199 1082775370 5901180 1644545984 -1088214284 -1630536705 810255949 -1046691625 1076238939 -268779660
REM
CELL 1.54180   50.00000   50.00000   50.00000   90.00000   90.00000   90.00000
LATT -1
SFAC C  
C      1  0.5061190000000  0.4618800000000  0.5355310000000 1.0
C      1  0.5250060000000  0.4603520000000  0.4671710000000 1.0
C      1  0.5369930000000  0.4930990000000  0.5313810000000 1.0
C      1  0.5395740000000  0.5089040000000  0.4650070000000 1.0
C      1  0.5152700000000  0.5369490000000  0.5349790000000 1.0
C      1  0.4954540000000  0.5375440000000  0.4692490000000 1.0
C      1  0.4753590000000  0.5389370000000  0.5345920000000 1.0
C      1  0.4610830000000  0.5067400000000  0.4643500000000 1.0
C      1  0.4600560000000  0.4921380000000  0.5325850000000 1.0
C      1  0.4852670000000  0.4615390000000  0.4635150000000 1.0
C      1  0.5230610000000  0.5571410000000  0.4650800000000 1.0
C      1  0.4915580000000  0.5685470000000  0.5304070000000 1.0
C      1  0.4523710000000  0.5526730000000  0.4705480000000 1.0
C      1  0.4329280000000  0.5125170000000  0.5350350000000 1.0
C      1  0.4396060000000  0.4706860000000  0.4701360000000 1.0
C      1  0.4764480000000  0.4451240000000  0.5339740000000 1.0
C      1  0.5089610000000  0.4308450000000  0.4725130000000 1.0
C      1  0.5466260000000  0.4470820000000  0.5303190000000 1.0
C      1  0.5664850000000  0.4881360000000  0.4663640000000 1.0
C      1  0.5599100000000  0.5287810000000  0.5300710000000 1.0
C      1  0.5241960000000  0.4576350000000  0.5070410000000 1.0
C      1  0.5304440000000  0.4846780000000  0.4902990000000 1.0
C      1  0.5470480000000  0.5109150000000  0.5041590000000 1.0
C      1  0.5204210000000  0.5247880000000  0.4881970000000 1.0
C      1  0.5063020000000  0.5509460000000  0.5053050000000 1.0
C      1  0.4744930000000  0.5446080000000  0.4950760000000 1.0
C      1  0.4683850000000  0.5171520000000  0.5094280000000 1.0
C      1  0.4515070000000  0.4922440000000  0.4935840000000 1.0
C      1  0.4773540000000  0.4755820000000  0.5080960000000 1.0
C      1  0.4931340000000  0.4510000000000  0.4948830000000 1.0
C      1  0.5410890000000  0.4366910000000  0.4855480000000 1.0
C      1  0.5657040000000  0.4662580000000  0.5381720000000 1.0
C      1  0.5682010000000  0.5206720000000  0.4790920000000 1.0
C      1  0.5509890000000  0.5548390000000  0.5341470000000 1.0
C      1  0.5025660000000  0.5747410000000  0.4812890000000 1.0
C      1  0.4588030000000  0.5641950000000  0.5189570000000 1.0
C      1  0.4316770000000  0.5334730000000  0.4666100000000 1.0
C      1  0.4308440000000  0.4818840000000  0.5185240000000 1.0
C      1  0.4495950000000  0.4445100000000  0.4691420000000 1.0
C      1  0.4969010000000  0.4270240000000  0.5187100000000 1.0
C      1  0.4414590000000  0.5399680000000  0.5371200000000 1.0
C      1  0.4285500000000  0.5020060000000  0.4624330000000 1.0
C      1  0.4519650000000  0.4591420000000  0.5341370000000 1.0
C      1  0.4752930000000  0.4295450000000  0.4664290000000 1.0
C      1  0.5241550000000  0.4242060000000  0.5287870000000 1.0
C      1  0.5590110000000  0.4603250000000  0.4669750000000 1.0
C      1  0.5704100000000  0.4965860000000  0.5331300000000 1.0
C      1  0.5466020000000  0.5421060000000  0.4627610000000 1.0
C      1  0.5253620000000  0.5694180000000  0.5350540000000 1.0
C      1  0.4749190000000  0.5764430000000  0.4710820000000 1.0
C      1  0.5249230000000  0.5001890000000  0.4383540000000 1.0
C      1  0.5229390000000  0.5120920000000  0.5538520000000 1.0
C      1  0.5074580000000  0.5183950000000  0.4261640000000 1.0
C      1  0.4918280000000  0.5223620000000  0.5555810000000 1.0
C      1  0.4838520000000  0.5220260000000  0.4468330000000 1.0
C      1  0.4759810000000  0.4968290000000  0.5587940000000 1.0
C      1  0.4802530000000  0.4882070000000  0.4470410000000 1.0
C      1  0.4928010000000  0.4733360000000  0.5641980000000 1.0
C      1  0.5102030000000  0.4741220000000  0.4435740000000 1.0
C      1  0.5242460000000  0.4792490000000  0.5586390000000 1.0
END
