TITL C-1154823-9327-303 -0.0017319503968864 125000 -321.409500867863 0 0 60 (Ci) n - 1
REM
REM in /home/nfs/bkarasulu/CARBON/AIRSS/Generating-Clusters/AIREBO/Higher-Symm/Only-C60
REM
REM
REM
REM
REM
REM ./C.cell (28575a23ae977d3b5fae324c64b13b57)
REM
REM compiler GCC version 9.2.1 20190827 (Red Hat 9.2.1-1)
REM options -cpp -mtune=generic -march=x86-64 -g -O0 -fpre-include=/usr/include/finclude/math-vector-fortran.h
REM seed -1584971172 1552938651 -359425064 -1444269742 -693922378 -156836816 -2097574988 -1306090636 -287003942 -1543023160 717177731 -1670891881 1716753284 -1762951619 -656912344 759845287 -1320360216 2029985933 848388688 1735765484 -616371933 777963970 1739809166 -1417624648 1275243659 -1609808716 -1736417185 111338464 -1208038148 -1634967349 -250080974 30024466 -1869150577
REM
CELL 1.54180   50.00000   50.00000   50.00000   90.00000   90.00000   90.00000
LATT -1
SFAC C  
C      1  0.5311920000000  0.5092220000000  0.5146540000000 1.0
C      1  0.5115210000000  0.5493210000000  0.4877910000000 1.0
C      1  0.4714590000000  0.5361230000000  0.5168970000000 1.0
C      1  0.4688080000000  0.4907780000000  0.4853460000000 1.0
C      1  0.4884790000000  0.4506790000000  0.5122090000000 1.0
C      1  0.5285410000000  0.4638770000000  0.4831030000000 1.0
C      1  0.4685150000000  0.5237100000000  0.4858250000000 1.0
C      1  0.4737640000000  0.4786010000000  0.5152120000000 1.0
C      1  0.5004040000000  0.4478220000000  0.4804910000000 1.0
C      1  0.5314850000000  0.4762900000000  0.5141750000000 1.0
C      1  0.5262360000000  0.5213990000000  0.4847880000000 1.0
C      1  0.4995960000000  0.5521780000000  0.5195090000000 1.0
C      1  0.5377170000000  0.5692920000000  0.4852070000000 1.0
C      1  0.4637920000000  0.5690570000000  0.5153170000000 1.0
C      1  0.4362470000000  0.5001680000000  0.4832740000000 1.0
C      1  0.4622830000000  0.4307080000000  0.5147930000000 1.0
C      1  0.5362080000000  0.4309430000000  0.4846830000000 1.0
C      1  0.5637530000000  0.4998320000000  0.5167260000000 1.0
C      1  0.5618100000000  0.5511700000000  0.4956910000000 1.0
C      1  0.4879130000000  0.5872450000000  0.5046200000000 1.0
C      1  0.4287260000000  0.5289700000000  0.4932650000000 1.0
C      1  0.4381900000000  0.4488300000000  0.5043090000000 1.0
C      1  0.5120870000000  0.4127550000000  0.4953800000000 1.0
C      1  0.5712740000000  0.4710300000000  0.5067350000000 1.0
C      1  0.5496670000000  0.4476120000000  0.5124040000000 1.0
C      1  0.5602010000000  0.5203750000000  0.4898480000000 1.0
C      1  0.5197010000000  0.5787740000000  0.5131170000000 1.0
C      1  0.4503330000000  0.5523880000000  0.4875960000000 1.0
C      1  0.4397990000000  0.4796250000000  0.5101520000000 1.0
C      1  0.4802990000000  0.4212260000000  0.4868830000000 1.0
C      1  0.5457270000000  0.5582200000000  0.5214770000000 1.0
C      1  0.4718030000000  0.5772250000000  0.4785880000000 1.0
C      1  0.4308040000000  0.5109140000000  0.5200260000000 1.0
C      1  0.4542730000000  0.4417800000000  0.4785230000000 1.0
C      1  0.5281970000000  0.4227750000000  0.5214120000000 1.0
C      1  0.5691960000000  0.4890860000000  0.4799740000000 1.0
C      1  0.4718980000000  0.5363700000000  0.5590080000000 1.0
C      1  0.4678610000000  0.4931820000000  0.4451490000000 1.0
C      1  0.4910520000000  0.4579470000000  0.5583340000000 1.0
C      1  0.5281020000000  0.4636300000000  0.4409920000000 1.0
C      1  0.5321390000000  0.5068180000000  0.5548510000000 1.0
C      1  0.5089480000000  0.5420530000000  0.4416660000000 1.0
C      1  0.4686610000000  0.5044970000000  0.5579110000000 1.0
C      1  0.4809390000000  0.4641460000000  0.4390370000000 1.0
C      1  0.5238980000000  0.4556210000000  0.5631950000000 1.0
C      1  0.5313390000000  0.4955030000000  0.4420890000000 1.0
C      1  0.5190610000000  0.5358540000000  0.5609630000000 1.0
C      1  0.4761020000000  0.5443790000000  0.4368050000000 1.0
C      1  0.4849480000000  0.4850290000000  0.5430980000000 1.0
C      1  0.5042270000000  0.4536290000000  0.4495750000000 1.0
C      1  0.5187810000000  0.4824920000000  0.5435000000000 1.0
C      1  0.5150520000000  0.5149710000000  0.4569020000000 1.0
C      1  0.4957730000000  0.5463710000000  0.5504250000000 1.0
C      1  0.4812190000000  0.5175080000000  0.4565000000000 1.0
C      1  0.4612300000000  0.4663470000000  0.4642500000000 1.0
C      1  0.5093960000000  0.4421540000000  0.5353360000000 1.0
C      1  0.5485720000000  0.4772840000000  0.4629350000000 1.0
C      1  0.5387700000000  0.5336530000000  0.5357500000000 1.0
C      1  0.4906040000000  0.5578460000000  0.4646640000000 1.0
C      1  0.4514280000000  0.5227160000000  0.5370650000000 1.0
END
