TITL C-1154808-8168-90 0.000583414220031853 125000 -318.368893404445 0 0 60 (C1) n - 1
REM
REM in /home/nfs/bkarasulu/CARBON/AIRSS/Generating-Clusters/AIREBO/Higher-Symm/Only-C60
REM
REM
REM
REM
REM
REM ./C.cell (28575a23ae977d3b5fae324c64b13b57)
REM
REM compiler GCC version 9.2.1 20190827 (Red Hat 9.2.1-1)
REM options -cpp -mtune=generic -march=x86-64 -g -O0 -fpre-include=/usr/include/finclude/math-vector-fortran.h
REM seed 1374908240 -188267817 169551088 -1872070012 1286043120 1602565063 -1282446148 1446854598 99831551 -339063684 1869321325 -1698154242 1258659580 -2129439411 319007308 -1940562271 1030721573 -812432712 690069411 1223431578 -910942853 -2130491667 18161216 -1195166912 -912078983 1557615895 -93874154 -2010623807 -918662385 -792322135 -1975054165 -716082669 -19636345
REM
CELL 1.54180   50.00000   50.00000   50.00000   90.00000   90.00000   90.00000
LATT -1
SFAC C  
C      1  0.4836750000000  0.4736750000000  0.4312240000000 1.0
C      1  0.5085650000000  0.5190260000000  0.5709300000000 1.0
C      1  0.4219980000000  0.4994970000000  0.5203420000000 1.0
C      1  0.5853860000000  0.5026120000000  0.4783690000000 1.0
C      1  0.4788290000000  0.5553600000000  0.4927490000000 1.0
C      1  0.5155860000000  0.4376090000000  0.5061090000000 1.0
C      1  0.4900810000000  0.5404410000000  0.5717600000000 1.0
C      1  0.5093990000000  0.4689760000000  0.4386710000000 1.0
C      1  0.4167600000000  0.5006960000000  0.4900120000000 1.0
C      1  0.5803820000000  0.5011170000000  0.5079690000000 1.0
C      1  0.4645030000000  0.4828750000000  0.5512280000000 1.0
C      1  0.5446720000000  0.5150670000000  0.4514480000000 1.0
C      1  0.4967720000000  0.5406030000000  0.5231070000000 1.0
C      1  0.5023320000000  0.4608240000000  0.4767420000000 1.0
C      1  0.4222170000000  0.5251570000000  0.4768960000000 1.0
C      1  0.5763470000000  0.4768050000000  0.5225620000000 1.0
C      1  0.4957720000000  0.4952170000000  0.5532890000000 1.0
C      1  0.5108620000000  0.5187030000000  0.4513360000000 1.0
C      1  0.4791690000000  0.5132020000000  0.4624980000000 1.0
C      1  0.5235140000000  0.4811920000000  0.5409750000000 1.0
C      1  0.5567290000000  0.4661340000000  0.4704430000000 1.0
C      1  0.4581280000000  0.5310360000000  0.5240990000000 1.0
C      1  0.4364980000000  0.4781450000000  0.4889370000000 1.0
C      1  0.5640540000000  0.5241720000000  0.5160890000000 1.0
C      1  0.5299210000000  0.4512150000000  0.4593450000000 1.0
C      1  0.4776610000000  0.5450560000000  0.5482070000000 1.0
C      1  0.4549960000000  0.4692060000000  0.4702210000000 1.0
C      1  0.5428730000000  0.5319580000000  0.5318170000000 1.0
C      1  0.4462400000000  0.4756860000000  0.5215260000000 1.0
C      1  0.5579260000000  0.5222400000000  0.4825000000000 1.0
C      1  0.5403220000000  0.4454960000000  0.4919130000000 1.0
C      1  0.4327210000000  0.5628490000000  0.5066120000000 1.0
C      1  0.5428880000000  0.4851320000000  0.4939420000000 1.0
C      1  0.4666240000000  0.5174760000000  0.4939780000000 1.0
C      1  0.5311750000000  0.5130630000000  0.5500100000000 1.0
C      1  0.4672270000000  0.4866840000000  0.4509560000000 1.0
C      1  0.4496710000000  0.4429370000000  0.5233180000000 1.0
C      1  0.5480100000000  0.5530340000000  0.4740280000000 1.0
C      1  0.4812170000000  0.5450260000000  0.4542950000000 1.0
C      1  0.5164710000000  0.4498260000000  0.5440960000000 1.0
C      1  0.5260100000000  0.5116140000000  0.4875240000000 1.0
C      1  0.4746370000000  0.4880550000000  0.5090590000000 1.0
C      1  0.4694300000000  0.4342860000000  0.5033230000000 1.0
C      1  0.5283220000000  0.5633990000000  0.4945690000000 1.0
C      1  0.4297070000000  0.5229680000000  0.5318670000000 1.0
C      1  0.5826570000000  0.4798070000000  0.4637150000000 1.0
C      1  0.5428960000000  0.4362580000000  0.5400490000000 1.0
C      1  0.4562440000000  0.5572970000000  0.4582070000000 1.0
C      1  0.5036350000000  0.5321310000000  0.4913280000000 1.0
C      1  0.4949600000000  0.4644900000000  0.5089630000000 1.0
C      1  0.4631990000000  0.4532800000000  0.5499260000000 1.0
C      1  0.5314190000000  0.5456130000000  0.4452920000000 1.0
C      1  0.5170920000000  0.4886220000000  0.4641120000000 1.0
C      1  0.4839070000000  0.5104700000000  0.5291600000000 1.0
C      1  0.5088720000000  0.5553460000000  0.4670430000000 1.0
C      1  0.4880900000000  0.4431420000000  0.5339350000000 1.0
C      1  0.5453350000000  0.4639000000000  0.5203840000000 1.0
C      1  0.4468740000000  0.5445910000000  0.4883200000000 1.0
C      1  0.5255220000000  0.5503350000000  0.5192520000000 1.0
C      1  0.4730160000000  0.4493710000000  0.4794210000000 1.0
END
