TITL C-1154810-7815-429 2.59711702711113 125000 -321.555378242124 0 0 60 (Ci) n - 1
REM
REM in /home/nfs/bkarasulu/CARBON/AIRSS/Generating-Clusters/AIREBO/Higher-Symm/Only-C60
REM
REM
REM
REM
REM
REM ./C.cell (28575a23ae977d3b5fae324c64b13b57)
REM
REM compiler GCC version 9.2.1 20190827 (Red Hat 9.2.1-1)
REM options -cpp -mtune=generic -march=x86-64 -g -O0 -fpre-include=/usr/include/finclude/math-vector-fortran.h
REM seed 1799591626 686416670 -2065847075 -1491638293 1927555024 -848796495 -234945641 -1206182970 2082422935 1254944894 1122600311 1288786664 -1431780107 1936871677 -1762331232 -447958007 503381651 -71121395 1014110527 -1366152723 1202853098 1922507103 393625805 -1477297944 -1974945376 -584745674 -7610557 1835874646 -1304522238 1191565013 936492839 -1425388956 -87079385
REM
CELL 1.54180   50.00000   50.00000   50.00000   90.00000   90.00000   90.00000
LATT -1
SFAC C  
C      1  0.4921470000000  0.4925740000000  0.4589330000000 1.0
C      1  0.5078530000000  0.5074260000000  0.5410670000000 1.0
C      1  0.5319680000000  0.5236860000000  0.4496560000000 1.0
C      1  0.4680320000000  0.4763150000000  0.5503440000000 1.0
C      1  0.4897930000000  0.5257710000000  0.5717640000000 1.0
C      1  0.5102070000000  0.4742290000000  0.4282360000000 1.0
C      1  0.4819700000000  0.4981530000000  0.5585810000000 1.0
C      1  0.5180300000000  0.5018470000000  0.4414190000000 1.0
C      1  0.5596690000000  0.5357130000000  0.5669690000000 1.0
C      1  0.4403310000000  0.4642870000000  0.4330300000000 1.0
C      1  0.4614440000000  0.4547870000000  0.4498810000000 1.0
C      1  0.5385560000000  0.5452130000000  0.5501190000000 1.0
C      1  0.5704290000000  0.5097290000000  0.5610400000000 1.0
C      1  0.4295710000000  0.4902710000000  0.4389600000000 1.0
C      1  0.5052950000000  0.5648740000000  0.4539380000000 1.0
C      1  0.4947050000000  0.4351260000000  0.5460620000000 1.0
C      1  0.4547940000000  0.4567630000000  0.4777750000000 1.0
C      1  0.5452060000000  0.5432370000000  0.5222240000000 1.0
C      1  0.5415480000000  0.4397730000000  0.4938890000000 1.0
C      1  0.4584520000000  0.5602270000000  0.5061110000000 1.0
C      1  0.4044930000000  0.5187300000000  0.5394700000000 1.0
C      1  0.5955070000000  0.4812700000000  0.4605300000000 1.0
C      1  0.4476090000000  0.5098980000000  0.5091560000000 1.0
C      1  0.5523910000000  0.4901020000000  0.4908440000000 1.0
C      1  0.5814530000000  0.4843310000000  0.4826320000000 1.0
C      1  0.4185460000000  0.5156690000000  0.5173680000000 1.0
C      1  0.4453310000000  0.4849910000000  0.4869110000000 1.0
C      1  0.5546690000000  0.5150090000000  0.5130890000000 1.0
C      1  0.5559770000000  0.5305460000000  0.4394670000000 1.0
C      1  0.4440230000000  0.4694540000000  0.5605330000000 1.0
C      1  0.5560030000000  0.4873130000000  0.5719420000000 1.0
C      1  0.4439970000000  0.5126870000000  0.4280580000000 1.0
C      1  0.4880160000000  0.4561940000000  0.4429100000000 1.0
C      1  0.5119840000000  0.5438060000000  0.5570900000000 1.0
C      1  0.4214630000000  0.4933120000000  0.4660980000000 1.0
C      1  0.5785370000000  0.5066880000000  0.5339010000000 1.0
C      1  0.5150760000000  0.4165200000000  0.5348540000000 1.0
C      1  0.4849240000000  0.5834800000000  0.4651460000000 1.0
C      1  0.5853090000000  0.4841110000000  0.5126900000000 1.0
C      1  0.4146910000000  0.5158890000000  0.4873100000000 1.0
C      1  0.4793240000000  0.5441310000000  0.4611160000000 1.0
C      1  0.5206760000000  0.4558690000000  0.5388840000000 1.0
C      1  0.4816260000000  0.4589540000000  0.5328160000000 1.0
C      1  0.5183740000000  0.5410460000000  0.4671850000000 1.0
C      1  0.4944130000000  0.5313310000000  0.4893780000000 1.0
C      1  0.5055870000000  0.4686690000000  0.5106220000000 1.0
C      1  0.5367130000000  0.4762760000000  0.5567530000000 1.0
C      1  0.4632870000000  0.5237250000000  0.4432470000000 1.0
C      1  0.5348140000000  0.4304510000000  0.5180160000000 1.0
C      1  0.4651860000000  0.5695490000000  0.4819840000000 1.0
C      1  0.5617330000000  0.4713440000000  0.5259600000000 1.0
C      1  0.4382670000000  0.5286560000000  0.4740400000000 1.0
C      1  0.5292210000000  0.4679900000000  0.4861730000000 1.0
C      1  0.4707790000000  0.5320100000000  0.5138270000000 1.0
C      1  0.4861620000000  0.5322480000000  0.5382250000000 1.0
C      1  0.5138380000000  0.4677520000000  0.4617750000000 1.0
C      1  0.5115400000000  0.5080050000000  0.5072670000000 1.0
C      1  0.4884600000000  0.4919950000000  0.4927330000000 1.0
C      1  0.5342080000000  0.4913170000000  0.5263600000000 1.0
C      1  0.4657920000000  0.5086830000000  0.4736400000000 1.0
END
