TITL C-1154808-8168-93 0.00153089906181113 125000 -330.734664452514 0 0 60 (C1) n - 1
REM
REM in /home/nfs/bkarasulu/CARBON/AIRSS/Generating-Clusters/AIREBO/Higher-Symm/Only-C60
REM
REM
REM
REM
REM
REM ./C.cell (28575a23ae977d3b5fae324c64b13b57)
REM
REM compiler GCC version 9.2.1 20190827 (Red Hat 9.2.1-1)
REM options -cpp -mtune=generic -march=x86-64 -g -O0 -fpre-include=/usr/include/finclude/math-vector-fortran.h
REM seed 277615319 -798287519 -1603509544 -1006193617 1653497697 39404992 936287225 1199943497 1498438816 33129596 -541557564 -1616301563 935904206 -218710784 -859789885 -1234759508 -866231276 1383806669 -188741172 -1369620028 -56582036 -1221043215 -260134230 1732150332 -1496756518 -305421191 1352296910 -1148861564 -1385710886 -380692047 450260099 -200246541 1346426869
REM
CELL 1.54180   50.00000   50.00000   50.00000   90.00000   90.00000   90.00000
LATT -1
SFAC C  
C      1  0.4700300000000  0.5180640000000  0.4834530000000 1.0
C      1  0.5146510000000  0.5349060000000  0.4849560000000 1.0
C      1  0.5215640000000  0.4829010000000  0.4821320000000 1.0
C      1  0.4789090000000  0.4759000000000  0.4782990000000 1.0
C      1  0.4750430000000  0.4840970000000  0.5039390000000 1.0
C      1  0.5143900000000  0.4839170000000  0.5098180000000 1.0
C      1  0.5349750000000  0.5256010000000  0.5105880000000 1.0
C      1  0.4819270000000  0.5342740000000  0.5093020000000 1.0
C      1  0.5241010000000  0.5102700000000  0.4672630000000 1.0
C      1  0.5045070000000  0.4572920000000  0.4692040000000 1.0
C      1  0.4651520000000  0.4826260000000  0.4492450000000 1.0
C      1  0.4877830000000  0.5419210000000  0.4705210000000 1.0
C      1  0.5392270000000  0.4951230000000  0.5250860000000 1.0
C      1  0.5096580000000  0.5415610000000  0.5239430000000 1.0
C      1  0.4617430000000  0.5098870000000  0.5217180000000 1.0
C      1  0.4922260000000  0.4660660000000  0.5240800000000 1.0
C      1  0.4690900000000  0.4558200000000  0.5697950000000 1.0
C      1  0.4623870000000  0.5354740000000  0.5470380000000 1.0
C      1  0.5255260000000  0.5305360000000  0.5490290000000 1.0
C      1  0.5356500000000  0.4802120000000  0.5525740000000 1.0
C      1  0.4545980000000  0.5416880000000  0.4415380000000 1.0
C      1  0.4580850000000  0.4520560000000  0.4538730000000 1.0
C      1  0.5282400000000  0.4645450000000  0.4473620000000 1.0
C      1  0.5521390000000  0.5284360000000  0.4744650000000 1.0
C      1  0.5103270000000  0.5722220000000  0.5191080000000 1.0
C      1  0.5692210000000  0.4833420000000  0.5140560000000 1.0
C      1  0.4945160000000  0.4373320000000  0.5174870000000 1.0
C      1  0.4319580000000  0.5143600000000  0.5109630000000 1.0
C      1  0.5043440000000  0.4300590000000  0.4811630000000 1.0
C      1  0.5717210000000  0.5125220000000  0.4881450000000 1.0
C      1  0.4912840000000  0.5729480000000  0.4776990000000 1.0
C      1  0.4509340000000  0.5023790000000  0.4679930000000 1.0
C      1  0.5175780000000  0.5764980000000  0.4908100000000 1.0
C      1  0.5610290000000  0.4822390000000  0.4835370000000 1.0
C      1  0.4751990000000  0.4203200000000  0.4957960000000 1.0
C      1  0.4301080000000  0.5192670000000  0.4832050000000 1.0
C      1  0.5222470000000  0.4252040000000  0.5074090000000 1.0
C      1  0.5732100000000  0.5157290000000  0.5220100000000 1.0
C      1  0.4799940000000  0.5773720000000  0.5282480000000 1.0
C      1  0.4107370000000  0.5094260000000  0.5275480000000 1.0
C      1  0.5113800000000  0.4872570000000  0.5642070000000 1.0
C      1  0.4856780000000  0.4738850000000  0.5524380000000 1.0
C      1  0.4785940000000  0.5058480000000  0.5509920000000 1.0
C      1  0.5078230000000  0.5162320000000  0.5650010000000 1.0
C      1  0.5132770000000  0.5128930000000  0.4389590000000 1.0
C      1  0.4831330000000  0.5273670000000  0.4418020000000 1.0
C      1  0.4849470000000  0.4955840000000  0.4312980000000 1.0
C      1  0.5161410000000  0.4818650000000  0.4278320000000 1.0
C      1  0.5531240000000  0.5291710000000  0.5459690000000 1.0
C      1  0.5538810000000  0.4618560000000  0.5612430000000 1.0
C      1  0.4531010000000  0.4409370000000  0.5829890000000 1.0
C      1  0.4660460000000  0.5620570000000  0.5480520000000 1.0
C      1  0.5548350000000  0.4668330000000  0.4602130000000 1.0
C      1  0.5393240000000  0.5576100000000  0.4792940000000 1.0
C      1  0.4340140000000  0.5375480000000  0.4594050000000 1.0
C      1  0.4669290000000  0.4342220000000  0.4681420000000 1.0
C      1  0.4754180000000  0.5641220000000  0.5014000000000 1.0
C      1  0.5606880000000  0.5442660000000  0.5100870000000 1.0
C      1  0.5456800000000  0.4166410000000  0.5156070000000 1.0
C      1  0.4599800000000  0.3994140000000  0.5048390000000 1.0
END
