TITL C-1154827-9204-347 -0.00320719032329764 125000 -329.407062949941 0 0 60 (C1) n - 1
REM
REM in /home/nfs/bkarasulu/CARBON/AIRSS/Generating-Clusters/AIREBO/Higher-Symm/Only-C60
REM
REM
REM
REM
REM
REM ./C.cell (28575a23ae977d3b5fae324c64b13b57)
REM
REM compiler GCC version 9.2.1 20190827 (Red Hat 9.2.1-1)
REM options -cpp -mtune=generic -march=x86-64 -g -O0 -fpre-include=/usr/include/finclude/math-vector-fortran.h
REM seed 110412195 -612641735 -131829195 -876481864 -1900014878 582663092 790070292 203857927 1599487182 -1850017208 -543795637 -360865160 -337722175 -1489884248 -1607389923 -322348836 -1611230541 1508447717 332272086 -1696212033 -534290673 -883382195 66550950 737240025 -1761122269 1980309336 -926378658 -1873692241 1371800138 -1615728653 -1314779065 1109259127 2017593586
REM
CELL 1.54180   50.00000   50.00000   50.00000   90.00000   90.00000   90.00000
LATT -1
SFAC C  
C      1  0.5104540000000  0.4843560000000  0.4697520000000 1.0
C      1  0.4580670000000  0.4757130000000  0.5440210000000 1.0
C      1  0.5052060000000  0.5221560000000  0.4581280000000 1.0
C      1  0.5237240000000  0.4347270000000  0.5246950000000 1.0
C      1  0.4902030000000  0.4359220000000  0.5266170000000 1.0
C      1  0.5464230000000  0.4882500000000  0.5362960000000 1.0
C      1  0.5128010000000  0.4323010000000  0.4793880000000 1.0
C      1  0.5332860000000  0.4367000000000  0.4983280000000 1.0
C      1  0.5402930000000  0.5478300000000  0.4741570000000 1.0
C      1  0.5013380000000  0.4749000000000  0.5713250000000 1.0
C      1  0.4554270000000  0.5462590000000  0.5492040000000 1.0
C      1  0.5633050000000  0.4780800000000  0.5176190000000 1.0
C      1  0.5138020000000  0.4478380000000  0.4541400000000 1.0
C      1  0.5022290000000  0.5288130000000  0.5661830000000 1.0
C      1  0.4586400000000  0.5036570000000  0.4536580000000 1.0
C      1  0.4353980000000  0.5059760000000  0.5307220000000 1.0
C      1  0.4920150000000  0.5582490000000  0.5203720000000 1.0
C      1  0.4571610000000  0.5389990000000  0.5180610000000 1.0
C      1  0.5083880000000  0.6027610000000  0.4761500000000 1.0
C      1  0.5379470000000  0.4897530000000  0.4890210000000 1.0
C      1  0.5095940000000  0.4575620000000  0.5446680000000 1.0
C      1  0.5246990000000  0.5450030000000  0.5502210000000 1.0
C      1  0.4739850000000  0.5205870000000  0.4342260000000 1.0
C      1  0.5366090000000  0.4679230000000  0.4557000000000 1.0
C      1  0.4769300000000  0.5587570000000  0.4896200000000 1.0
C      1  0.5153380000000  0.5507460000000  0.4967920000000 1.0
C      1  0.4907730000000  0.4626240000000  0.4425890000000 1.0
C      1  0.4685130000000  0.4491880000000  0.4819270000000 1.0
C      1  0.5766150000000  0.4795620000000  0.4860860000000 1.0
C      1  0.4707490000000  0.5038020000000  0.4823070000000 1.0
C      1  0.4650330000000  0.4563470000000  0.4524270000000 1.0
C      1  0.5643240000000  0.5095220000000  0.4801850000000 1.0
C      1  0.4857000000000  0.4756060000000  0.4867200000000 1.0
C      1  0.4344970000000  0.4784640000000  0.4835820000000 1.0
C      1  0.4415130000000  0.5076180000000  0.4990190000000 1.0
C      1  0.5142950000000  0.4988190000000  0.5767130000000 1.0
C      1  0.4849910000000  0.5045760000000  0.5501200000000 1.0
C      1  0.5336720000000  0.5372240000000  0.5220350000000 1.0
C      1  0.4757990000000  0.5384830000000  0.4631030000000 1.0
C      1  0.4956250000000  0.4951840000000  0.4411290000000 1.0
C      1  0.4455260000000  0.4782380000000  0.4564080000000 1.0
C      1  0.4983110000000  0.5215320000000  0.4914190000000 1.0
C      1  0.5509340000000  0.4586480000000  0.4935050000000 1.0
C      1  0.4503580000000  0.5378320000000  0.4860930000000 1.0
C      1  0.4412040000000  0.4531500000000  0.4985110000000 1.0
C      1  0.5634450000000  0.5376260000000  0.4863840000000 1.0
C      1  0.5224510000000  0.5072240000000  0.5106230000000 1.0
C      1  0.5022510000000  0.5791940000000  0.4835290000000 1.0
C      1  0.5605830000000  0.4855530000000  0.4563600000000 1.0
C      1  0.4528250000000  0.5156390000000  0.5499890000000 1.0
C      1  0.4644670000000  0.4538600000000  0.5213380000000 1.0
C      1  0.5124670000000  0.4899930000000  0.5362250000000 1.0
C      1  0.4783840000000  0.4843500000000  0.5163530000000 1.0
C      1  0.4881240000000  0.4299720000000  0.4932460000000 1.0
C      1  0.4852780000000  0.5499640000000  0.5456480000000 1.0
C      1  0.5324600000000  0.5320760000000  0.4525430000000 1.0
C      1  0.4790160000000  0.5170440000000  0.5190530000000 1.0
C      1  0.4722160000000  0.4797270000000  0.5695210000000 1.0
C      1  0.5512740000000  0.5145830000000  0.4427530000000 1.0
C      1  0.5630650000000  0.5429620000000  0.5134910000000 1.0
END
