TITL C-1154808-8168-10 0.000579215498791736 125000 -334.265357538714 0 0 60 (C1) n - 1
REM
REM in /home/nfs/bkarasulu/CARBON/AIRSS/Generating-Clusters/AIREBO/Higher-Symm/Only-C60
REM
REM
REM
REM
REM
REM ./C.cell (28575a23ae977d3b5fae324c64b13b57)
REM
REM compiler GCC version 9.2.1 20190827 (Red Hat 9.2.1-1)
REM options -cpp -mtune=generic -march=x86-64 -g -O0 -fpre-include=/usr/include/finclude/math-vector-fortran.h
REM seed 711355710 997315259 -1178408188 442624222 1557995331 -1186901497 -24588107 -207127472 981592861 435336814 1918055622 -2057786142 838858138 -1840145087 391410479 1628727036 -429082687 -2046126144 -58820052 1363418854 802131561 2088006111 -1710008452 867313963 1078150516 -298463935 541553648 164620247 276982689 445740857 -351870040 170103396 1374485290
REM
CELL 1.54180   50.00000   50.00000   50.00000   90.00000   90.00000   90.00000
LATT -1
SFAC C  
C      1  0.4448870000000  0.5634610000000  0.5127420000000 1.0
C      1  0.5383920000000  0.5678090000000  0.4847320000000 1.0
C      1  0.5445270000000  0.5729520000000  0.5117710000000 1.0
C      1  0.4615550000000  0.5647120000000  0.4897160000000 1.0
C      1  0.5277900000000  0.5217990000000  0.4346250000000 1.0
C      1  0.4831660000000  0.5067090000000  0.5485370000000 1.0
C      1  0.5005210000000  0.5264810000000  0.4284840000000 1.0
C      1  0.5146800000000  0.5147640000000  0.5547760000000 1.0
C      1  0.5798960000000  0.4510980000000  0.4822550000000 1.0
C      1  0.4325410000000  0.4339230000000  0.5124290000000 1.0
C      1  0.4228250000000  0.4310130000000  0.4857870000000 1.0
C      1  0.5716550000000  0.4520690000000  0.5089950000000 1.0
C      1  0.4942590000000  0.5491010000000  0.5306470000000 1.0
C      1  0.5187180000000  0.5330990000000  0.4833050000000 1.0
C      1  0.5142360000000  0.5255600000000  0.5164010000000 1.0
C      1  0.4880100000000  0.5230930000000  0.4746670000000 1.0
C      1  0.5305360000000  0.5394910000000  0.5427940000000 1.0
C      1  0.4811920000000  0.5344960000000  0.4459540000000 1.0
C      1  0.4726810000000  0.5375930000000  0.5434380000000 1.0
C      1  0.5501030000000  0.5391560000000  0.4417620000000 1.0
C      1  0.4788700000000  0.4533270000000  0.5364090000000 1.0
C      1  0.5120910000000  0.4777080000000  0.4610240000000 1.0
C      1  0.5129150000000  0.4620010000000  0.5283550000000 1.0
C      1  0.4790930000000  0.4709520000000  0.4657300000000 1.0
C      1  0.5427080000000  0.5042800000000  0.4596920000000 1.0
C      1  0.4514210000000  0.4970700000000  0.5410090000000 1.0
C      1  0.4436760000000  0.4899220000000  0.4769900000000 1.0
C      1  0.5412720000000  0.5014080000000  0.5404420000000 1.0
C      1  0.5548730000000  0.5194320000000  0.5183510000000 1.0
C      1  0.4423930000000  0.5151100000000  0.4886060000000 1.0
C      1  0.4404850000000  0.5152860000000  0.5184610000000 1.0
C      1  0.5565840000000  0.5152970000000  0.4895830000000 1.0
C      1  0.5497290000000  0.5415500000000  0.4721950000000 1.0
C      1  0.4481740000000  0.5408710000000  0.5297800000000 1.0
C      1  0.4601350000000  0.5394010000000  0.4727180000000 1.0
C      1  0.5539140000000  0.5501480000000  0.5268690000000 1.0
C      1  0.5448070000000  0.4730370000000  0.4517110000000 1.0
C      1  0.4500100000000  0.4692470000000  0.5432410000000 1.0
C      1  0.4460220000000  0.4669690000000  0.4553620000000 1.0
C      1  0.5408950000000  0.4735020000000  0.5425780000000 1.0
C      1  0.4971520000000  0.5753580000000  0.5208310000000 1.0
C      1  0.5087800000000  0.5656550000000  0.4782470000000 1.0
C      1  0.5230590000000  0.5873150000000  0.5245680000000 1.0
C      1  0.4875180000000  0.5754700000000  0.4936270000000 1.0
C      1  0.5115770000000  0.4311750000000  0.5426440000000 1.0
C      1  0.4845500000000  0.4368470000000  0.4617070000000 1.0
C      1  0.4875790000000  0.4273810000000  0.5554390000000 1.0
C      1  0.5105650000000  0.4466480000000  0.4694350000000 1.0
C      1  0.5345790000000  0.4399140000000  0.4815480000000 1.0
C      1  0.4594030000000  0.4465390000000  0.5118920000000 1.0
C      1  0.4593210000000  0.4653100000000  0.4928120000000 1.0
C      1  0.5382310000000  0.4471120000000  0.5111960000000 1.0
C      1  0.5563210000000  0.4516230000000  0.4660420000000 1.0
C      1  0.4286620000000  0.4511070000000  0.5370600000000 1.0
C      1  0.4310850000000  0.4437240000000  0.4623610000000 1.0
C      1  0.5620460000000  0.4538800000000  0.5378950000000 1.0
C      1  0.5120510000000  0.4918770000000  0.5121180000000 1.0
C      1  0.4815800000000  0.4974890000000  0.4868510000000 1.0
C      1  0.4824850000000  0.5014880000000  0.5170940000000 1.0
C      1  0.5212180000000  0.4991880000000  0.4837120000000 1.0
END
