TITL C-1154828-9214-336 0.0212243673741539 125000 -303.385840867069 0 0 60 (C1) n - 1
REM
REM in /home/nfs/bkarasulu/CARBON/AIRSS/Generating-Clusters/AIREBO/Higher-Symm/Only-C60
REM
REM
REM
REM
REM
REM ./C.cell (28575a23ae977d3b5fae324c64b13b57)
REM
REM compiler GCC version 9.2.1 20190827 (Red Hat 9.2.1-1)
REM options -cpp -mtune=generic -march=x86-64 -g -O0 -fpre-include=/usr/include/finclude/math-vector-fortran.h
REM seed 74394398 619415433 -1227466613 431428557 53303813 -1311215015 2108348538 -3923373 -1543250115 1705376179 1134074262 -1058147926 -1491020325 -1569262798 1170270883 115700721 -19641592 -1870439323 1174654864 739302496 2097440673 1728314967 236697280 -81140733 -1473273279 718337694 2018495108 -67904802 -1138854468 -232274912 -1282332225 -1643917725 -1351805732
REM
CELL 1.54180   50.00000   50.00000   50.00000   90.00000   90.00000   90.00000
LATT -1
SFAC C  
C      1  0.4648270000000  0.4927780000000  0.5503790000000 1.0
C      1  0.4719760000000  0.4841160000000  0.4478690000000 1.0
C      1  0.5540500000000  0.4922870000000  0.5079930000000 1.0
C      1  0.5314410000000  0.5115420000000  0.5447660000000 1.0
C      1  0.5259510000000  0.5084540000000  0.4447100000000 1.0
C      1  0.4423530000000  0.5154260000000  0.4999430000000 1.0
C      1  0.5561290000000  0.5369940000000  0.5264050000000 1.0
C      1  0.4616630000000  0.5428390000000  0.5285490000000 1.0
C      1  0.4886870000000  0.5368850000000  0.4556130000000 1.0
C      1  0.4559940000000  0.4630930000000  0.5140910000000 1.0
C      1  0.5405070000000  0.4590020000000  0.5395750000000 1.0
C      1  0.5067100000000  0.4566350000000  0.4575960000000 1.0
C      1  0.4837920000000  0.5012810000000  0.4726420000000 1.0
C      1  0.5268640000000  0.5073930000000  0.4981550000000 1.0
C      1  0.4831770000000  0.5034760000000  0.5243770000000 1.0
C      1  0.5129640000000  0.4975880000000  0.4730660000000 1.0
C      1  0.4689520000000  0.4973970000000  0.4986180000000 1.0
C      1  0.5125140000000  0.4952160000000  0.5249060000000 1.0
C      1  0.4562170000000  0.4583930000000  0.4627960000000 1.0
C      1  0.5444690000000  0.4635910000000  0.4936910000000 1.0
C      1  0.4863000000000  0.4677920000000  0.5419740000000 1.0
C      1  0.5280860000000  0.5340030000000  0.4670410000000 1.0
C      1  0.4446240000000  0.5414300000000  0.4791360000000 1.0
C      1  0.5177210000000  0.5416600000000  0.5435160000000 1.0
C      1  0.5544210000000  0.5243530000000  0.4470750000000 1.0
C      1  0.5252240000000  0.5262890000000  0.5734020000000 1.0
C      1  0.4151350000000  0.5246680000000  0.4836280000000 1.0
C      1  0.4433670000000  0.4739410000000  0.4351550000000 1.0
C      1  0.4812120000000  0.4771640000000  0.5745900000000 1.0
C      1  0.5753230000000  0.4770550000000  0.4876890000000 1.0
C      1  0.5228100000000  0.4502720000000  0.5118800000000 1.0
C      1  0.4893420000000  0.4564610000000  0.5122420000000 1.0
C      1  0.4857910000000  0.4516800000000  0.4781980000000 1.0
C      1  0.4705960000000  0.5497530000000  0.4993180000000 1.0
C      1  0.5250030000000  0.5460680000000  0.5114230000000 1.0
C      1  0.5019650000000  0.5422110000000  0.4864890000000 1.0
C      1  0.4882930000000  0.5104010000000  0.4340930000000 1.0
C      1  0.5675170000000  0.5114770000000  0.5283700000000 1.0
C      1  0.4493600000000  0.5192260000000  0.5385870000000 1.0
C      1  0.5083320000000  0.4829970000000  0.4361190000000 1.0
C      1  0.4382510000000  0.4911280000000  0.5229590000000 1.0
C      1  0.5539030000000  0.4882590000000  0.5474100000000 1.0
C      1  0.5610090000000  0.4918350000000  0.4535140000000 1.0
C      1  0.5172460000000  0.4936750000000  0.5774800000000 1.0
C      1  0.4208570000000  0.4964600000000  0.4722290000000 1.0
C      1  0.4359970000000  0.5013590000000  0.4472620000000 1.0
C      1  0.4899360000000  0.5086410000000  0.5769970000000 1.0
C      1  0.5740630000000  0.5077080000000  0.4771000000000 1.0
C      1  0.5364050000000  0.4470850000000  0.4428050000000 1.0
C      1  0.5343000000000  0.4265550000000  0.5313940000000 1.0
C      1  0.4611550000000  0.4355040000000  0.4948990000000 1.0
C      1  0.4768520000000  0.5654320000000  0.4697960000000 1.0
C      1  0.4778410000000  0.5563250000000  0.5488880000000 1.0
C      1  0.5554120000000  0.5578300000000  0.5017780000000 1.0
C      1  0.5528650000000  0.5268580000000  0.4880220000000 1.0
C      1  0.4893230000000  0.5243710000000  0.5506490000000 1.0
C      1  0.4591970000000  0.5202490000000  0.4587630000000 1.0
C      1  0.4438840000000  0.4781120000000  0.4860940000000 1.0
C      1  0.5164270000000  0.4755720000000  0.5524050000000 1.0
C      1  0.5354170000000  0.4737550000000  0.4638890000000 1.0
END
