TITL C-1154828-9214-140 0.000775143962491991 125000 -349.414277574353 0 0 60 (C1) n - 1
REM
REM in /home/nfs/bkarasulu/CARBON/AIRSS/Generating-Clusters/AIREBO/Higher-Symm/Only-C60
REM
REM
REM
REM
REM
REM ./C.cell (28575a23ae977d3b5fae324c64b13b57)
REM
REM compiler GCC version 9.2.1 20190827 (Red Hat 9.2.1-1)
REM options -cpp -mtune=generic -march=x86-64 -g -O0 -fpre-include=/usr/include/finclude/math-vector-fortran.h
REM seed -144799144 -1341209396 1220241337 531979262 351591120 -1783631889 1295066671 -873371388 1483815913 -126387670 -699285199 908138376 1418097558 -1364148452 -1854362564 -11199254 1103710312 751528674 -1706565066 -998473617 -1240885574 1842746394 1876342207 -1793330567 -1760690314 615335288 -1221159204 1357862696 297037332 -316328756 -240351790 627165310 -491223136
REM
CELL 1.54180   50.00000   50.00000   50.00000   90.00000   90.00000   90.00000
LATT -1
SFAC C  
C      1  0.5238370000000  0.5291390000000  0.5465260000000 1.0
C      1  0.5357420000000  0.4695040000000  0.5496820000000 1.0
C      1  0.4896900000000  0.4612010000000  0.5639260000000 1.0
C      1  0.4811550000000  0.5252650000000  0.5688730000000 1.0
C      1  0.5238290000000  0.5267740000000  0.4930910000000 1.0
C      1  0.5159860000000  0.4694840000000  0.5010220000000 1.0
C      1  0.5343340000000  0.4489880000000  0.4679140000000 1.0
C      1  0.5328570000000  0.5325500000000  0.4471790000000 1.0
C      1  0.5078630000000  0.4831790000000  0.5549780000000 1.0
C      1  0.5049820000000  0.5114070000000  0.5655970000000 1.0
C      1  0.4672480000000  0.4487370000000  0.4952820000000 1.0
C      1  0.4742350000000  0.5508170000000  0.5032580000000 1.0
C      1  0.5081370000000  0.5124240000000  0.4711630000000 1.0
C      1  0.5095400000000  0.4797690000000  0.4731220000000 1.0
C      1  0.5447600000000  0.4332390000000  0.4946500000000 1.0
C      1  0.5527290000000  0.5711920000000  0.4922050000000 1.0
C      1  0.4317460000000  0.5477860000000  0.4670940000000 1.0
C      1  0.4445660000000  0.4525790000000  0.4304370000000 1.0
C      1  0.5106980000000  0.5480360000000  0.4522890000000 1.0
C      1  0.5054300000000  0.4392300000000  0.4566670000000 1.0
C      1  0.5178890000000  0.5141010000000  0.5192210000000 1.0
C      1  0.5121710000000  0.4885440000000  0.5236210000000 1.0
C      1  0.4786770000000  0.5187690000000  0.4615860000000 1.0
C      1  0.4789250000000  0.4865000000000  0.4628570000000 1.0
C      1  0.4358240000000  0.5386010000000  0.5252360000000 1.0
C      1  0.4379770000000  0.4649330000000  0.5338210000000 1.0
C      1  0.4919190000000  0.5597060000000  0.4784600000000 1.0
C      1  0.4882410000000  0.4286350000000  0.4787220000000 1.0
C      1  0.4569060000000  0.4677890000000  0.4740990000000 1.0
C      1  0.4591750000000  0.5327780000000  0.4807210000000 1.0
C      1  0.4377960000000  0.4609610000000  0.4559990000000 1.0
C      1  0.4309190000000  0.5386020000000  0.4975520000000 1.0
C      1  0.4626970000000  0.5486050000000  0.5287200000000 1.0
C      1  0.4580970000000  0.4480410000000  0.5248650000000 1.0
C      1  0.5301020000000  0.5809390000000  0.5124330000000 1.0
C      1  0.5275400000000  0.4343770000000  0.5161990000000 1.0
C      1  0.4791070000000  0.4415350000000  0.5409650000000 1.0
C      1  0.4798510000000  0.5483240000000  0.5513220000000 1.0
C      1  0.5674990000000  0.5289570000000  0.5202870000000 1.0
C      1  0.5656610000000  0.4748170000000  0.5137030000000 1.0
C      1  0.5256690000000  0.4704970000000  0.4430390000000 1.0
C      1  0.5278470000000  0.5015540000000  0.4456810000000 1.0
C      1  0.5209720000000  0.5588900000000  0.4892640000000 1.0
C      1  0.4991790000000  0.4429970000000  0.5056440000000 1.0
C      1  0.4262390000000  0.5165430000000  0.5396880000000 1.0
C      1  0.4320780000000  0.4901810000000  0.5412280000000 1.0
C      1  0.5298920000000  0.4412850000000  0.5439680000000 1.0
C      1  0.5197600000000  0.5789540000000  0.5377880000000 1.0
C      1  0.5554340000000  0.5393350000000  0.4934080000000 1.0
C      1  0.5472890000000  0.4726020000000  0.4880760000000 1.0
C      1  0.5050280000000  0.4334820000000  0.5589560000000 1.0
C      1  0.5076540000000  0.5559340000000  0.5476210000000 1.0
C      1  0.5540950000000  0.4862890000000  0.5370640000000 1.0
C      1  0.5527900000000  0.5147800000000  0.5386450000000 1.0
C      1  0.4476460000000  0.5592940000000  0.4464230000000 1.0
C      1  0.4700070000000  0.4569540000000  0.4206220000000 1.0
C      1  0.4768960000000  0.5504760000000  0.4495330000000 1.0
C      1  0.4922090000000  0.4643250000000  0.4407490000000 1.0
C      1  0.5539750000000  0.5227170000000  0.4671730000000 1.0
C      1  0.5590040000000  0.4960960000000  0.4700850000000 1.0
END
