TITL C-1154824-75-79 0.00246396763595852 125000 -321.072136777478 0 0 60 (C1) n - 1
REM
REM in /home/nfs/bkarasulu/CARBON/AIRSS/Generating-Clusters/AIREBO/Higher-Symm/Only-C60
REM
REM
REM
REM
REM
REM ./C.cell (28575a23ae977d3b5fae324c64b13b57)
REM
REM compiler GCC version 9.2.1 20190827 (Red Hat 9.2.1-1)
REM options -cpp -mtune=generic -march=x86-64 -g -O0 -fpre-include=/usr/include/finclude/math-vector-fortran.h
REM seed -209561113 -1324691026 1961916542 1520591548 -1865394157 -1733056730 1280476407 1856471709 945154576 527577350 1873455908 -1394544981 11070833 130461735 324960063 -1281167687 -740315784 117415431 -1669662968 1611884665 -340729045 246693252 22778415 -1807515984 -2123615906 1476794471 -1740211403 -1659838783 -357670877 -1963586812 1693859908 -1616962857 107299555
REM
CELL 1.54180   50.00000   50.00000   50.00000   90.00000   90.00000   90.00000
LATT -1
SFAC C  
C      1  0.5161490000000  0.5564190000000  0.5179200000000 1.0
C      1  0.5139670000000  0.5130810000000  0.5392700000000 1.0
C      1  0.5410900000000  0.5045440000000  0.5204850000000 1.0
C      1  0.4776700000000  0.5432330000000  0.4926490000000 1.0
C      1  0.5133050000000  0.4673650000000  0.4870900000000 1.0
C      1  0.4735020000000  0.4436250000000  0.5124020000000 1.0
C      1  0.4798200000000  0.5126070000000  0.4382120000000 1.0
C      1  0.5129450000000  0.4802510000000  0.4556890000000 1.0
C      1  0.4905680000000  0.4886230000000  0.5664270000000 1.0
C      1  0.4535570000000  0.5192070000000  0.4922250000000 1.0
C      1  0.5419970000000  0.4820540000000  0.4874480000000 1.0
C      1  0.4540890000000  0.4694640000000  0.5170990000000 1.0
C      1  0.5158870000000  0.4452310000000  0.5120230000000 1.0
C      1  0.5215740000000  0.4816460000000  0.5595310000000 1.0
C      1  0.5620930000000  0.4780630000000  0.5139280000000 1.0
C      1  0.4881310000000  0.4447330000000  0.4836130000000 1.0
C      1  0.5079210000000  0.5569150000000  0.4848920000000 1.0
C      1  0.4849010000000  0.5682170000000  0.5152380000000 1.0
C      1  0.4873600000000  0.4797480000000  0.4337810000000 1.0
C      1  0.5141460000000  0.5085220000000  0.4367970000000 1.0
C      1  0.4887830000000  0.5211480000000  0.5606520000000 1.0
C      1  0.4478060000000  0.4871410000000  0.4915730000000 1.0
C      1  0.5552430000000  0.5131430000000  0.4912610000000 1.0
C      1  0.4364710000000  0.5309990000000  0.5159460000000 1.0
C      1  0.5668000000000  0.4797500000000  0.5454760000000 1.0
C      1  0.5401700000000  0.5587030000000  0.4787660000000 1.0
C      1  0.4848790000000  0.5491200000000  0.5665460000000 1.0
C      1  0.4537340000000  0.4772700000000  0.4617580000000 1.0
C      1  0.5567230000000  0.5241340000000  0.4605290000000 1.0
C      1  0.4380400000000  0.5181180000000  0.5393460000000 1.0
C      1  0.4548190000000  0.5765720000000  0.5140950000000 1.0
C      1  0.5404600000000  0.4339950000000  0.5134410000000 1.0
C      1  0.4576920000000  0.4514710000000  0.4765580000000 1.0
C      1  0.5177140000000  0.5407090000000  0.4383820000000 1.0
C      1  0.4899520000000  0.4511110000000  0.4337300000000 1.0
C      1  0.5219230000000  0.4548710000000  0.5503230000000 1.0
C      1  0.5494030000000  0.5252570000000  0.5461500000000 1.0
C      1  0.5607750000000  0.4464110000000  0.4734240000000 1.0
C      1  0.4843220000000  0.4572960000000  0.5631760000000 1.0
C      1  0.4383050000000  0.5169650000000  0.4625270000000 1.0
C      1  0.5526850000000  0.4803170000000  0.4563280000000 1.0
C      1  0.4486460000000  0.4796740000000  0.5423210000000 1.0
C      1  0.4447630000000  0.4316440000000  0.5087960000000 1.0
C      1  0.5444460000000  0.5481970000000  0.5221320000000 1.0
C      1  0.4533040000000  0.5527360000000  0.4709140000000 1.0
C      1  0.5333270000000  0.4530110000000  0.4556740000000 1.0
C      1  0.4743770000000  0.5410710000000  0.4523440000000 1.0
C      1  0.5220530000000  0.5423390000000  0.5545980000000 1.0
C      1  0.5604160000000  0.4491420000000  0.5006580000000 1.0
C      1  0.4405570000000  0.5563030000000  0.4995770000000 1.0
C      1  0.4941320000000  0.4433650000000  0.5349540000000 1.0
C      1  0.4997080000000  0.5524250000000  0.4552050000000 1.0
C      1  0.4300030000000  0.4558010000000  0.4939350000000 1.0
C      1  0.5037710000000  0.4414150000000  0.4557150000000 1.0
C      1  0.4522330000000  0.4995180000000  0.4452670000000 1.0
C      1  0.5549590000000  0.5437960000000  0.4965100000000 1.0
C      1  0.5006160000000  0.5671890000000  0.5454600000000 1.0
C      1  0.5474160000000  0.4947650000000  0.5585970000000 1.0
C      1  0.4619370000000  0.5047240000000  0.5569350000000 1.0
C      1  0.5459670000000  0.5048390000000  0.4436990000000 1.0
END
