TITL C-1154823-9327-158 -0.00711534811069686 125000 -330.471118457341 0 0 60 (C1) n - 1
REM
REM in /home/nfs/bkarasulu/CARBON/AIRSS/Generating-Clusters/AIREBO/Higher-Symm/Only-C60
REM
REM
REM
REM
REM
REM ./C.cell (28575a23ae977d3b5fae324c64b13b57)
REM
REM compiler GCC version 9.2.1 20190827 (Red Hat 9.2.1-1)
REM options -cpp -mtune=generic -march=x86-64 -g -O0 -fpre-include=/usr/include/finclude/math-vector-fortran.h
REM seed 572582684 -2074027068 918350625 565968455 -945069162 -1176521261 681626405 1286733735 634883696 -654005929 1355278183 -1730001618 1391019880 -1471337061 -109028710 366418125 1805898495 1209883256 222025222 -888399583 1557232355 81042311 849057277 1669760161 -1578000714 1770726400 -1252522143 -706022436 110536063 920507995 -1236655844 1779097394 -1551442525
REM
CELL 1.54180   50.00000   50.00000   50.00000   90.00000   90.00000   90.00000
LATT -1
SFAC C  
C      1  0.5031370000000  0.4840240000000  0.4142500000000 1.0
C      1  0.4251390000000  0.4552670000000  0.5136450000000 1.0
C      1  0.5246900000000  0.4579210000000  0.5419490000000 1.0
C      1  0.4878980000000  0.4681930000000  0.5533130000000 1.0
C      1  0.4552880000000  0.4875460000000  0.4630670000000 1.0
C      1  0.4722440000000  0.5219850000000  0.4919160000000 1.0
C      1  0.4694420000000  0.4373890000000  0.4755760000000 1.0
C      1  0.5664820000000  0.5434870000000  0.4938150000000 1.0
C      1  0.5026010000000  0.4340710000000  0.5191450000000 1.0
C      1  0.4964550000000  0.5414380000000  0.4905590000000 1.0
C      1  0.4527420000000  0.5066720000000  0.5151850000000 1.0
C      1  0.4748750000000  0.4714670000000  0.4977960000000 1.0
C      1  0.5078870000000  0.5086100000000  0.4626700000000 1.0
C      1  0.4297530000000  0.5007010000000  0.5257070000000 1.0
C      1  0.5166220000000  0.5100830000000  0.4314310000000 1.0
C      1  0.5330970000000  0.4563930000000  0.4604290000000 1.0
C      1  0.5009480000000  0.4256620000000  0.4776000000000 1.0
C      1  0.4855660000000  0.4605160000000  0.5264270000000 1.0
C      1  0.4768250000000  0.4553940000000  0.5748630000000 1.0
C      1  0.5449030000000  0.5405430000000  0.4774930000000 1.0
C      1  0.5564750000000  0.5483440000000  0.5477850000000 1.0
C      1  0.5436780000000  0.4926700000000  0.5455790000000 1.0
C      1  0.5621090000000  0.4714220000000  0.4605530000000 1.0
C      1  0.5828110000000  0.5190470000000  0.5069550000000 1.0
C      1  0.5466930000000  0.4907720000000  0.5185730000000 1.0
C      1  0.5219430000000  0.4605880000000  0.5099120000000 1.0
C      1  0.5009920000000  0.5973550000000  0.4757320000000 1.0
C      1  0.5220590000000  0.4426410000000  0.4833920000000 1.0
C      1  0.4683230000000  0.5090800000000  0.5615630000000 1.0
C      1  0.4978650000000  0.5357110000000  0.4352000000000 1.0
C      1  0.4851350000000  0.4940500000000  0.4664930000000 1.0
C      1  0.5091080000000  0.5561700000000  0.4498750000000 1.0
C      1  0.4382150000000  0.5171480000000  0.5704330000000 1.0
C      1  0.4740370000000  0.4278920000000  0.5067580000000 1.0
C      1  0.5708850000000  0.4936840000000  0.5044100000000 1.0
C      1  0.5709550000000  0.5424120000000  0.5254670000000 1.0
C      1  0.5051100000000  0.5371500000000  0.5477580000000 1.0
C      1  0.5216560000000  0.5234940000000  0.4864790000000 1.0
C      1  0.5185650000000  0.4935830000000  0.5024040000000 1.0
C      1  0.4454030000000  0.5478240000000  0.4775490000000 1.0
C      1  0.5370310000000  0.5552650000000  0.4548310000000 1.0
C      1  0.4500530000000  0.4609720000000  0.4615610000000 1.0
C      1  0.4933880000000  0.5706620000000  0.4731150000000 1.0
C      1  0.5386610000000  0.4893720000000  0.4468790000000 1.0
C      1  0.4603150000000  0.5114020000000  0.5930090000000 1.0
C      1  0.4845360000000  0.5637100000000  0.5114770000000 1.0
C      1  0.4639310000000  0.5642510000000  0.4877620000000 1.0
C      1  0.5091680000000  0.4725220000000  0.4428580000000 1.0
C      1  0.4713850000000  0.5306660000000  0.4377130000000 1.0
C      1  0.4899900000000  0.5586910000000  0.5379660000000 1.0
C      1  0.4515350000000  0.4495890000000  0.5090660000000 1.0
C      1  0.4867280000000  0.4995190000000  0.5129490000000 1.0
C      1  0.4927980000000  0.5091570000000  0.5450650000000 1.0
C      1  0.4893710000000  0.4627480000000  0.4682680000000 1.0
C      1  0.4142180000000  0.4781940000000  0.5241070000000 1.0
C      1  0.5139150000000  0.4869530000000  0.5560140000000 1.0
C      1  0.5210300000000  0.4282800000000  0.5471280000000 1.0
C      1  0.5313370000000  0.5415370000000  0.5554430000000 1.0
C      1  0.5762690000000  0.4774640000000  0.4822190000000 1.0
C      1  0.4557290000000  0.5206500000000  0.4628650000000 1.0
END
