TITL C-1154816-9297-286 0.00808142813448357 125000 -347.649808055502 0 0 60 (C1) n - 1
REM
REM in /home/nfs/bkarasulu/CARBON/AIRSS/Generating-Clusters/AIREBO/Higher-Symm/Only-C60
REM
REM
REM
REM
REM
REM ./C.cell (28575a23ae977d3b5fae324c64b13b57)
REM
REM compiler GCC version 9.2.1 20190827 (Red Hat 9.2.1-1)
REM options -cpp -mtune=generic -march=x86-64 -g -O0 -fpre-include=/usr/include/finclude/math-vector-fortran.h
REM seed 1351926410 2086117165 -18818001 764621186 1438767162 -415625000 108770434 -895341602 -1395813236 -2024058270 -96380568 -1679972069 1191650009 127571522 -2021943133 127932775 -271635186 1158257268 -34277663 724937459 726354690 -2083661772 -1505746350 -323795162 980325496 1823970186 162168492 274263819 -79717002 -1672808928 1515709365 1111817661 -215729993
REM
CELL 1.54180   50.00000   50.00000   50.00000   90.00000   90.00000   90.00000
LATT -1
SFAC C  
C      1  0.4646860000000  0.5606350000000  0.5199590000000 1.0
C      1  0.5155630000000  0.4611090000000  0.5562340000000 1.0
C      1  0.5559770000000  0.5156290000000  0.4607380000000 1.0
C      1  0.5397930000000  0.5565110000000  0.4833820000000 1.0
C      1  0.4645230000000  0.4392980000000  0.4798100000000 1.0
C      1  0.5396090000000  0.4434900000000  0.5164090000000 1.0
C      1  0.4790970000000  0.4636920000000  0.4393860000000 1.0
C      1  0.5157600000000  0.5388060000000  0.4436110000000 1.0
C      1  0.4791060000000  0.5363480000000  0.5605060000000 1.0
C      1  0.4389490000000  0.5210470000000  0.5357470000000 1.0
C      1  0.5558350000000  0.4844380000000  0.5390820000000 1.0
C      1  0.4390050000000  0.4791370000000  0.4643160000000 1.0
C      1  0.5209980000000  0.5605360000000  0.4635620000000 1.0
C      1  0.5609310000000  0.4643390000000  0.5208250000000 1.0
C      1  0.4603010000000  0.5165340000000  0.5564460000000 1.0
C      1  0.4844220000000  0.5562660000000  0.5387510000000 1.0
C      1  0.4842580000000  0.4436490000000  0.4610600000000 1.0
C      1  0.5208020000000  0.4394110000000  0.5362260000000 1.0
C      1  0.4440820000000  0.4608680000000  0.4844170000000 1.0
C      1  0.4441040000000  0.5392100000000  0.5156070000000 1.0
C      1  0.5611140000000  0.5357700000000  0.4789160000000 1.0
C      1  0.5354870000000  0.5200130000000  0.4392590000000 1.0
C      1  0.5353070000000  0.4798580000000  0.5606030000000 1.0
C      1  0.4603010000000  0.4835130000000  0.4434340000000 1.0
C      1  0.4825100000000  0.4593270000000  0.5640960000000 1.0
C      1  0.5628970000000  0.4823160000000  0.4610620000000 1.0
C      1  0.4618320000000  0.5589580000000  0.4860160000000 1.0
C      1  0.5130700000000  0.4606140000000  0.4395130000000 1.0
C      1  0.4827120000000  0.5406360000000  0.4357470000000 1.0
C      1  0.5130860000000  0.5393420000000  0.5605390000000 1.0
C      1  0.4380090000000  0.4873740000000  0.5410940000000 1.0
C      1  0.5628960000000  0.5177170000000  0.5395670000000 1.0
C      1  0.4392320000000  0.5129520000000  0.4598610000000 1.0
C      1  0.5415760000000  0.5654950000000  0.5161500000000 1.0
C      1  0.4616220000000  0.4405580000000  0.5137660000000 1.0
C      1  0.5414340000000  0.4346770000000  0.4835960000000 1.0
C      1  0.5607560000000  0.4598910000000  0.4870090000000 1.0
C      1  0.4584490000000  0.4837610000000  0.5653980000000 1.0
C      1  0.4870230000000  0.5605120000000  0.4605160000000 1.0
C      1  0.4370230000000  0.4603930000000  0.5176970000000 1.0
C      1  0.4371740000000  0.5388980000000  0.4822960000000 1.0
C      1  0.5619940000000  0.5411210000000  0.5125900000000 1.0
C      1  0.5383220000000  0.4860650000000  0.4408730000000 1.0
C      1  0.5382290000000  0.5138100000000  0.5592900000000 1.0
C      1  0.4585420000000  0.5163230000000  0.4345920000000 1.0
C      1  0.5174940000000  0.5640410000000  0.5405520000000 1.0
C      1  0.5172880000000  0.4357030000000  0.4592500000000 1.0
C      1  0.4868230000000  0.4394810000000  0.5392490000000 1.0
C      1  0.5628020000000  0.4919960000000  0.4921360000000 1.0
C      1  0.4931530000000  0.5620770000000  0.4920620000000 1.0
C      1  0.4901790000000  0.4910360000000  0.5635420000000 1.0
C      1  0.4369820000000  0.4914010000000  0.5091090000000 1.0
C      1  0.5630010000000  0.5091300000000  0.5085650000000 1.0
C      1  0.4372040000000  0.5078280000000  0.4919740000000 1.0
C      1  0.5098510000000  0.5634790000000  0.5088400000000 1.0
C      1  0.4929730000000  0.4377280000000  0.5077170000000 1.0
C      1  0.5096910000000  0.4363830000000  0.4909580000000 1.0
C      1  0.5069860000000  0.4921500000000  0.4378490000000 1.0
C      1  0.4902820000000  0.5089230000000  0.4364450000000 1.0
C      1  0.5068920000000  0.5078000000000  0.5622020000000 1.0
END
