TITL C-1154801-8518-575 0.00283928283096345 125000 -314.852786357228 0 0 60 (C1) n - 1
REM
REM in /home/nfs/bkarasulu/CARBON/AIRSS/Generating-Clusters/AIREBO/Higher-Symm/Only-C60
REM
REM
REM
REM
REM
REM ./C.cell (28575a23ae977d3b5fae324c64b13b57)
REM
REM compiler GCC version 9.2.1 20190827 (Red Hat 9.2.1-1)
REM options -cpp -mtune=generic -march=x86-64 -g -O0 -fpre-include=/usr/include/finclude/math-vector-fortran.h
REM seed 1248166137 -350733006 -1692221111 -2075956890 -1665195628 -1230813019 -644651131 736382514 390832584 -379635680 -165459633 -631365768 -1928585625 566614048 1809674495 638139051 -1816180616 -1461210072 341493511 1303999153 -164263775 176176821 1564468557 -852708366 1609393552 288929491 -1937956773 -1100383056 -349232800 1680601726 -354674127 813309422 1981323785
REM
CELL 1.54180   50.00000   50.00000   50.00000   90.00000   90.00000   90.00000
LATT -1
SFAC C  
C      1  0.5159170000000  0.5055230000000  0.5032970000000 1.0
C      1  0.4694690000000  0.5248360000000  0.5135790000000 1.0
C      1  0.5026580000000  0.5390420000000  0.5606900000000 1.0
C      1  0.5330940000000  0.5335680000000  0.5465510000000 1.0
C      1  0.4668240000000  0.4897420000000  0.4794440000000 1.0
C      1  0.5568390000000  0.4290060000000  0.5048280000000 1.0
C      1  0.5419180000000  0.4801370000000  0.5369700000000 1.0
C      1  0.4976680000000  0.5560310000000  0.4464630000000 1.0
C      1  0.5174270000000  0.5321100000000  0.4742070000000 1.0
C      1  0.5771360000000  0.5183860000000  0.5119580000000 1.0
C      1  0.5342380000000  0.4718870000000  0.4816470000000 1.0
C      1  0.5155890000000  0.4804100000000  0.4544960000000 1.0
C      1  0.5634190000000  0.4813510000000  0.4774540000000 1.0
C      1  0.5009830000000  0.5217440000000  0.5247680000000 1.0
C      1  0.4689870000000  0.5020080000000  0.5381640000000 1.0
C      1  0.5103810000000  0.4349280000000  0.4979230000000 1.0
C      1  0.4773610000000  0.5116680000000  0.4383590000000 1.0
C      1  0.5328410000000  0.4942210000000  0.5625770000000 1.0
C      1  0.4419790000000  0.5409630000000  0.4620740000000 1.0
C      1  0.5150220000000  0.4548300000000  0.5680890000000 1.0
C      1  0.5053470000000  0.5083980000000  0.4445240000000 1.0
C      1  0.4583300000000  0.4693870000000  0.5053590000000 1.0
C      1  0.4682190000000  0.5419710000000  0.4422040000000 1.0
C      1  0.5363490000000  0.4419040000000  0.4909010000000 1.0
C      1  0.5159980000000  0.5504540000000  0.5247570000000 1.0
C      1  0.4912920000000  0.4680320000000  0.4701500000000 1.0
C      1  0.5198620000000  0.4764920000000  0.5121700000000 1.0
C      1  0.4909020000000  0.5137630000000  0.4817600000000 1.0
C      1  0.5323790000000  0.4491350000000  0.5409840000000 1.0
C      1  0.4740390000000  0.5329970000000  0.5519240000000 1.0
C      1  0.5445660000000  0.5179500000000  0.4997730000000 1.0
C      1  0.5774450000000  0.5030040000000  0.4827560000000 1.0
C      1  0.5535400000000  0.4291020000000  0.5321370000000 1.0
C      1  0.4326650000000  0.5126330000000  0.4547330000000 1.0
C      1  0.4713260000000  0.4403280000000  0.5127180000000 1.0
C      1  0.4432170000000  0.4453410000000  0.4649910000000 1.0
C      1  0.4452460000000  0.4853280000000  0.5271890000000 1.0
C      1  0.5245090000000  0.4653840000000  0.4320000000000 1.0
C      1  0.4987590000000  0.5786950000000  0.5029380000000 1.0
C      1  0.5008270000000  0.4448590000000  0.5290090000000 1.0
C      1  0.5076420000000  0.5827190000000  0.5320050000000 1.0
C      1  0.4256970000000  0.4994510000000  0.5124470000000 1.0
C      1  0.4447820000000  0.4420650000000  0.4931750000000 1.0
C      1  0.4974380000000  0.4758230000000  0.5636900000000 1.0
C      1  0.4402520000000  0.5097640000000  0.4867010000000 1.0
C      1  0.5234220000000  0.5594130000000  0.4928050000000 1.0
C      1  0.5506720000000  0.5126510000000  0.5321810000000 1.0
C      1  0.4528050000000  0.4699870000000  0.4555630000000 1.0
C      1  0.5440460000000  0.5494430000000  0.4674730000000 1.0
C      1  0.4917460000000  0.4775430000000  0.5315430000000 1.0
C      1  0.4929120000000  0.4420360000000  0.4772790000000 1.0
C      1  0.5239460000000  0.5367940000000  0.4422960000000 1.0
C      1  0.4741360000000  0.5617770000000  0.4994300000000 1.0
C      1  0.4613850000000  0.5535040000000  0.5299760000000 1.0
C      1  0.4800530000000  0.5447380000000  0.4733060000000 1.0
C      1  0.4533630000000  0.4963440000000  0.4423610000000 1.0
C      1  0.4924750000000  0.4257250000000  0.5514490000000 1.0
C      1  0.5671990000000  0.5336420000000  0.4798270000000 1.0
C      1  0.4469120000000  0.5419460000000  0.4947250000000 1.0
C      1  0.5045530000000  0.5070870000000  0.5552570000000 1.0
END
