TITL C-1154826-9507-573 -0.00089048560530716 125000 -343.601714359631 0 0 60 (C1) n - 1
REM
REM in /home/nfs/bkarasulu/CARBON/AIRSS/Generating-Clusters/AIREBO/Higher-Symm/Only-C60
REM
REM
REM
REM
REM
REM ./C.cell (28575a23ae977d3b5fae324c64b13b57)
REM
REM compiler GCC version 9.2.1 20190827 (Red Hat 9.2.1-1)
REM options -cpp -mtune=generic -march=x86-64 -g -O0 -fpre-include=/usr/include/finclude/math-vector-fortran.h
REM seed 1188540814 -242208614 2065705370 -1098917096 -1916418270 1629284009 -1582396390 1243937903 1602313924 -1966587084 899584429 -1657921973 -2032303023 -1605027830 1262752782 404808331 -1763887805 678039257 -1066367850 1813707511 89969268 -1987490153 248643096 -1641964556 -46362987 507482133 1106713942 -1479515674 -876040568 -229469840 -653045780 934160134 -1476926695
REM
CELL 1.54180   50.00000   50.00000   50.00000   90.00000   90.00000   90.00000
LATT -1
SFAC C  
C      1  0.5192150000000  0.5720180000000  0.5096860000000 1.0
C      1  0.5159020000000  0.4761030000000  0.4340390000000 1.0
C      1  0.5127830000000  0.4555510000000  0.5589400000000 1.0
C      1  0.4749810000000  0.5778150000000  0.4827840000000 1.0
C      1  0.4717630000000  0.4814280000000  0.5738230000000 1.0
C      1  0.4774120000000  0.4460420000000  0.4438800000000 1.0
C      1  0.5535410000000  0.5119480000000  0.4564310000000 1.0
C      1  0.5510050000000  0.4570430000000  0.5167330000000 1.0
C      1  0.5548040000000  0.5320610000000  0.5309090000000 1.0
C      1  0.4566060000000  0.5250770000000  0.5463790000000 1.0
C      1  0.4530090000000  0.4461870000000  0.4917810000000 1.0
C      1  0.4531500000000  0.5302770000000  0.4619330000000 1.0
C      1  0.4581280000000  0.4346970000000  0.4671250000000 1.0
C      1  0.4565420000000  0.5097360000000  0.5693240000000 1.0
C      1  0.4541200000000  0.5579200000000  0.4658820000000 1.0
C      1  0.5402670000000  0.4489830000000  0.5416790000000 1.0
C      1  0.5418770000000  0.4959970000000  0.4364310000000 1.0
C      1  0.5454940000000  0.5580190000000  0.5245480000000 1.0
C      1  0.4372070000000  0.5224580000000  0.5279470000000 1.0
C      1  0.4347310000000  0.5139590000000  0.4740780000000 1.0
C      1  0.4286510000000  0.4596980000000  0.4942050000000 1.0
C      1  0.5803570000000  0.5065880000000  0.4713520000000 1.0
C      1  0.5733350000000  0.5167490000000  0.5170290000000 1.0
C      1  0.5713220000000  0.4750310000000  0.5098030000000 1.0
C      1  0.5351450000000  0.5303770000000  0.4683690000000 1.0
C      1  0.5318650000000  0.4534210000000  0.4958260000000 1.0
C      1  0.5350720000000  0.5164470000000  0.5439510000000 1.0
C      1  0.4839050000000  0.5314680000000  0.5339450000000 1.0
C      1  0.4783650000000  0.4533040000000  0.5089810000000 1.0
C      1  0.4805360000000  0.5165320000000  0.4583780000000 1.0
C      1  0.5144440000000  0.4290850000000  0.5414880000000 1.0
C      1  0.5206290000000  0.5699180000000  0.5413120000000 1.0
C      1  0.5154100000000  0.5043640000000  0.4197770000000 1.0
C      1  0.4793710000000  0.4151090000000  0.4531360000000 1.0
C      1  0.4691380000000  0.5826170000000  0.4516010000000 1.0
C      1  0.4750720000000  0.5052730000000  0.5952570000000 1.0
C      1  0.4897070000000  0.5735450000000  0.4345840000000 1.0
C      1  0.5002950000000  0.4085860000000  0.4709430000000 1.0
C      1  0.4991700000000  0.5198560000000  0.5933500000000 1.0
C      1  0.5015440000000  0.5536490000000  0.5524750000000 1.0
C      1  0.4960040000000  0.4269060000000  0.5211510000000 1.0
C      1  0.4947470000000  0.5206540000000  0.4277160000000 1.0
C      1  0.4977480000000  0.5475760000000  0.4402150000000 1.0
C      1  0.5026480000000  0.4264930000000  0.4922010000000 1.0
C      1  0.5052020000000  0.5281460000000  0.5674400000000 1.0
C      1  0.5041300000000  0.5375700000000  0.4709040000000 1.0
C      1  0.5043500000000  0.5057090000000  0.5419020000000 1.0
C      1  0.5016170000000  0.4589330000000  0.4847150000000 1.0
C      1  0.4902210000000  0.4712710000000  0.5558990000000 1.0
C      1  0.4928200000000  0.4686840000000  0.4470650000000 1.0
C      1  0.4952060000000  0.5654390000000  0.4978560000000 1.0
C      1  0.4849650000000  0.4863970000000  0.4735370000000 1.0
C      1  0.4863410000000  0.4821470000000  0.5252080000000 1.0
C      1  0.4868450000000  0.5343230000000  0.5000880000000 1.0
C      1  0.5958070000000  0.4972310000000  0.5005570000000 1.0
C      1  0.4263460000000  0.4863880000000  0.4885160000000 1.0
C      1  0.4766550000000  0.5029480000000  0.5016480000000 1.0
C      1  0.5309850000000  0.5007150000000  0.4948080000000 1.0
C      1  0.5574140000000  0.4996820000000  0.4942280000000 1.0
C      1  0.4455710000000  0.5068050000000  0.5037890000000 1.0
END
