TITL C-1154801-8518-191 0.000190346283509551 125000 -307.636375596209 0 0 60 (Ci) n - 1
REM
REM in /home/nfs/bkarasulu/CARBON/AIRSS/Generating-Clusters/AIREBO/Higher-Symm/Only-C60
REM
REM
REM
REM
REM
REM ./C.cell (28575a23ae977d3b5fae324c64b13b57)
REM
REM compiler GCC version 9.2.1 20190827 (Red Hat 9.2.1-1)
REM options -cpp -mtune=generic -march=x86-64 -g -O0 -fpre-include=/usr/include/finclude/math-vector-fortran.h
REM seed -1044993865 -1559164009 446145917 276915102 -79462052 287111599 -728478168 1409648300 -1054614491 -622820277 1957542438 1045354392 -1782054898 -742779285 -1378506371 1258902477 1818767990 768457686 1099435466 569338912 -90819122 -2116841340 485537568 -622860348 -1975308226 1850544258 -32929014 -1130667450 52459220 490588566 -1652992321 -1540076208 41425372
REM
CELL 1.54180   50.00000   50.00000   50.00000   90.00000   90.00000   90.00000
LATT -1
SFAC C  
C      1  0.5537960000000  0.4346940000000  0.4891310000000 1.0
C      1  0.4336540000000  0.4575370000000  0.4498780000000 1.0
C      1  0.5556200000000  0.4963400000000  0.4378320000000 1.0
C      1  0.4281570000000  0.5365230000000  0.4504290000000 1.0
C      1  0.5532410000000  0.5606890000000  0.4887090000000 1.0
C      1  0.4462040000000  0.5653070000000  0.5108680000000 1.0
C      1  0.5663460000000  0.5424620000000  0.5501230000000 1.0
C      1  0.4443800000000  0.5036610000000  0.5621680000000 1.0
C      1  0.5718430000000  0.4634770000000  0.5495700000000 1.0
C      1  0.4467590000000  0.4393110000000  0.5112930000000 1.0
C      1  0.4731320000000  0.5554520000000  0.4435780000000 1.0
C      1  0.5111800000000  0.5704230000000  0.5123780000000 1.0
C      1  0.4780480000000  0.5580200000000  0.5453480000000 1.0
C      1  0.5507370000000  0.5119060000000  0.5861360000000 1.0
C      1  0.4758890000000  0.4682010000000  0.5611970000000 1.0
C      1  0.5268690000000  0.4445470000000  0.5564210000000 1.0
C      1  0.4888200000000  0.4295770000000  0.4876230000000 1.0
C      1  0.5219520000000  0.4419800000000  0.4546520000000 1.0
C      1  0.4492600000000  0.4880920000000  0.4138640000000 1.0
C      1  0.5241110000000  0.5318000000000  0.4388030000000 1.0
C      1  0.5200240000000  0.4784880000000  0.4862520000000 1.0
C      1  0.4933970000000  0.4969590000000  0.4782060000000 1.0
C      1  0.5241260000000  0.5109190000000  0.4833770000000 1.0
C      1  0.4815180000000  0.5271750000000  0.4828700000000 1.0
C      1  0.5306060000000  0.5236550000000  0.5129460000000 1.0
C      1  0.4799760000000  0.5215120000000  0.5137480000000 1.0
C      1  0.5066020000000  0.5030400000000  0.5217930000000 1.0
C      1  0.4758740000000  0.4890820000000  0.5166240000000 1.0
C      1  0.5184830000000  0.4728240000000  0.5171300000000 1.0
C      1  0.4693930000000  0.4763450000000  0.4870550000000 1.0
C      1  0.5610510000000  0.4805710000000  0.4882550000000 1.0
C      1  0.4435980000000  0.4897980000000  0.4713130000000 1.0
C      1  0.5672080000000  0.5065250000000  0.4798300000000 1.0
C      1  0.4422920000000  0.5194910000000  0.4836990000000 1.0
C      1  0.5733420000000  0.5215080000000  0.5023460000000 1.0
C      1  0.4389490000000  0.5194300000000  0.5117450000000 1.0
C      1  0.5564020000000  0.5102020000000  0.5286880000000 1.0
C      1  0.4327920000000  0.4934760000000  0.5201700000000 1.0
C      1  0.5577090000000  0.4805090000000  0.5163000000000 1.0
C      1  0.4266580000000  0.4784920000000  0.4976550000000 1.0
C      1  0.5632610000000  0.5131550000000  0.5613590000000 1.0
C      1  0.4552120000000  0.4798100000000  0.5417740000000 1.0
C      1  0.5425430000000  0.4558240000000  0.5341070000000 1.0
C      1  0.4653590000000  0.4450800000000  0.4870930000000 1.0
C      1  0.5422610000000  0.4588760000000  0.4700180000000 1.0
C      1  0.4367380000000  0.4868440000000  0.4386410000000 1.0
C      1  0.5447880000000  0.5201910000000  0.4582260000000 1.0
C      1  0.4574580000000  0.5441750000000  0.4658920000000 1.0
C      1  0.5346410000000  0.5549200000000  0.5129080000000 1.0
C      1  0.4577400000000  0.5411250000000  0.5299820000000 1.0
C      1  0.5571160000000  0.4720670000000  0.4437420000000 1.0
C      1  0.4206150000000  0.5132910000000  0.4453160000000 1.0
C      1  0.5571170000000  0.5495490000000  0.4668450000000 1.0
C      1  0.4498870000000  0.5681910000000  0.4863100000000 1.0
C      1  0.5515560000000  0.5585530000000  0.5385940000000 1.0
C      1  0.4428840000000  0.5279340000000  0.5562570000000 1.0
C      1  0.5793850000000  0.4867090000000  0.5546840000000 1.0
C      1  0.4428820000000  0.4504520000000  0.5331560000000 1.0
C      1  0.5501140000000  0.4318090000000  0.5136890000000 1.0
C      1  0.4484440000000  0.4414470000000  0.4614070000000 1.0
END
