TITL C-1154828-9214-231 -0.000692263508024453 125000 -353.950189387513 0 0 60 (C1) n - 1
REM
REM in /home/nfs/bkarasulu/CARBON/AIRSS/Generating-Clusters/AIREBO/Higher-Symm/Only-C60
REM
REM
REM
REM
REM
REM ./C.cell (28575a23ae977d3b5fae324c64b13b57)
REM
REM compiler GCC version 9.2.1 20190827 (Red Hat 9.2.1-1)
REM options -cpp -mtune=generic -march=x86-64 -g -O0 -fpre-include=/usr/include/finclude/math-vector-fortran.h
REM seed 231979763 -988359556 -1311246267 609431671 -929341230 539571945 1714345429 -722469618 59941035 1957967781 316041231 222365951 1975488741 654114457 2036970743 366710244 2036966578 -140329716 -1517071145 -2045581415 -2112453119 1643908925 852888601 1402540281 -809225868 246248987 -2025144706 -1346244826 -1246827051 -1762472377 1055395274 1022289318 -1626322202
REM
CELL 1.54180   50.00000   50.00000   50.00000   90.00000   90.00000   90.00000
LATT -1
SFAC C  
C      1  0.4271880000000  0.5003120000000  0.5180080000000 1.0
C      1  0.5198930000000  0.5029050000000  0.5713980000000 1.0
C      1  0.5536270000000  0.4872220000000  0.4862680000000 1.0
C      1  0.4857490000000  0.4951190000000  0.4336090000000 1.0
C      1  0.5591110000000  0.5026090000000  0.5169580000000 1.0
C      1  0.4888160000000  0.4993690000000  0.5618570000000 1.0
C      1  0.4333510000000  0.4930540000000  0.4853540000000 1.0
C      1  0.5178560000000  0.4993200000000  0.4264650000000 1.0
C      1  0.4652420000000  0.4488650000000  0.5138630000000 1.0
C      1  0.5173010000000  0.4483760000000  0.5335650000000 1.0
C      1  0.5393420000000  0.4561390000000  0.4872880000000 1.0
C      1  0.4881860000000  0.4575310000000  0.4694610000000 1.0
C      1  0.5390350000000  0.4469970000000  0.5160030000000 1.0
C      1  0.4896950000000  0.4587950000000  0.5291290000000 1.0
C      1  0.4644340000000  0.4513760000000  0.4869170000000 1.0
C      1  0.5168810000000  0.4488700000000  0.4667860000000 1.0
C      1  0.5588730000000  0.4808520000000  0.4532770000000 1.0
C      1  0.4569640000000  0.4801280000000  0.4337470000000 1.0
C      1  0.4382700000000  0.4826680000000  0.5369010000000 1.0
C      1  0.5377140000000  0.4833340000000  0.5608240000000 1.0
C      1  0.4371580000000  0.4833820000000  0.4529520000000 1.0
C      1  0.5361930000000  0.4793070000000  0.4355090000000 1.0
C      1  0.5585360000000  0.4833380000000  0.5402030000000 1.0
C      1  0.4576770000000  0.4862200000000  0.5577560000000 1.0
C      1  0.5251660000000  0.4531080000000  0.4405930000000 1.0
C      1  0.4411980000000  0.4626800000000  0.4772390000000 1.0
C      1  0.4749250000000  0.4622900000000  0.5579850000000 1.0
C      1  0.5624400000000  0.4566050000000  0.5299460000000 1.0
C      1  0.4744240000000  0.4572720000000  0.4394970000000 1.0
C      1  0.5673630000000  0.4548830000000  0.4680650000000 1.0
C      1  0.5261100000000  0.4566590000000  0.5597760000000 1.0
C      1  0.4409500000000  0.4554460000000  0.5273530000000 1.0
C      1  0.4349650000000  0.5251250000000  0.4881170000000 1.0
C      1  0.4904630000000  0.5297510000000  0.5720310000000 1.0
C      1  0.5680520000000  0.5342470000000  0.5183750000000 1.0
C      1  0.5202630000000  0.5301220000000  0.4288100000000 1.0
C      1  0.5722930000000  0.5469780000000  0.4928420000000 1.0
C      1  0.5214110000000  0.5337340000000  0.5748560000000 1.0
C      1  0.4286710000000  0.5310380000000  0.5177570000000 1.0
C      1  0.4884010000000  0.5262880000000  0.4271850000000 1.0
C      1  0.4877590000000  0.5261870000000  0.5322830000000 1.0
C      1  0.5300260000000  0.5184800000000  0.5125360000000 1.0
C      1  0.5055860000000  0.5350240000000  0.4719520000000 1.0
C      1  0.4635950000000  0.5528870000000  0.4903290000000 1.0
C      1  0.5159450000000  0.5371810000000  0.5305310000000 1.0
C      1  0.4658620000000  0.5456620000000  0.5163900000000 1.0
C      1  0.4834790000000  0.5519780000000  0.4679730000000 1.0
C      1  0.5417480000000  0.5156370000000  0.4837230000000 1.0
C      1  0.5326210000000  0.5456100000000  0.5513010000000 1.0
C      1  0.5537570000000  0.5398100000000  0.4718960000000 1.0
C      1  0.4704360000000  0.5430570000000  0.4420630000000 1.0
C      1  0.4429430000000  0.5480080000000  0.5384260000000 1.0
C      1  0.4667660000000  0.5392650000000  0.5554220000000 1.0
C      1  0.4454710000000  0.5409480000000  0.4647190000000 1.0
C      1  0.5286070000000  0.5397930000000  0.4548460000000 1.0
C      1  0.5594560000000  0.5479090000000  0.5420310000000 1.0
C      1  0.4889830000000  0.4919050000000  0.5302630000000 1.0
C      1  0.5051850000000  0.5022950000000  0.5055620000000 1.0
C      1  0.4983970000000  0.5079940000000  0.4797400000000 1.0
C      1  0.4891910000000  0.4883880000000  0.4634880000000 1.0
END
