TITL C-1154802-8274-432 9.27363099394368e-05 125000 -333.832415723428 0 0 60 (C1) n - 1
REM
REM in /home/nfs/bkarasulu/CARBON/AIRSS/Generating-Clusters/AIREBO/Higher-Symm/Only-C60
REM
REM
REM
REM
REM
REM ./C.cell (28575a23ae977d3b5fae324c64b13b57)
REM
REM compiler GCC version 9.2.1 20190827 (Red Hat 9.2.1-1)
REM options -cpp -mtune=generic -march=x86-64 -g -O0 -fpre-include=/usr/include/finclude/math-vector-fortran.h
REM seed 337496448 -538635998 1944938735 934037239 156889062 1681136199 -2029144121 1133628045 639764533 -1577887134 -814009505 -1127083260 -823656037 2083357909 147719280 2079276477 1789195730 -1807348471 -66271921 740432041 972547643 -1326611128 -1492983444 -1852733737 -1669496253 -1171183617 -587639546 -11953870 -2023185955 354593292 -1569293062 793729300 2063584280
REM
CELL 1.54180   50.00000   50.00000   50.00000   90.00000   90.00000   90.00000
LATT -1
SFAC C  
C      1  0.4798110000000  0.4957380000000  0.4256140000000 1.0
C      1  0.5118860000000  0.5059070000000  0.4044090000000 1.0
C      1  0.4811100000000  0.5054860000000  0.5762530000000 1.0
C      1  0.5205140000000  0.5105670000000  0.5778740000000 1.0
C      1  0.5040820000000  0.4773260000000  0.4158460000000 1.0
C      1  0.4941980000000  0.5232110000000  0.4242830000000 1.0
C      1  0.5019120000000  0.4833660000000  0.5806670000000 1.0
C      1  0.4967630000000  0.5311610000000  0.5843120000000 1.0
C      1  0.4364780000000  0.5367860000000  0.4956920000000 1.0
C      1  0.5741250000000  0.4685970000000  0.5017940000000 1.0
C      1  0.4311990000000  0.4652560000000  0.5037190000000 1.0
C      1  0.5676050000000  0.5302640000000  0.5062000000000 1.0
C      1  0.5275040000000  0.4294400000000  0.4959660000000 1.0
C      1  0.4793040000000  0.5733210000000  0.5026930000000 1.0
C      1  0.4736290000000  0.4285760000000  0.5024520000000 1.0
C      1  0.5335620000000  0.5738480000000  0.5040990000000 1.0
C      1  0.5081470000000  0.4434940000000  0.5415550000000 1.0
C      1  0.5011390000000  0.5509940000000  0.5436470000000 1.0
C      1  0.5082930000000  0.5546600000000  0.4675660000000 1.0
C      1  0.4932690000000  0.4456420000000  0.4617710000000 1.0
C      1  0.4366920000000  0.5025780000000  0.5365170000000 1.0
C      1  0.5520910000000  0.4892720000000  0.5397110000000 1.0
C      1  0.5566060000000  0.4955930000000  0.4534270000000 1.0
C      1  0.4385750000000  0.4948260000000  0.4620650000000 1.0
C      1  0.5232390000000  0.5025870000000  0.4544380000000 1.0
C      1  0.4644490000000  0.4910010000000  0.4472500000000 1.0
C      1  0.5196040000000  0.4960100000000  0.5471520000000 1.0
C      1  0.4668700000000  0.5043300000000  0.5482830000000 1.0
C      1  0.5053920000000  0.5274340000000  0.4521230000000 1.0
C      1  0.5051310000000  0.4744240000000  0.4480690000000 1.0
C      1  0.4943240000000  0.5178140000000  0.5406850000000 1.0
C      1  0.5082530000000  0.4651000000000  0.5586030000000 1.0
C      1  0.5557420000000  0.4663140000000  0.5238790000000 1.0
C      1  0.4517120000000  0.5284850000000  0.5204080000000 1.0
C      1  0.5482290000000  0.5317340000000  0.4848010000000 1.0
C      1  0.4505940000000  0.4682960000000  0.4796180000000 1.0
C      1  0.4739480000000  0.5503900000000  0.5255140000000 1.0
C      1  0.5297310000000  0.4496280000000  0.5197090000000 1.0
C      1  0.5333200000000  0.5564720000000  0.4810750000000 1.0
C      1  0.4703170000000  0.4433680000000  0.4777190000000 1.0
C      1  0.4698260000000  0.5004020000000  0.5144720000000 1.0
C      1  0.5198620000000  0.4990080000000  0.5132590000000 1.0
C      1  0.4735080000000  0.4933620000000  0.4813560000000 1.0
C      1  0.5342170000000  0.5026150000000  0.4855170000000 1.0
C      1  0.5043790000000  0.4714420000000  0.5134730000000 1.0
C      1  0.4967800000000  0.5311700000000  0.5092220000000 1.0
C      1  0.5023970000000  0.4789240000000  0.4816760000000 1.0
C      1  0.4858560000000  0.5240250000000  0.4797670000000 1.0
C      1  0.5203410000000  0.4430520000000  0.4732070000000 1.0
C      1  0.4828590000000  0.5637010000000  0.4769120000000 1.0
C      1  0.5251310000000  0.5609900000000  0.5276940000000 1.0
C      1  0.4833870000000  0.4401660000000  0.5267340000000 1.0
C      1  0.4336260000000  0.5211400000000  0.4679830000000 1.0
C      1  0.5650390000000  0.4780990000000  0.4766780000000 1.0
C      1  0.5562790000000  0.5159850000000  0.5294760000000 1.0
C      1  0.4416440000000  0.4750510000000  0.5267990000000 1.0
C      1  0.5344380000000  0.4703620000000  0.4747170000000 1.0
C      1  0.4599420000000  0.5418670000000  0.4729060000000 1.0
C      1  0.5278470000000  0.5297580000000  0.5230940000000 1.0
C      1  0.4732940000000  0.4695890000000  0.5276000000000 1.0
END
