TITL C-1154828-9214-75 -0.000547019798168102 125000 -338.957959595481 0 0 60 (C1) n - 1
REM
REM in /home/nfs/bkarasulu/CARBON/AIRSS/Generating-Clusters/AIREBO/Higher-Symm/Only-C60
REM
REM
REM
REM
REM
REM ./C.cell (28575a23ae977d3b5fae324c64b13b57)
REM
REM compiler GCC version 9.2.1 20190827 (Red Hat 9.2.1-1)
REM options -cpp -mtune=generic -march=x86-64 -g -O0 -fpre-include=/usr/include/finclude/math-vector-fortran.h
REM seed -860245654 877029805 2070445389 1137780110 -1245725593 -731293470 -551324624 -1339382406 1515550659 1195540874 -1703049936 -897241068 -1549534596 303164295 1101786352 862945506 -293269127 421204285 -1280121106 1829042518 121127932 888631729 -1685299157 146126367 -1098048580 973346310 957642398 -1734072786 1158249211 1750184292 -737859313 -942419757 -2033285191
REM
CELL 1.54180   50.00000   50.00000   50.00000   90.00000   90.00000   90.00000
LATT -1
SFAC C  
C      1  0.5043270000000  0.5495760000000  0.4515370000000 1.0
C      1  0.5040300000000  0.4385030000000  0.4443160000000 1.0
C      1  0.5639630000000  0.4923690000000  0.4540870000000 1.0
C      1  0.5506750000000  0.5174000000000  0.4454650000000 1.0
C      1  0.5030940000000  0.5262440000000  0.4347840000000 1.0
C      1  0.4995510000000  0.4628240000000  0.4296850000000 1.0
C      1  0.5182400000000  0.4834960000000  0.4451510000000 1.0
C      1  0.5256430000000  0.5100190000000  0.4345780000000 1.0
C      1  0.4517070000000  0.5243250000000  0.5288260000000 1.0
C      1  0.4534460000000  0.4771360000000  0.5601150000000 1.0
C      1  0.5315750000000  0.5673250000000  0.5455520000000 1.0
C      1  0.5247140000000  0.4356890000000  0.5296460000000 1.0
C      1  0.5017910000000  0.4832550000000  0.4729100000000 1.0
C      1  0.4926940000000  0.5119110000000  0.4836080000000 1.0
C      1  0.4786370000000  0.4826180000000  0.4403600000000 1.0
C      1  0.4791620000000  0.5108100000000  0.4406890000000 1.0
C      1  0.5193810000000  0.4469790000000  0.4722080000000 1.0
C      1  0.5262450000000  0.5533900000000  0.4702260000000 1.0
C      1  0.5418870000000  0.4764620000000  0.5091390000000 1.0
C      1  0.5398840000000  0.5258620000000  0.5160170000000 1.0
C      1  0.5502770000000  0.5111480000000  0.5424420000000 1.0
C      1  0.5538900000000  0.4847220000000  0.5394450000000 1.0
C      1  0.5025300000000  0.5827660000000  0.5821650000000 1.0
C      1  0.5079420000000  0.4551060000000  0.5711350000000 1.0
C      1  0.4678820000000  0.5238750000000  0.4680950000000 1.0
C      1  0.4711990000000  0.4707050000000  0.4687230000000 1.0
C      1  0.4750510000000  0.4204780000000  0.4753720000000 1.0
C      1  0.4833880000000  0.5692340000000  0.4873770000000 1.0
C      1  0.4534350000000  0.4583480000000  0.5373250000000 1.0
C      1  0.4574100000000  0.5508440000000  0.5432940000000 1.0
C      1  0.4200000000000  0.4656920000000  0.4690330000000 1.0
C      1  0.4167630000000  0.5237020000000  0.4663000000000 1.0
C      1  0.5036450000000  0.4373170000000  0.5489190000000 1.0
C      1  0.5056470000000  0.5698190000000  0.5588240000000 1.0
C      1  0.4888370000000  0.4482110000000  0.4871400000000 1.0
C      1  0.5139020000000  0.5654190000000  0.4989840000000 1.0
C      1  0.4856690000000  0.4174590000000  0.4495240000000 1.0
C      1  0.4792740000000  0.5530290000000  0.4656410000000 1.0
C      1  0.4446110000000  0.4797200000000  0.4801380000000 1.0
C      1  0.4421970000000  0.5126370000000  0.4782480000000 1.0
C      1  0.5452190000000  0.5425570000000  0.5451860000000 1.0
C      1  0.5451750000000  0.4545150000000  0.5326210000000 1.0
C      1  0.5401520000000  0.4699560000000  0.4644320000000 1.0
C      1  0.5480560000000  0.5351010000000  0.4684740000000 1.0
C      1  0.5552980000000  0.5205280000000  0.4915380000000 1.0
C      1  0.5576670000000  0.4891570000000  0.4863580000000 1.0
C      1  0.5112640000000  0.5167310000000  0.5102750000000 1.0
C      1  0.5124960000000  0.4850890000000  0.5049890000000 1.0
C      1  0.4790470000000  0.4421040000000  0.5358610000000 1.0
C      1  0.4849090000000  0.5597840000000  0.5427980000000 1.0
C      1  0.4976460000000  0.5437900000000  0.5180410000000 1.0
C      1  0.4847130000000  0.4679620000000  0.5145200000000 1.0
C      1  0.4426380000000  0.5062790000000  0.5097910000000 1.0
C      1  0.4497180000000  0.4748200000000  0.5110910000000 1.0
C      1  0.4982290000000  0.5123160000000  0.5669270000000 1.0
C      1  0.5020480000000  0.4822950000000  0.5673890000000 1.0
C      1  0.4805000000000  0.4872830000000  0.5421850000000 1.0
C      1  0.4826370000000  0.5203970000000  0.5377300000000 1.0
C      1  0.5316590000000  0.5801740000000  0.5197830000000 1.0
C      1  0.5167370000000  0.4327390000000  0.5029880000000 1.0
END
