TITL C-1154804-8633-436 0.00273312525747003 125000 -337.164762173958 0 0 60 (C1) n - 1
REM
REM in /home/nfs/bkarasulu/CARBON/AIRSS/Generating-Clusters/AIREBO/Higher-Symm/Only-C60
REM
REM
REM
REM
REM
REM ./C.cell (28575a23ae977d3b5fae324c64b13b57)
REM
REM compiler GCC version 9.2.1 20190827 (Red Hat 9.2.1-1)
REM options -cpp -mtune=generic -march=x86-64 -g -O0 -fpre-include=/usr/include/finclude/math-vector-fortran.h
REM seed 843245786 1564512426 754841904 733940612 -325218415 600001285 -1781411830 -1881346028 -1113953608 122539002 250052674 1878159198 -1635255113 2120583497 1278232712 -841991759 384559663 595944561 -1548846881 -1508652783 955717120 -1544901319 759600338 815606742 -1603619553 -70626563 1690421989 -56283687 559208759 -874700714 1357122686 783335226 981906977
REM
CELL 1.54180   50.00000   50.00000   50.00000   90.00000   90.00000   90.00000
LATT -1
SFAC C  
C      1  0.4994870000000  0.4852790000000  0.5344400000000 1.0
C      1  0.5052520000000  0.4693620000000  0.5072630000000 1.0
C      1  0.4986780000000  0.4744200000000  0.4760240000000 1.0
C      1  0.5068790000000  0.5012910000000  0.4583160000000 1.0
C      1  0.5053150000000  0.5305950000000  0.4730370000000 1.0
C      1  0.5121330000000  0.5295150000000  0.5053790000000 1.0
C      1  0.5054590000000  0.5163240000000  0.5360680000000 1.0
C      1  0.5267650000000  0.5410090000000  0.4410780000000 1.0
C      1  0.5182520000000  0.5744950000000  0.4848090000000 1.0
C      1  0.5237150000000  0.5462490000000  0.5553320000000 1.0
C      1  0.5335540000000  0.4918630000000  0.5729270000000 1.0
C      1  0.5372540000000  0.4372800000000  0.5399120000000 1.0
C      1  0.5289520000000  0.4364730000000  0.4773500000000 1.0
C      1  0.5287340000000  0.4818740000000  0.4314050000000 1.0
C      1  0.4760050000000  0.4754910000000  0.5544590000000 1.0
C      1  0.4712410000000  0.4395720000000  0.5167640000000 1.0
C      1  0.4783070000000  0.4513790000000  0.4666210000000 1.0
C      1  0.4778160000000  0.4957850000000  0.4415400000000 1.0
C      1  0.4781140000000  0.5435990000000  0.4612320000000 1.0
C      1  0.4771630000000  0.5599710000000  0.5097230000000 1.0
C      1  0.4784850000000  0.5289560000000  0.5509040000000 1.0
C      1  0.4586940000000  0.4572630000000  0.5363940000000 1.0
C      1  0.4594330000000  0.4451840000000  0.4912790000000 1.0
C      1  0.4603080000000  0.4732610000000  0.4528330000000 1.0
C      1  0.4605690000000  0.5204370000000  0.4501620000000 1.0
C      1  0.4621180000000  0.5543530000000  0.4854100000000 1.0
C      1  0.4627670000000  0.5458210000000  0.5309250000000 1.0
C      1  0.4603490000000  0.5033150000000  0.5549700000000 1.0
C      1  0.5061310000000  0.4410660000000  0.4557280000000 1.0
C      1  0.5020200000000  0.4836550000000  0.4220840000000 1.0
C      1  0.5000890000000  0.5487960000000  0.4367060000000 1.0
C      1  0.5044220000000  0.5684770000000  0.5084280000000 1.0
C      1  0.4984100000000  0.5478770000000  0.5663760000000 1.0
C      1  0.5086960000000  0.4720730000000  0.5632920000000 1.0
C      1  0.4964020000000  0.4254260000000  0.5162600000000 1.0
C      1  0.5513180000000  0.5318790000000  0.5127770000000 1.0
C      1  0.5560220000000  0.5129860000000  0.5339400000000 1.0
C      1  0.5596260000000  0.4813120000000  0.5305920000000 1.0
C      1  0.5537990000000  0.4597780000000  0.5044310000000 1.0
C      1  0.5558770000000  0.4750320000000  0.4737330000000 1.0
C      1  0.5577390000000  0.5083090000000  0.4669650000000 1.0
C      1  0.5547060000000  0.5317360000000  0.4849640000000 1.0
C      1  0.4393070000000  0.4664560000000  0.4942400000000 1.0
C      1  0.4391740000000  0.4816790000000  0.4704240000000 1.0
C      1  0.4354490000000  0.5136720000000  0.4708980000000 1.0
C      1  0.4387320000000  0.5380460000000  0.4921140000000 1.0
C      1  0.4401850000000  0.5297550000000  0.5201770000000 1.0
C      1  0.4392650000000  0.5028450000000  0.5342890000000 1.0
C      1  0.4384040000000  0.4748890000000  0.5227560000000 1.0
C      1  0.5357790000000  0.5101400000000  0.4446640000000 1.0
C      1  0.5335360000000  0.5494890000000  0.4714160000000 1.0
C      1  0.5268810000000  0.5519680000000  0.5252720000000 1.0
C      1  0.5338420000000  0.5163390000000  0.5548080000000 1.0
C      1  0.5406060000000  0.4657970000000  0.5526110000000 1.0
C      1  0.5244120000000  0.4432880000000  0.5090080000000 1.0
C      1  0.5344730000000  0.4595450000000  0.4522910000000 1.0
C      1  0.4841280000000  0.5026660000000  0.5015100000000 1.0
C      1  0.4635140000000  0.5072220000000  0.4889740000000 1.0
C      1  0.5462450000000  0.4923000000000  0.5013300000000 1.0
C      1  0.5178190000000  0.4980000000000  0.5015770000000 1.0
END
