TITL C-1154827-9204-665 0.000236205131529444 125000 -307.507833949622 0 0 60 (C1) n - 1
REM
REM in /home/nfs/bkarasulu/CARBON/AIRSS/Generating-Clusters/AIREBO/Higher-Symm/Only-C60
REM
REM
REM
REM
REM
REM ./C.cell (28575a23ae977d3b5fae324c64b13b57)
REM
REM compiler GCC version 9.2.1 20190827 (Red Hat 9.2.1-1)
REM options -cpp -mtune=generic -march=x86-64 -g -O0 -fpre-include=/usr/include/finclude/math-vector-fortran.h
REM seed -1068985253 1287635020 -311785154 -735891925 1433227819 1531843046 -1800101020 -609710810 -1400236113 2087123805 -966681591 -2120718576 20831777 -1886257447 -704048584 -928152296 984680113 1699517670 -132490210 -243491808 1506682671 1488653799 1850526889 -266049669 1050393662 558327081 1389334816 851630783 -1430961911 1097717018 -464074239 1477330222 1546260293
REM
CELL 1.54180   50.00000   50.00000   50.00000   90.00000   90.00000   90.00000
LATT -1
SFAC C  
C      1  0.4871160000000  0.5456130000000  0.5217770000000 1.0
C      1  0.5395250000000  0.5237200000000  0.5213030000000 1.0
C      1  0.5368990000000  0.4680750000000  0.5245340000000 1.0
C      1  0.4827950000000  0.4535790000000  0.5234260000000 1.0
C      1  0.4508540000000  0.5022060000000  0.5212590000000 1.0
C      1  0.5116950000000  0.4722630000000  0.5020860000000 1.0
C      1  0.4785240000000  0.4802240000000  0.5027150000000 1.0
C      1  0.4747210000000  0.5143430000000  0.5002710000000 1.0
C      1  0.5061450000000  0.5280520000000  0.4997260000000 1.0
C      1  0.5279390000000  0.5019380000000  0.4978290000000 1.0
C      1  0.4922250000000  0.5302940000000  0.4587820000000 1.0
C      1  0.5208770000000  0.5177590000000  0.4558830000000 1.0
C      1  0.5194640000000  0.4886510000000  0.4519840000000 1.0
C      1  0.4916180000000  0.4793220000000  0.4553690000000 1.0
C      1  0.4732550000000  0.5052610000000  0.4568950000000 1.0
C      1  0.4332360000000  0.4473570000000  0.4998380000000 1.0
C      1  0.4312780000000  0.5474630000000  0.4991630000000 1.0
C      1  0.5251710000000  0.5791740000000  0.5008500000000 1.0
C      1  0.5777510000000  0.5010460000000  0.4831250000000 1.0
C      1  0.5266080000000  0.4181030000000  0.5049320000000 1.0
C      1  0.5123620000000  0.5576950000000  0.4575830000000 1.0
C      1  0.5584450000000  0.5097250000000  0.4447890000000 1.0
C      1  0.5331040000000  0.4451130000000  0.4654530000000 1.0
C      1  0.4598860000000  0.4680610000000  0.4607690000000 1.0
C      1  0.4525070000000  0.5322520000000  0.4558250000000 1.0
C      1  0.4379180000000  0.4740780000000  0.5332510000000 1.0
C      1  0.4558300000000  0.5495380000000  0.5341110000000 1.0
C      1  0.5344550000000  0.5549250000000  0.5338210000000 1.0
C      1  0.5638640000000  0.4835100000000  0.5370370000000 1.0
C      1  0.5036620000000  0.4324580000000  0.5370230000000 1.0
C      1  0.4516980000000  0.4529260000000  0.5350730000000 1.0
C      1  0.4397880000000  0.5299790000000  0.5343220000000 1.0
C      1  0.5109500000000  0.5641120000000  0.5353780000000 1.0
C      1  0.5654630000000  0.5085740000000  0.5345740000000 1.0
C      1  0.5279820000000  0.4392880000000  0.5388330000000 1.0
C      1  0.5185520000000  0.4845580000000  0.5468370000000 1.0
C      1  0.4910940000000  0.4773380000000  0.5451300000000 1.0
C      1  0.4756960000000  0.5006280000000  0.5435940000000 1.0
C      1  0.4928470000000  0.5228890000000  0.5448270000000 1.0
C      1  0.5195730000000  0.5129440000000  0.5452550000000 1.0
C      1  0.5098770000000  0.4410510000000  0.4885750000000 1.0
C      1  0.4478250000000  0.4732430000000  0.4898080000000 1.0
C      1  0.4612870000000  0.5426740000000  0.4869870000000 1.0
C      1  0.5282890000000  0.5502070000000  0.4864230000000 1.0
C      1  0.5471330000000  0.4919300000000  0.4714850000000 1.0
C      1  0.5020100000000  0.5888920000000  0.5041860000000 1.0
C      1  0.5817100000000  0.5252770000000  0.4903860000000 1.0
C      1  0.5535840000000  0.4248100000000  0.5078180000000 1.0
C      1  0.4482750000000  0.4265960000000  0.5002690000000 1.0
C      1  0.4162600000000  0.5268660000000  0.5006220000000 1.0
C      1  0.5527690000000  0.4609480000000  0.4765380000000 1.0
C      1  0.4860060000000  0.4481650000000  0.4654210000000 1.0
C      1  0.4407630000000  0.5027770000000  0.4639340000000 1.0
C      1  0.4807470000000  0.5613260000000  0.4662480000000 1.0
C      1  0.5470370000000  0.5313730000000  0.4652110000000 1.0
C      1  0.5585090000000  0.5411080000000  0.4990940000000 1.0
C      1  0.5578310000000  0.4529090000000  0.5032540000000 1.0
C      1  0.4772480000000  0.4346590000000  0.4957210000000 1.0
C      1  0.4312710000000  0.5006530000000  0.4935000000000 1.0
C      1  0.4781980000000  0.5695060000000  0.4992890000000 1.0
END
