TITL C-1154816-9297-178 0.000533601038949064 125000 -332.730461007807 0 0 60 (C1) n - 1
REM
REM in /home/nfs/bkarasulu/CARBON/AIRSS/Generating-Clusters/AIREBO/Higher-Symm/Only-C60
REM
REM
REM
REM
REM
REM ./C.cell (28575a23ae977d3b5fae324c64b13b57)
REM
REM compiler GCC version 9.2.1 20190827 (Red Hat 9.2.1-1)
REM options -cpp -mtune=generic -march=x86-64 -g -O0 -fpre-include=/usr/include/finclude/math-vector-fortran.h
REM seed 102939716 367666820 693310543 1409069425 297889129 1224187926 180355040 1436661959 788438231 -411647731 -1557858067 -1738033864 -1568868317 -1762802594 -1731905259 818870229 496030418 -1347304532 1112757568 -25632091 1396312108 20483063 -1920904209 -617695989 1816316310 -384810358 1402014673 -1764635518 -509082124 1439503246 -965546821 905930587 951767972
REM
CELL 1.54180   50.00000   50.00000   50.00000   90.00000   90.00000   90.00000
LATT -1
SFAC C  
C      1  0.4892490000000  0.4568050000000  0.4351150000000 1.0
C      1  0.5507220000000  0.4602520000000  0.4654190000000 1.0
C      1  0.5428740000000  0.4643630000000  0.5406990000000 1.0
C      1  0.4675980000000  0.4642900000000  0.5571990000000 1.0
C      1  0.4409100000000  0.4541320000000  0.4944040000000 1.0
C      1  0.4858620000000  0.5064890000000  0.5616160000000 1.0
C      1  0.4391190000000  0.5057470000000  0.5109400000000 1.0
C      1  0.4599430000000  0.4929430000000  0.4403340000000 1.0
C      1  0.5345930000000  0.5064330000000  0.4442440000000 1.0
C      1  0.5533010000000  0.5080000000000  0.5194790000000 1.0
C      1  0.4645020000000  0.5539360000000  0.4371800000000 1.0
C      1  0.5025030000000  0.5455210000000  0.4700140000000 1.0
C      1  0.5244270000000  0.5666290000000  0.5368080000000 1.0
C      1  0.5233420000000  0.5406690000000  0.5781510000000 1.0
C      1  0.4651200000000  0.5581020000000  0.5074530000000 1.0
C      1  0.5098930000000  0.6290320000000  0.4999400000000 1.0
C      1  0.5383710000000  0.6293980000000  0.5002380000000 1.0
C      1  0.5474550000000  0.6061350000000  0.5140750000000 1.0
C      1  0.5244040000000  0.5901780000000  0.5229100000000 1.0
C      1  0.5011260000000  0.6055470000000  0.5135970000000 1.0
C      1  0.5505960000000  0.5241680000000  0.5406550000000 1.0
C      1  0.4577980000000  0.5146410000000  0.5635630000000 1.0
C      1  0.4396780000000  0.5218730000000  0.4879700000000 1.0
C      1  0.4806400000000  0.5065090000000  0.4258310000000 1.0
C      1  0.5484760000000  0.5241630000000  0.4608620000000 1.0
C      1  0.4784520000000  0.5338730000000  0.4514600000000 1.0
C      1  0.5280520000000  0.5428300000000  0.4764230000000 1.0
C      1  0.5245760000000  0.5385730000000  0.5498070000000 1.0
C      1  0.4782710000000  0.5412570000000  0.5235480000000 1.0
C      1  0.4431280000000  0.5496520000000  0.4926100000000 1.0
C      1  0.4753390000000  0.4880060000000  0.4822050000000 1.0
C      1  0.5044690000000  0.4898750000000  0.4713940000000 1.0
C      1  0.5238290000000  0.4932300000000  0.4961180000000 1.0
C      1  0.5062110000000  0.4940570000000  0.5222540000000 1.0
C      1  0.4756380000000  0.4898530000000  0.5136870000000 1.0
C      1  0.5536470000000  0.4807400000000  0.5202180000000 1.0
C      1  0.4903020000000  0.4791350000000  0.5620430000000 1.0
C      1  0.4371310000000  0.4782440000000  0.5113000000000 1.0
C      1  0.4651620000000  0.4658960000000  0.4449850000000 1.0
C      1  0.5391210000000  0.4792450000000  0.4460060000000 1.0
C      1  0.4804010000000  0.4370530000000  0.5158890000000 1.0
C      1  0.4848000000000  0.4381320000000  0.4842400000000 1.0
C      1  0.5176540000000  0.4367950000000  0.4755300000000 1.0
C      1  0.5301190000000  0.4401380000000  0.5063530000000 1.0
C      1  0.5077220000000  0.4408360000000  0.5298740000000 1.0
C      1  0.4963740000000  0.4094040000000  0.4702090000000 1.0
C      1  0.5471870000000  0.4315750000000  0.4595000000000 1.0
C      1  0.5469760000000  0.4359550000000  0.5355850000000 1.0
C      1  0.5127510000000  0.4183500000000  0.5501660000000 1.0
C      1  0.4478110000000  0.4305810000000  0.5086590000000 1.0
C      1  0.4636650000000  0.4590920000000  0.4748130000000 1.0
C      1  0.5121690000000  0.4625890000000  0.4551730000000 1.0
C      1  0.5433410000000  0.4667510000000  0.4936360000000 1.0
C      1  0.5127160000000  0.4705550000000  0.5430850000000 1.0
C      1  0.4629450000000  0.4626550000000  0.5266780000000 1.0
C      1  0.5007790000000  0.5225300000000  0.5388320000000 1.0
C      1  0.4617150000000  0.5151890000000  0.5309810000000 1.0
C      1  0.4574240000000  0.5102370000000  0.4674190000000 1.0
C      1  0.5045340000000  0.5123760000000  0.4477200000000 1.0
C      1  0.5430860000000  0.5187870000000  0.4929040000000 1.0
END
