TITL C-1154829-9094-524 0.00243312873759389 125000 -346.480662584599 0 0 60 (C1) n - 1
REM
REM in /home/nfs/bkarasulu/CARBON/AIRSS/Generating-Clusters/AIREBO/Higher-Symm/Only-C60
REM
REM
REM
REM
REM
REM ./C.cell (28575a23ae977d3b5fae324c64b13b57)
REM
REM compiler GCC version 9.2.1 20190827 (Red Hat 9.2.1-1)
REM options -cpp -mtune=generic -march=x86-64 -g -O0 -fpre-include=/usr/include/finclude/math-vector-fortran.h
REM seed -962656990 -2109051652 -531180893 -945267303 -1864965979 -2108014356 -704362466 -1548092926 -225117706 593724655 1597176266 1020985361 -385595949 -920742094 -214823377 -656539253 -277896865 -1375617088 -1234190693 1288373445 557768216 -110566798 -871293625 2010167247 1298461537 -813310060 -1845846289 317093930 -1898378462 -752528819 -759821206 -1901082712 -2116220857
REM
CELL 1.54180   50.00000   50.00000   50.00000   90.00000   90.00000   90.00000
LATT -1
SFAC C  
C      1  0.5298010000000  0.4260220000000  0.5394960000000 1.0
C      1  0.4750930000000  0.4262430000000  0.5345410000000 1.0
C      1  0.4544650000000  0.4264140000000  0.4829100000000 1.0
C      1  0.5005290000000  0.4300720000000  0.4531510000000 1.0
C      1  0.5452420000000  0.4325400000000  0.4868090000000 1.0
C      1  0.5301810000000  0.4281490000000  0.4636980000000 1.0
C      1  0.4739880000000  0.4221270000000  0.4586000000000 1.0
C      1  0.4554270000000  0.4230330000000  0.5105820000000 1.0
C      1  0.4998850000000  0.4187380000000  0.5461170000000 1.0
C      1  0.5465940000000  0.4252740000000  0.5171250000000 1.0
C      1  0.5365180000000  0.4497290000000  0.5587760000000 1.0
C      1  0.4651540000000  0.4533430000000  0.5470780000000 1.0
C      1  0.4365520000000  0.4507520000000  0.4746740000000 1.0
C      1  0.5017610000000  0.4568090000000  0.4359880000000 1.0
C      1  0.5612040000000  0.4593340000000  0.4855580000000 1.0
C      1  0.5319840000000  0.4527860000000  0.4447940000000 1.0
C      1  0.4546240000000  0.4445410000000  0.4475730000000 1.0
C      1  0.4429580000000  0.4476870000000  0.5252740000000 1.0
C      1  0.5058380000000  0.4415580000000  0.5671370000000 1.0
C      1  0.5656500000000  0.4502660000000  0.5159210000000 1.0
C      1  0.4625860000000  0.5264030000000  0.4567030000000 1.0
C      1  0.5317060000000  0.5118300000000  0.4571510000000 1.0
C      1  0.5577070000000  0.5072610000000  0.5336810000000 1.0
C      1  0.5039500000000  0.5244950000000  0.5554230000000 1.0
C      1  0.4489500000000  0.5088560000000  0.5111980000000 1.0
C      1  0.4789640000000  0.5133060000000  0.5457250000000 1.0
C      1  0.5344200000000  0.5096910000000  0.5550720000000 1.0
C      1  0.5511930000000  0.5181050000000  0.4783280000000 1.0
C      1  0.4871770000000  0.5150040000000  0.4459690000000 1.0
C      1  0.4433950000000  0.5118140000000  0.4805690000000 1.0
C      1  0.4492370000000  0.4805010000000  0.4835290000000 1.0
C      1  0.4910500000000  0.4849970000000  0.4488540000000 1.0
C      1  0.5438800000000  0.4868030000000  0.4856010000000 1.0
C      1  0.5318330000000  0.4796060000000  0.5455590000000 1.0
C      1  0.4769520000000  0.4833860000000  0.5425140000000 1.0
C      1  0.4549770000000  0.4771550000000  0.5168720000000 1.0
C      1  0.5023880000000  0.4688030000000  0.5533880000000 1.0
C      1  0.5507780000000  0.4795290000000  0.5180910000000 1.0
C      1  0.5234510000000  0.4808650000000  0.4590190000000 1.0
C      1  0.4648470000000  0.4716980000000  0.4569100000000 1.0
C      1  0.4752840000000  0.5824680000000  0.4561300000000 1.0
C      1  0.5339400000000  0.5766030000000  0.4603560000000 1.0
C      1  0.5374210000000  0.5651980000000  0.5098460000000 1.0
C      1  0.4964560000000  0.5815800000000  0.5431770000000 1.0
C      1  0.4584470000000  0.5769990000000  0.5054840000000 1.0
C      1  0.4705380000000  0.5812410000000  0.5349410000000 1.0
C      1  0.5226000000000  0.5697870000000  0.5301270000000 1.0
C      1  0.5500830000000  0.5704360000000  0.4816300000000 1.0
C      1  0.5018420000000  0.5799210000000  0.4576270000000 1.0
C      1  0.4543520000000  0.5812670000000  0.4795070000000 1.0
C      1  0.5116170000000  0.5281860000000  0.4473800000000 1.0
C      1  0.5707170000000  0.5276400000000  0.5207110000000 1.0
C      1  0.4612550000000  0.5262870000000  0.5287090000000 1.0
C      1  0.5290120000000  0.5348610000000  0.5762110000000 1.0
C      1  0.4297230000000  0.5348550000000  0.4606520000000 1.0
C      1  0.4569500000000  0.5532610000000  0.5269380000000 1.0
C      1  0.5167070000000  0.5550760000000  0.4440580000000 1.0
C      1  0.5561960000000  0.5408770000000  0.4966690000000 1.0
C      1  0.4521310000000  0.5586910000000  0.4551130000000 1.0
C      1  0.5118380000000  0.5571750000000  0.5587780000000 1.0
END
