TITL C-1154823-9327-677 0.00113380419599041 125000 -356.796933366769 0 0 60 (C1) n - 1
REM
REM in /home/nfs/bkarasulu/CARBON/AIRSS/Generating-Clusters/AIREBO/Higher-Symm/Only-C60
REM
REM
REM
REM
REM
REM ./C.cell (28575a23ae977d3b5fae324c64b13b57)
REM
REM compiler GCC version 9.2.1 20190827 (Red Hat 9.2.1-1)
REM options -cpp -mtune=generic -march=x86-64 -g -O0 -fpre-include=/usr/include/finclude/math-vector-fortran.h
REM seed -1237414284 -1264408569 -1926968714 -1640471387 -822308229 1234129210 -353399431 -1711857110 744966320 264280116 -2024759704 1540322344 -955662008 430978746 -1658597746 233726471 587262544 -767490406 -1203512318 -437929536 -1615447926 -640508619 374005312 600053161 -323627642 -84203374 657033382 -1836749793 688930183 260488804 792825422 -181521139 471384358
REM
CELL 1.54180   50.00000   50.00000   50.00000   90.00000   90.00000   90.00000
LATT -1
SFAC C  
C      1  0.5621320000000  0.4674860000000  0.4607140000000 1.0
C      1  0.5622630000000  0.5268630000000  0.4577170000000 1.0
C      1  0.5604340000000  0.5487810000000  0.5116790000000 1.0
C      1  0.5596370000000  0.5020580000000  0.5512910000000 1.0
C      1  0.5598650000000  0.4533580000000  0.5207780000000 1.0
C      1  0.5350950000000  0.5014810000000  0.5637140000000 1.0
C      1  0.5354200000000  0.4417040000000  0.5240800000000 1.0
C      1  0.5379980000000  0.4605020000000  0.4493870000000 1.0
C      1  0.5384150000000  0.5352200000000  0.4472430000000 1.0
C      1  0.5363390000000  0.5611730000000  0.5149320000000 1.0
C      1  0.4608660000000  0.4295330000000  0.5203330000000 1.0
C      1  0.4643000000000  0.4600110000000  0.4560280000000 1.0
C      1  0.4667300000000  0.5348640000000  0.4497590000000 1.0
C      1  0.4637820000000  0.5607070000000  0.5198330000000 1.0
C      1  0.4622070000000  0.5069210000000  0.5589160000000 1.0
C      1  0.5102290000000  0.4868960000000  0.5738130000000 1.0
C      1  0.5149380000000  0.4247620000000  0.5102310000000 1.0
C      1  0.5138340000000  0.4667210000000  0.4316810000000 1.0
C      1  0.5154310000000  0.5551380000000  0.4464160000000 1.0
C      1  0.5145510000000  0.5673140000000  0.5346490000000 1.0
C      1  0.5016880000000  0.5069920000000  0.4731650000000 1.0
C      1  0.4972960000000  0.5286840000000  0.4976500000000 1.0
C      1  0.5072100000000  0.5101790000000  0.5220540000000 1.0
C      1  0.4985060000000  0.4793860000000  0.5167730000000 1.0
C      1  0.5096350000000  0.4797720000000  0.4869660000000 1.0
C      1  0.4342040000000  0.5469910000000  0.5210450000000 1.0
C      1  0.4339590000000  0.4935760000000  0.5510570000000 1.0
C      1  0.4416500000000  0.4492170000000  0.5132660000000 1.0
C      1  0.4339790000000  0.4726240000000  0.4570050000000 1.0
C      1  0.4388560000000  0.5325000000000  0.4632770000000 1.0
C      1  0.5121250000000  0.4934610000000  0.4233030000000 1.0
C      1  0.5117260000000  0.5713800000000  0.4690050000000 1.0
C      1  0.5134550000000  0.5497700000000  0.5564180000000 1.0
C      1  0.5062090000000  0.4606960000000  0.5644340000000 1.0
C      1  0.5155740000000  0.4268080000000  0.4824040000000 1.0
C      1  0.4385490000000  0.4595090000000  0.4872240000000 1.0
C      1  0.4366120000000  0.5014040000000  0.4596280000000 1.0
C      1  0.4404320000000  0.5413290000000  0.4899040000000 1.0
C      1  0.4338090000000  0.5223400000000  0.5353290000000 1.0
C      1  0.4404300000000  0.4722860000000  0.5329460000000 1.0
C      1  0.5705310000000  0.4767400000000  0.5098140000000 1.0
C      1  0.5713380000000  0.4837170000000  0.4817190000000 1.0
C      1  0.5715250000000  0.5125640000000  0.4799010000000 1.0
C      1  0.5706940000000  0.5232890000000  0.5067060000000 1.0
C      1  0.5701310000000  0.5011990000000  0.5252650000000 1.0
C      1  0.5124800000000  0.5154980000000  0.4446790000000 1.0
C      1  0.5096480000000  0.5578240000000  0.4963030000000 1.0
C      1  0.5106140000000  0.5196340000000  0.5512400000000 1.0
C      1  0.5070340000000  0.4556190000000  0.5341300000000 1.0
C      1  0.5128460000000  0.4544730000000  0.4694580000000 1.0
C      1  0.4676800000000  0.4795710000000  0.5130500000000 1.0
C      1  0.4635990000000  0.4806080000000  0.4821160000000 1.0
C      1  0.4696180000000  0.5085190000000  0.4706930000000 1.0
C      1  0.4675360000000  0.5304020000000  0.5067620000000 1.0
C      1  0.4612560000000  0.5069960000000  0.5255240000000 1.0
C      1  0.4889970000000  0.4547530000000  0.4462780000000 1.0
C      1  0.4905350000000  0.5400230000000  0.4374970000000 1.0
C      1  0.4885590000000  0.5724970000000  0.5196520000000 1.0
C      1  0.4867380000000  0.5061840000000  0.5699500000000 1.0
C      1  0.4882720000000  0.4294920000000  0.5232140000000 1.0
END
