TITL C-1154808-8168-701 225.309134960869 125000 -305.078279110294 0 0 60 (C2) n - 1
REM
REM in /home/nfs/bkarasulu/CARBON/AIRSS/Generating-Clusters/AIREBO/Higher-Symm/Only-C60
REM
REM
REM
REM
REM
REM ./C.cell (28575a23ae977d3b5fae324c64b13b57)
REM
REM compiler GCC version 9.2.1 20190827 (Red Hat 9.2.1-1)
REM options -cpp -mtune=generic -march=x86-64 -g -O0 -fpre-include=/usr/include/finclude/math-vector-fortran.h
REM seed 1121380529 76393975 2020182348 -2087437853 -64350195 2046052656 488130914 374404942 -1361778016 48339943 -926859924 -383018463 -1458775334 499850018 108600150 687473921 -1786864268 -1335366888 -1097220901 2095926022 -216794275 -1881447267 -1504348357 724785154 2048950848 488382947 92419779 1804984601 1883248718 -1280888748 -393576671 248218736 -3335339
REM
CELL 1.54180   50.00000   50.00000   50.00000   90.00000   90.00000   90.00000
LATT -1
SFAC C  
C      1  0.4895720000000  0.4876840000000  0.4412010000000 1.0
C      1  0.4867690000000  0.5215890000000  0.4378280000000 1.0
C      1  0.5235460000000  0.4894250000000  0.4416350000000 1.0
C      1  0.4895710000000  0.5123160000000  0.5587990000000 1.0
C      1  0.4867680000000  0.4784110000000  0.5621720000000 1.0
C      1  0.5235450000000  0.5105750000000  0.5583660000000 1.0
C      1  0.5482610000000  0.5130590000000  0.4415740000000 1.0
C      1  0.4907560000000  0.4536910000000  0.4417220000000 1.0
C      1  0.4577600000000  0.5386530000000  0.4443100000000 1.0
C      1  0.5482600000000  0.4869410000000  0.5584270000000 1.0
C      1  0.4907560000000  0.5463090000000  0.5582780000000 1.0
C      1  0.4577590000000  0.4613460000000  0.5556890000000 1.0
C      1  0.5450610000000  0.4665400000000  0.4550050000000 1.0
C      1  0.4571560000000  0.4822060000000  0.4499850000000 1.0
C      1  0.5015400000000  0.5491280000000  0.4516080000000 1.0
C      1  0.5450600000000  0.5334600000000  0.5449950000000 1.0
C      1  0.4571560000000  0.5177940000000  0.5500150000000 1.0
C      1  0.5015400000000  0.4508720000000  0.5483920000000 1.0
C      1  0.4924100000000  0.4328340000000  0.4920440000000 1.0
C      1  0.4412120000000  0.5395860000000  0.4984330000000 1.0
C      1  0.5635020000000  0.5303610000000  0.4915860000000 1.0
C      1  0.4924090000000  0.5671660000000  0.5079560000000 1.0
C      1  0.4412120000000  0.4604140000000  0.5015670000000 1.0
C      1  0.5635020000000  0.4696390000000  0.5084140000000 1.0
C      1  0.4895190000000  0.5702440000000  0.4738340000000 1.0
C      1  0.5687860000000  0.4729760000000  0.4747010000000 1.0
C      1  0.4459580000000  0.4572120000000  0.4677210000000 1.0
C      1  0.4895190000000  0.4297560000000  0.5261660000000 1.0
C      1  0.5687860000000  0.5270240000000  0.5253000000000 1.0
C      1  0.4459580000000  0.5427880000000  0.5322780000000 1.0
C      1  0.4953350000000  0.5272920000000  0.5292140000000 1.0
C      1  0.5293960000000  0.4929560000000  0.5311330000000 1.0
C      1  0.4746280000000  0.4780490000000  0.5313490000000 1.0
C      1  0.4953350000000  0.4727080000000  0.4707860000000 1.0
C      1  0.5293960000000  0.5070440000000  0.4688670000000 1.0
C      1  0.4746290000000  0.5219510000000  0.4686510000000 1.0
C      1  0.4574310000000  0.4975780000000  0.5156430000000 1.0
C      1  0.5194230000000  0.5364640000000  0.5145610000000 1.0
C      1  0.5203830000000  0.4676090000000  0.5173710000000 1.0
C      1  0.4574310000000  0.5024220000000  0.4843570000000 1.0
C      1  0.5194230000000  0.4635360000000  0.4854390000000 1.0
C      1  0.5203830000000  0.5323910000000  0.4826290000000 1.0
C      1  0.5413630000000  0.5130980000000  0.5107880000000 1.0
C      1  0.4893280000000  0.4604860000000  0.5116030000000 1.0
C      1  0.4694670000000  0.5275270000000  0.5130180000000 1.0
C      1  0.5413630000000  0.4869030000000  0.4892130000000 1.0
C      1  0.4893290000000  0.5395140000000  0.4883970000000 1.0
C      1  0.4694670000000  0.4724730000000  0.4869820000000 1.0
C      1  0.5019430000000  0.5662680000000  0.5345910000000 1.0
C      1  0.5587630000000  0.4662580000000  0.5352890000000 1.0
C      1  0.4374940000000  0.4637760000000  0.5285260000000 1.0
C      1  0.5019430000000  0.4337320000000  0.4654090000000 1.0
C      1  0.5587630000000  0.5337430000000  0.4647120000000 1.0
C      1  0.4374940000000  0.5362240000000  0.4714730000000 1.0
C      1  0.5318190000000  0.5592010000000  0.5363720000000 1.0
C      1  0.5316320000000  0.4528620000000  0.5452430000000 1.0
C      1  0.4397870000000  0.4931500000000  0.5438090000000 1.0
C      1  0.5318190000000  0.4407990000000  0.4636280000000 1.0
C      1  0.5316320000000  0.5471380000000  0.4547580000000 1.0
C      1  0.4397880000000  0.5068500000000  0.4561910000000 1.0
END
