TITL C-1154830-9999-415 -0.000931244185011535 125000 -310.332434483214 0 0 60 (C1) n - 1
REM
REM in /home/nfs/bkarasulu/CARBON/AIRSS/Generating-Clusters/AIREBO/Higher-Symm/Only-C60
REM
REM
REM
REM
REM
REM ./C.cell (28575a23ae977d3b5fae324c64b13b57)
REM
REM compiler GCC version 9.2.1 20190827 (Red Hat 9.2.1-1)
REM options -cpp -mtune=generic -march=x86-64 -g -O0 -fpre-include=/usr/include/finclude/math-vector-fortran.h
REM seed 1106888828 -1887557218 1486756683 -1397479989 -1203728144 2079250044 -1791770663 -354052267 -37833016 -830946294 1122035169 -290047306 1910555506 -622816570 -1233491533 -946043034 2106638823 -1080863509 656849952 91457991 1172433513 377323997 1359385504 -1776019870 -914554744 960709291 1520254456 -204049154 -305301883 -265848531 -1005397225 -759100143 -374621883
REM
CELL 1.54180   50.00000   50.00000   50.00000   90.00000   90.00000   90.00000
LATT -1
SFAC C  
C      1  0.5055410000000  0.4191980000000  0.4562410000000 1.0
C      1  0.4768300000000  0.4554420000000  0.4479580000000 1.0
C      1  0.4402890000000  0.5173060000000  0.4277090000000 1.0
C      1  0.4888750000000  0.5401330000000  0.4321200000000 1.0
C      1  0.5016500000000  0.5758070000000  0.4548290000000 1.0
C      1  0.5423270000000  0.5409580000000  0.4279380000000 1.0
C      1  0.5349740000000  0.4913210000000  0.4308360000000 1.0
C      1  0.5447200000000  0.5373620000000  0.5270790000000 1.0
C      1  0.5615350000000  0.4910490000000  0.5373820000000 1.0
C      1  0.5340040000000  0.4391790000000  0.5453030000000 1.0
C      1  0.4771800000000  0.4302590000000  0.5431750000000 1.0
C      1  0.4314230000000  0.5056860000000  0.5360690000000 1.0
C      1  0.4413210000000  0.5441850000000  0.5371150000000 1.0
C      1  0.5039330000000  0.5573830000000  0.5440130000000 1.0
C      1  0.4652280000000  0.4730470000000  0.5170620000000 1.0
C      1  0.4594260000000  0.5035350000000  0.5029270000000 1.0
C      1  0.4772740000000  0.5318660000000  0.5090210000000 1.0
C      1  0.5099520000000  0.5247680000000  0.5064230000000 1.0
C      1  0.5341200000000  0.5055910000000  0.5017370000000 1.0
C      1  0.5245110000000  0.4766150000000  0.5115570000000 1.0
C      1  0.4955180000000  0.4588930000000  0.5101330000000 1.0
C      1  0.5216900000000  0.5598690000000  0.5159380000000 1.0
C      1  0.5635980000000  0.5132050000000  0.5123460000000 1.0
C      1  0.5467020000000  0.4649600000000  0.5300470000000 1.0
C      1  0.5082720000000  0.4302280000000  0.5318700000000 1.0
C      1  0.4510210000000  0.4531570000000  0.4961870000000 1.0
C      1  0.4377010000000  0.5279720000000  0.5123410000000 1.0
C      1  0.4776340000000  0.5574880000000  0.5313840000000 1.0
C      1  0.4416690000000  0.5477740000000  0.4880190000000 1.0
C      1  0.4749410000000  0.5809030000000  0.5115540000000 1.0
C      1  0.5441260000000  0.5580290000000  0.4930440000000 1.0
C      1  0.5767200000000  0.5150470000000  0.4839520000000 1.0
C      1  0.5440550000000  0.4404850000000  0.5066090000000 1.0
C      1  0.4811580000000  0.4182980000000  0.5145840000000 1.0
C      1  0.4362590000000  0.4682000000000  0.4786270000000 1.0
C      1  0.4945720000000  0.5578010000000  0.4954260000000 1.0
C      1  0.5408720000000  0.5327240000000  0.4823930000000 1.0
C      1  0.5671240000000  0.5115590000000  0.4611270000000 1.0
C      1  0.5150460000000  0.4331370000000  0.4995550000000 1.0
C      1  0.4708930000000  0.4328800000000  0.4925000000000 1.0
C      1  0.4521210000000  0.4949030000000  0.4708580000000 1.0
C      1  0.4578020000000  0.5414230000000  0.4670410000000 1.0
C      1  0.4958500000000  0.4433780000000  0.4734270000000 1.0
C      1  0.4780460000000  0.4814980000000  0.4626410000000 1.0
C      1  0.4484300000000  0.5187260000000  0.4536920000000 1.0
C      1  0.4911120000000  0.5472860000000  0.4632700000000 1.0
C      1  0.5137790000000  0.5220570000000  0.4668260000000 1.0
C      1  0.5397710000000  0.5187850000000  0.4451300000000 1.0
C      1  0.5150950000000  0.4684180000000  0.4689890000000 1.0
C      1  0.5394770000000  0.5290950000000  0.5540810000000 1.0
C      1  0.5546250000000  0.5056540000000  0.5600860000000 1.0
C      1  0.5466320000000  0.4260960000000  0.5639840000000 1.0
C      1  0.4627370000000  0.4529100000000  0.5443540000000 1.0
C      1  0.4536390000000  0.4917350000000  0.5429950000000 1.0
C      1  0.4948670000000  0.5138660000000  0.5620080000000 1.0
C      1  0.5125910000000  0.5357470000000  0.5603550000000 1.0
C      1  0.5019330000000  0.4958210000000  0.4802040000000 1.0
C      1  0.5302850000000  0.4699210000000  0.4469090000000 1.0
C      1  0.4971990000000  0.4967260000000  0.5139440000000 1.0
C      1  0.4823290000000  0.4999100000000  0.5411820000000 1.0
END
