TITL C-1154801-8518-125 -0.00167586280245179 125000 -339.227225049703 0 0 60 (C1) n - 1
REM
REM in /home/nfs/bkarasulu/CARBON/AIRSS/Generating-Clusters/AIREBO/Higher-Symm/Only-C60
REM
REM
REM
REM
REM
REM ./C.cell (28575a23ae977d3b5fae324c64b13b57)
REM
REM compiler GCC version 9.2.1 20190827 (Red Hat 9.2.1-1)
REM options -cpp -mtune=generic -march=x86-64 -g -O0 -fpre-include=/usr/include/finclude/math-vector-fortran.h
REM seed 1360107089 -880620976 -1738051187 1702241534 -1775847216 1710831955 -2084807090 -2023993454 6195221 2054228411 -1615765234 261811415 1117747747 2071817099 1190671981 -1210347209 62204661 448026520 681281259 -1053782005 478319460 308127271 -1739785491 -636888101 -2045367522 -328073358 874446944 -2142442162 -2145160561 1141411260 911723660 1137760778 728301884
REM
CELL 1.54180   50.00000   50.00000   50.00000   90.00000   90.00000   90.00000
LATT -1
SFAC C  
C      1  0.4839480000000  0.5762090000000  0.5080030000000 1.0
C      1  0.4834510000000  0.4510540000000  0.5430960000000 1.0
C      1  0.4877200000000  0.4722520000000  0.4309680000000 1.0
C      1  0.5135280000000  0.5739060000000  0.5100680000000 1.0
C      1  0.5152330000000  0.4561680000000  0.5470670000000 1.0
C      1  0.5173720000000  0.4692460000000  0.4322730000000 1.0
C      1  0.4746030000000  0.5579470000000  0.4866190000000 1.0
C      1  0.4762650000000  0.4604860000000  0.4560600000000 1.0
C      1  0.4850550000000  0.4801380000000  0.5568440000000 1.0
C      1  0.5231900000000  0.5563620000000  0.4878640000000 1.0
C      1  0.5244460000000  0.4597430000000  0.4594550000000 1.0
C      1  0.5177050000000  0.4845490000000  0.5626780000000 1.0
C      1  0.4833780000000  0.4797140000000  0.4799300000000 1.0
C      1  0.4829970000000  0.5281600000000  0.4935640000000 1.0
C      1  0.4811780000000  0.4924920000000  0.5269520000000 1.0
C      1  0.5143400000000  0.4798590000000  0.4815450000000 1.0
C      1  0.5134470000000  0.5275950000000  0.4950970000000 1.0
C      1  0.5120400000000  0.4920880000000  0.5299920000000 1.0
C      1  0.4715130000000  0.4726090000000  0.5057790000000 1.0
C      1  0.4721480000000  0.5189910000000  0.5196240000000 1.0
C      1  0.4737490000000  0.5075280000000  0.4744620000000 1.0
C      1  0.5237060000000  0.4737220000000  0.5095160000000 1.0
C      1  0.5216700000000  0.5193810000000  0.5228000000000 1.0
C      1  0.5246490000000  0.5074730000000  0.4767170000000 1.0
C      1  0.4592250000000  0.4428290000000  0.5127050000000 1.0
C      1  0.4624600000000  0.5136170000000  0.4461000000000 1.0
C      1  0.4634570000000  0.5416030000000  0.5394920000000 1.0
C      1  0.5377350000000  0.4464340000000  0.5157660000000 1.0
C      1  0.5357580000000  0.5133430000000  0.4481730000000 1.0
C      1  0.5409810000000  0.5398040000000  0.5359270000000 1.0
C      1  0.4583670000000  0.4446860000000  0.4804190000000 1.0
C      1  0.4625960000000  0.5137300000000  0.5579620000000 1.0
C      1  0.4582160000000  0.5419380000000  0.4614920000000 1.0
C      1  0.5416940000000  0.4445190000000  0.4844900000000 1.0
C      1  0.5432670000000  0.5150760000000  0.5561860000000 1.0
C      1  0.5399080000000  0.5420930000000  0.4617890000000 1.0
C      1  0.5137280000000  0.4285800000000  0.5308230000000 1.0
C      1  0.5157910000000  0.5003660000000  0.4288110000000 1.0
C      1  0.5193540000000  0.5624970000000  0.5377690000000 1.0
C      1  0.4819230000000  0.4238080000000  0.5285570000000 1.0
C      1  0.4831390000000  0.5025490000000  0.4267320000000 1.0
C      1  0.4859310000000  0.5630030000000  0.5365810000000 1.0
C      1  0.5146700000000  0.4298250000000  0.4691780000000 1.0
C      1  0.5193260000000  0.5141710000000  0.5755140000000 1.0
C      1  0.5135490000000  0.5628060000000  0.4561030000000 1.0
C      1  0.4857560000000  0.4298950000000  0.4667300000000 1.0
C      1  0.4879980000000  0.5085380000000  0.5740850000000 1.0
C      1  0.4846340000000  0.5629840000000  0.4555100000000 1.0
C      1  0.5571280000000  0.4907620000000  0.4605230000000 1.0
C      1  0.5618710000000  0.5439060000000  0.5123790000000 1.0
C      1  0.5572810000000  0.4691500000000  0.5318660000000 1.0
C      1  0.4414300000000  0.4904380000000  0.4567150000000 1.0
C      1  0.4413030000000  0.5434940000000  0.5137560000000 1.0
C      1  0.4485240000000  0.4698670000000  0.5305470000000 1.0
C      1  0.5586560000000  0.4914990000000  0.5486410000000 1.0
C      1  0.5615470000000  0.5454710000000  0.4874530000000 1.0
C      1  0.5615690000000  0.4685270000000  0.4708940000000 1.0
C      1  0.4473840000000  0.4907710000000  0.5482200000000 1.0
C      1  0.4381350000000  0.5421290000000  0.4889470000000 1.0
C      1  0.4383790000000  0.4676210000000  0.4661900000000 1.0
END
