TITL C-1154828-9214-2 0.00147833637522315 125000 -338.403768613047 0 0 60 (C1) n - 1
REM
REM in /home/nfs/bkarasulu/CARBON/AIRSS/Generating-Clusters/AIREBO/Higher-Symm/Only-C60
REM
REM
REM
REM
REM
REM ./C.cell (28575a23ae977d3b5fae324c64b13b57)
REM
REM compiler GCC version 9.2.1 20190827 (Red Hat 9.2.1-1)
REM options -cpp -mtune=generic -march=x86-64 -g -O0 -fpre-include=/usr/include/finclude/math-vector-fortran.h
REM seed -242171571 -1393250702 1702430585 982408370 -740232933 1603609375 -1401874896 -70770926 -1082658114 1609888670 1232547971 -122751472 1237081107 -1361065523 402605583 -311278977 212534446 -2069325857 396778162 1084687749 1919988295 -1496968465 -138346326 109738068 1951320453 -1546767221 2036252513 694431751 -1889447722 -1437089587 -720502216 675155182 1871110497
REM
CELL 1.54180   50.00000   50.00000   50.00000   90.00000   90.00000   90.00000
LATT -1
SFAC C  
C      1  0.4953840000000  0.5316120000000  0.5672260000000 1.0
C      1  0.5593170000000  0.4970120000000  0.5197330000000 1.0
C      1  0.5238440000000  0.5640390000000  0.5047430000000 1.0
C      1  0.4976070000000  0.5258570000000  0.4390690000000 1.0
C      1  0.5037750000000  0.4757090000000  0.4355900000000 1.0
C      1  0.5055930000000  0.4806980000000  0.5578880000000 1.0
C      1  0.4390060000000  0.5025040000000  0.4737690000000 1.0
C      1  0.5640880000000  0.4995770000000  0.4784020000000 1.0
C      1  0.4369970000000  0.4965460000000  0.5245860000000 1.0
C      1  0.4732950000000  0.5616300000000  0.4970100000000 1.0
C      1  0.5186990000000  0.4393810000000  0.5004900000000 1.0
C      1  0.4781590000000  0.4355590000000  0.5001460000000 1.0
C      1  0.5602500000000  0.5250930000000  0.5009110000000 1.0
C      1  0.5332920000000  0.4956200000000  0.5663230000000 1.0
C      1  0.4962570000000  0.5599420000000  0.5224230000000 1.0
C      1  0.4391720000000  0.5209980000000  0.5010600000000 1.0
C      1  0.4423900000000  0.4776220000000  0.4975880000000 1.0
C      1  0.5644000000000  0.4715620000000  0.4977500000000 1.0
C      1  0.4790400000000  0.4981710000000  0.4390090000000 1.0
C      1  0.4802990000000  0.5026030000000  0.5585650000000 1.0
C      1  0.5225060000000  0.5024530000000  0.4425220000000 1.0
C      1  0.5016140000000  0.5612030000000  0.4792540000000 1.0
C      1  0.4988130000000  0.4328520000000  0.5271030000000 1.0
C      1  0.4991920000000  0.4386020000000  0.4733430000000 1.0
C      1  0.5656600000000  0.5479800000000  0.5253380000000 1.0
C      1  0.5215300000000  0.5632330000000  0.5444090000000 1.0
C      1  0.5415370000000  0.5218460000000  0.5613540000000 1.0
C      1  0.4340350000000  0.5419200000000  0.4747520000000 1.0
C      1  0.5618060000000  0.4491840000000  0.4741750000000 1.0
C      1  0.4387170000000  0.4569040000000  0.5238680000000 1.0
C      1  0.4757510000000  0.5660240000000  0.4576030000000 1.0
C      1  0.5223910000000  0.4321640000000  0.4497150000000 1.0
C      1  0.4764000000000  0.4391720000000  0.5503880000000 1.0
C      1  0.4582690000000  0.5243990000000  0.4337330000000 1.0
C      1  0.5434070000000  0.4771010000000  0.4376380000000 1.0
C      1  0.4551170000000  0.4802140000000  0.5665540000000 1.0
C      1  0.5213820000000  0.5416010000000  0.5630410000000 1.0
C      1  0.5465180000000  0.5683750000000  0.5269620000000 1.0
C      1  0.5605290000000  0.5228390000000  0.5406310000000 1.0
C      1  0.4764700000000  0.5495010000000  0.4346950000000 1.0
C      1  0.4791130000000  0.4631160000000  0.5640980000000 1.0
C      1  0.5254870000000  0.4526580000000  0.4306340000000 1.0
C      1  0.4503380000000  0.5650720000000  0.4751130000000 1.0
C      1  0.4594040000000  0.4384090000000  0.5261380000000 1.0
C      1  0.5386640000000  0.4338900000000  0.4749170000000 1.0
C      1  0.4348930000000  0.5235850000000  0.4497650000000 1.0
C      1  0.4339790000000  0.4759640000000  0.5483140000000 1.0
C      1  0.5620140000000  0.4742950000000  0.4581380000000 1.0
C      1  0.4776570000000  0.5402900000000  0.5430680000000 1.0
C      1  0.5358770000000  0.4661120000000  0.5108390000000 1.0
C      1  0.5135500000000  0.5350420000000  0.4635200000000 1.0
C      1  0.4601340000000  0.5136110000000  0.5342220000000 1.0
C      1  0.4678850000000  0.5346660000000  0.5109210000000 1.0
C      1  0.5153240000000  0.4582990000000  0.5354280000000 1.0
C      1  0.5357870000000  0.5124120000000  0.4722050000000 1.0
C      1  0.4627600000000  0.4858430000000  0.4644170000000 1.0
C      1  0.5421740000000  0.4775340000000  0.5421830000000 1.0
C      1  0.5374060000000  0.5442900000000  0.4846500000000 1.0
C      1  0.4716950000000  0.4638350000000  0.4871750000000 1.0
C      1  0.4833530000000  0.4617720000000  0.4548990000000 1.0
END
