TITL C-1154804-8633-289 -0.000305846802833782 125000 -336.980621538261 0 0 60 (C1) n - 1
REM
REM in /home/nfs/bkarasulu/CARBON/AIRSS/Generating-Clusters/AIREBO/Higher-Symm/Only-C60
REM
REM
REM
REM
REM
REM ./C.cell (28575a23ae977d3b5fae324c64b13b57)
REM
REM compiler GCC version 9.2.1 20190827 (Red Hat 9.2.1-1)
REM options -cpp -mtune=generic -march=x86-64 -g -O0 -fpre-include=/usr/include/finclude/math-vector-fortran.h
REM seed -803232266 61044703 -1160609673 1188817191 -2101497311 -1501072865 -499238248 1836255243 -794909028 -38184468 -237733994 -1850981150 -81876187 -1051284957 1878944662 1692689842 -643227296 -1960033363 1151541689 1973165446 833908143 735725144 279037273 -2036757881 -1375600672 10436540 1074331807 1554753035 -222157482 -285358258 1465432595 -1520529599 1226300031
REM
CELL 1.54180   50.00000   50.00000   50.00000   90.00000   90.00000   90.00000
LATT -1
SFAC C  
C      1  0.5239300000000  0.4932680000000  0.4835930000000 1.0
C      1  0.5154550000000  0.5011830000000  0.5335390000000 1.0
C      1  0.4744330000000  0.4996220000000  0.4918910000000 1.0
C      1  0.4538710000000  0.4682450000000  0.4636300000000 1.0
C      1  0.5658730000000  0.4712020000000  0.4699140000000 1.0
C      1  0.4844590000000  0.4664710000000  0.5689240000000 1.0
C      1  0.4348160000000  0.5290530000000  0.4865040000000 1.0
C      1  0.5414050000000  0.5312990000000  0.4489070000000 1.0
C      1  0.5193680000000  0.5323220000000  0.5582670000000 1.0
C      1  0.5603780000000  0.4885240000000  0.4490050000000 1.0
C      1  0.5135910000000  0.4741670000000  0.5675840000000 1.0
C      1  0.4341630000000  0.4804410000000  0.4786220000000 1.0
C      1  0.5085490000000  0.4829060000000  0.4597880000000 1.0
C      1  0.5266140000000  0.4725760000000  0.5192930000000 1.0
C      1  0.4747000000000  0.4736540000000  0.5138390000000 1.0
C      1  0.5205860000000  0.5653550000000  0.4970170000000 1.0
C      1  0.4793470000000  0.5692480000000  0.5227940000000 1.0
C      1  0.4739580000000  0.5717260000000  0.4714220000000 1.0
C      1  0.4850610000000  0.5302360000000  0.5254240000000 1.0
C      1  0.4933730000000  0.5444130000000  0.4670490000000 1.0
C      1  0.5290860000000  0.5267200000000  0.4866590000000 1.0
C      1  0.5314760000000  0.4831230000000  0.4359470000000 1.0
C      1  0.5269540000000  0.4585090000000  0.5472700000000 1.0
C      1  0.4417650000000  0.4805480000000  0.5088210000000 1.0
C      1  0.4511390000000  0.5145480000000  0.5116710000000 1.0
C      1  0.5206310000000  0.5151650000000  0.4394680000000 1.0
C      1  0.5359330000000  0.5273110000000  0.5324420000000 1.0
C      1  0.4723120000000  0.5100840000000  0.4430000000000 1.0
C      1  0.5718060000000  0.4977380000000  0.5026240000000 1.0
C      1  0.4633980000000  0.4898670000000  0.5648960000000 1.0
C      1  0.5483610000000  0.4771690000000  0.4965700000000 1.0
C      1  0.4864500000000  0.4847380000000  0.5403130000000 1.0
C      1  0.4786020000000  0.4874060000000  0.4616690000000 1.0
C      1  0.4587270000000  0.4266200000000  0.5304740000000 1.0
C      1  0.5165820000000  0.4337590000000  0.4672040000000 1.0
C      1  0.5071980000000  0.4189740000000  0.5212950000000 1.0
C      1  0.5538090000000  0.5249720000000  0.5067770000000 1.0
C      1  0.4611190000000  0.5150260000000  0.5441750000000 1.0
C      1  0.4953540000000  0.5256740000000  0.4437380000000 1.0
C      1  0.5063440000000  0.5752300000000  0.4609890000000 1.0
C      1  0.5359190000000  0.5584750000000  0.5188440000000 1.0
C      1  0.4562830000000  0.5474650000000  0.5198390000000 1.0
C      1  0.5320080000000  0.5545870000000  0.4678970000000 1.0
C      1  0.4949920000000  0.5536540000000  0.5482100000000 1.0
C      1  0.4523910000000  0.5480180000000  0.4695170000000 1.0
C      1  0.4879560000000  0.5212440000000  0.5641200000000 1.0
C      1  0.4481740000000  0.5233020000000  0.4496260000000 1.0
C      1  0.5757510000000  0.5215190000000  0.4809330000000 1.0
C      1  0.5147830000000  0.5022420000000  0.5733770000000 1.0
C      1  0.4263380000000  0.5059510000000  0.4680400000000 1.0
C      1  0.5645480000000  0.5164410000000  0.4551490000000 1.0
C      1  0.5196840000000  0.4541460000000  0.4499020000000 1.0
C      1  0.5242820000000  0.4302560000000  0.5419120000000 1.0
C      1  0.4513000000000  0.4500940000000  0.5211960000000 1.0
C      1  0.4809170000000  0.4106380000000  0.5281530000000 1.0
C      1  0.5036100000000  0.5017590000000  0.5045950000000 1.0
C      1  0.5018100000000  0.4588360000000  0.5057500000000 1.0
C      1  0.5087500000000  0.4327890000000  0.4944950000000 1.0
C      1  0.4971680000000  0.5323050000000  0.4953000000000 1.0
C      1  0.4937510000000  0.5726280000000  0.4987830000000 1.0
END
