TITL C-1154816-9297-99 -0.000760369592754795 125000 -343.508282924459 0 0 60 (C1) n - 1
REM
REM in /home/nfs/bkarasulu/CARBON/AIRSS/Generating-Clusters/AIREBO/Higher-Symm/Only-C60
REM
REM
REM
REM
REM
REM ./C.cell (28575a23ae977d3b5fae324c64b13b57)
REM
REM compiler GCC version 9.2.1 20190827 (Red Hat 9.2.1-1)
REM options -cpp -mtune=generic -march=x86-64 -g -O0 -fpre-include=/usr/include/finclude/math-vector-fortran.h
REM seed -1124115794 -1830865372 -1691581386 -1358407191 -769616630 -1961661076 256817229 622698265 905469772 -1881066509 1913504796 1633317692 1540662669 -1437512469 -299647356 417572733 -1565321000 1565984476 -1748884275 -1481621897 1933923496 1889899970 1867593657 698229299 464075555 -1299166711 372071805 -1135942861 550191283 -455914774 -830330316 -709181795 659043574
REM
CELL 1.54180   50.00000   50.00000   50.00000   90.00000   90.00000   90.00000
LATT -1
SFAC C  
C      1  0.5202460000000  0.4561460000000  0.4641660000000 1.0
C      1  0.4481330000000  0.4741370000000  0.4546020000000 1.0
C      1  0.4509780000000  0.5340600000000  0.4530010000000 1.0
C      1  0.5123730000000  0.5485320000000  0.4595080000000 1.0
C      1  0.5471840000000  0.5040750000000  0.4439070000000 1.0
C      1  0.4471650000000  0.4584510000000  0.4912150000000 1.0
C      1  0.4419340000000  0.5486590000000  0.4887960000000 1.0
C      1  0.5324670000000  0.5640680000000  0.5070300000000 1.0
C      1  0.5732830000000  0.4952220000000  0.4849900000000 1.0
C      1  0.5214260000000  0.4355060000000  0.5057470000000 1.0
C      1  0.4329730000000  0.4487480000000  0.4618210000000 1.0
C      1  0.4276620000000  0.5524140000000  0.4581570000000 1.0
C      1  0.5525250000000  0.5830250000000  0.5108990000000 1.0
C      1  0.5746040000000  0.4967140000000  0.4519780000000 1.0
C      1  0.5318100000000  0.4292500000000  0.4739810000000 1.0
C      1  0.4687270000000  0.5076410000000  0.5745660000000 1.0
C      1  0.4985510000000  0.5146270000000  0.5721160000000 1.0
C      1  0.5152580000000  0.4941850000000  0.5873920000000 1.0
C      1  0.5040200000000  0.4749190000000  0.5663730000000 1.0
C      1  0.4778490000000  0.4832500000000  0.5586590000000 1.0
C      1  0.4761640000000  0.5156490000000  0.4482780000000 1.0
C      1  0.5058280000000  0.5267340000000  0.4410610000000 1.0
C      1  0.5204500000000  0.5022480000000  0.4373700000000 1.0
C      1  0.5039930000000  0.4793680000000  0.4505880000000 1.0
C      1  0.4717850000000  0.4847060000000  0.4449130000000 1.0
C      1  0.5685750000000  0.5172260000000  0.5070020000000 1.0
C      1  0.5617290000000  0.4433610000000  0.5346300000000 1.0
C      1  0.4556230000000  0.4370320000000  0.5350570000000 1.0
C      1  0.4334240000000  0.5307350000000  0.5134400000000 1.0
C      1  0.5026100000000  0.5713730000000  0.5209560000000 1.0
C      1  0.4910940000000  0.5200050000000  0.4775390000000 1.0
C      1  0.5185850000000  0.5106630000000  0.4835060000000 1.0
C      1  0.5188020000000  0.4879850000000  0.5033550000000 1.0
C      1  0.4937330000000  0.4793260000000  0.4830240000000 1.0
C      1  0.4742590000000  0.5016220000000  0.4989300000000 1.0
C      1  0.4527280000000  0.5305170000000  0.5341920000000 1.0
C      1  0.5173460000000  0.5459630000000  0.5316360000000 1.0
C      1  0.5556950000000  0.5077930000000  0.5292290000000 1.0
C      1  0.5337930000000  0.4476870000000  0.5327190000000 1.0
C      1  0.4518990000000  0.4606600000000  0.5219670000000 1.0
C      1  0.4917620000000  0.4338290000000  0.5058340000000 1.0
C      1  0.4355600000000  0.4886600000000  0.4814340000000 1.0
C      1  0.4677070000000  0.5640550000000  0.4907630000000 1.0
C      1  0.5359820000000  0.5463190000000  0.4793660000000 1.0
C      1  0.5649260000000  0.4683080000000  0.4950450000000 1.0
C      1  0.4873090000000  0.5528370000000  0.4755330000000 1.0
C      1  0.5471890000000  0.5160870000000  0.4732500000000 1.0
C      1  0.5350950000000  0.4639530000000  0.4930340000000 1.0
C      1  0.4785720000000  0.4539200000000  0.4913590000000 1.0
C      1  0.4515130000000  0.5163680000000  0.4809910000000 1.0
C      1  0.5073030000000  0.5201320000000  0.5419130000000 1.0
C      1  0.5261000000000  0.4969920000000  0.5309800000000 1.0
C      1  0.5221140000000  0.4700380000000  0.5452110000000 1.0
C      1  0.4693080000000  0.4845090000000  0.5278980000000 1.0
C      1  0.4755320000000  0.5158860000000  0.5360250000000 1.0
C      1  0.4206490000000  0.5075450000000  0.5047360000000 1.0
C      1  0.4779380000000  0.5792120000000  0.5117910000000 1.0
C      1  0.5646880000000  0.5426610000000  0.4972220000000 1.0
C      1  0.5772730000000  0.4532170000000  0.5138910000000 1.0
C      1  0.4761960000000  0.4211880000000  0.5254330000000 1.0
END
