TITL C-1154802-8274-250 -0.12632796410804 125000 -329.450241619193 0 0 60 (C1) n - 1
REM
REM in /home/nfs/bkarasulu/CARBON/AIRSS/Generating-Clusters/AIREBO/Higher-Symm/Only-C60
REM
REM
REM
REM
REM
REM ./C.cell (28575a23ae977d3b5fae324c64b13b57)
REM
REM compiler GCC version 9.2.1 20190827 (Red Hat 9.2.1-1)
REM options -cpp -mtune=generic -march=x86-64 -g -O0 -fpre-include=/usr/include/finclude/math-vector-fortran.h
REM seed 1631016753 -1438823721 1821446287 -737639673 -696449845 -508341670 -1832648180 2034765966 -1557048612 -360557368 -1918630931 -354849575 -584790350 -1565052261 3430407 -1105310480 -412622012 2097079518 -1979456599 1009553791 -879059470 -428460609 -1654129712 -1224704254 -948144226 -1918120855 -2065242157 -205168439 -2086686432 1183837412 1492864783 756012056 1869713265
REM
CELL 1.54180   50.00000   50.00000   50.00000   90.00000   90.00000   90.00000
LATT -1
SFAC C  
C      1  0.5717640000000  0.4597560000000  0.5142390000000 1.0
C      1  0.4510770000000  0.5052250000000  0.5628220000000 1.0
C      1  0.4282970000000  0.5066360000000  0.5168670000000 1.0
C      1  0.5742430000000  0.4785620000000  0.4904090000000 1.0
C      1  0.5092990000000  0.5548260000000  0.5153590000000 1.0
C      1  0.5229870000000  0.4891880000000  0.5625890000000 1.0
C      1  0.5125560000000  0.4632350000000  0.5627370000000 1.0
C      1  0.4477790000000  0.5265420000000  0.5204580000000 1.0
C      1  0.4605470000000  0.4446680000000  0.5332880000000 1.0
C      1  0.5672580000000  0.5071390000000  0.4974120000000 1.0
C      1  0.5490130000000  0.5038520000000  0.4602400000000 1.0
C      1  0.5421750000000  0.4765100000000  0.5139960000000 1.0
C      1  0.4866240000000  0.4790290000000  0.5160290000000 1.0
C      1  0.5283210000000  0.5532990000000  0.4943670000000 1.0
C      1  0.5111740000000  0.4615710000000  0.4390790000000 1.0
C      1  0.4780720000000  0.5819530000000  0.4888300000000 1.0
C      1  0.5201220000000  0.4419540000000  0.5779870000000 1.0
C      1  0.4712750000000  0.4844770000000  0.5655800000000 1.0
C      1  0.5641990000000  0.5525510000000  0.5256310000000 1.0
C      1  0.4287280000000  0.4992240000000  0.4609360000000 1.0
C      1  0.5573450000000  0.5571430000000  0.4985470000000 1.0
C      1  0.4609850000000  0.5622320000000  0.5325860000000 1.0
C      1  0.4674870000000  0.4878220000000  0.4959180000000 1.0
C      1  0.4403440000000  0.4797780000000  0.4774820000000 1.0
C      1  0.5235670000000  0.5624430000000  0.5643140000000 1.0
C      1  0.5170680000000  0.5408740000000  0.5447760000000 1.0
C      1  0.5047750000000  0.4418040000000  0.4989670000000 1.0
C      1  0.4892050000000  0.5067340000000  0.5747510000000 1.0
C      1  0.4740260000000  0.5522750000000  0.4166410000000 1.0
C      1  0.5082590000000  0.5078120000000  0.4843530000000 1.0
C      1  0.4590200000000  0.5345230000000  0.5489890000000 1.0
C      1  0.4298370000000  0.4801600000000  0.5067270000000 1.0
C      1  0.4990390000000  0.4232420000000  0.4809600000000 1.0
C      1  0.4856640000000  0.4635400000000  0.5462880000000 1.0
C      1  0.4608230000000  0.5281590000000  0.4199450000000 1.0
C      1  0.5175010000000  0.5069330000000  0.5427980000000 1.0
C      1  0.5306600000000  0.4606000000000  0.4198970000000 1.0
C      1  0.5490060000000  0.4799450000000  0.4745570000000 1.0
C      1  0.5515680000000  0.5079550000000  0.5220700000000 1.0
C      1  0.5368500000000  0.5116970000000  0.4373880000000 1.0
C      1  0.4659990000000  0.5341500000000  0.5008420000000 1.0
C      1  0.5111600000000  0.4823100000000  0.4620010000000 1.0
C      1  0.4450170000000  0.4530150000000  0.4632220000000 1.0
C      1  0.5002450000000  0.5549740000000  0.4243850000000 1.0
C      1  0.5231500000000  0.5314990000000  0.4728660000000 1.0
C      1  0.4967170000000  0.5072190000000  0.4461570000000 1.0
C      1  0.4448660000000  0.4616830000000  0.5204430000000 1.0
C      1  0.4778810000000  0.5132680000000  0.4877230000000 1.0
C      1  0.5143810000000  0.5346180000000  0.4419280000000 1.0
C      1  0.5037860000000  0.4140570000000  0.5401740000000 1.0
C      1  0.4884670000000  0.5291600000000  0.5589720000000 1.0
C      1  0.5569250000000  0.5304590000000  0.4784340000000 1.0
C      1  0.4713290000000  0.5093320000000  0.4371410000000 1.0
C      1  0.5220700000000  0.4653530000000  0.4893810000000 1.0
C      1  0.4809120000000  0.5609010000000  0.5070460000000 1.0
C      1  0.5143700000000  0.4954310000000  0.5143910000000 1.0
C      1  0.5485540000000  0.5312350000000  0.5362680000000 1.0
C      1  0.4935160000000  0.4365190000000  0.5271800000000 1.0
C      1  0.4627990000000  0.4445820000000  0.4448900000000 1.0
C      1  0.4893200000000  0.4443670000000  0.4397450000000 1.0
END
