TITL C-1154802-8274-148 -0.00181242360052986 125000 -349.577623268548 0 0 60 (C1) n - 1
REM
REM in /home/nfs/bkarasulu/CARBON/AIRSS/Generating-Clusters/AIREBO/Higher-Symm/Only-C60
REM
REM
REM
REM
REM
REM ./C.cell (28575a23ae977d3b5fae324c64b13b57)
REM
REM compiler GCC version 9.2.1 20190827 (Red Hat 9.2.1-1)
REM options -cpp -mtune=generic -march=x86-64 -g -O0 -fpre-include=/usr/include/finclude/math-vector-fortran.h
REM seed 216812215 -555408794 317724302 1578605474 -2134764480 -322101069 -447992257 -385018777 182328905 1039420874 -1764900032 1432923080 -318408268 1992075015 27403289 1318187006 -1600890266 1821327172 -1329631264 1611736003 2035104377 -747843986 -1277700139 -1185463736 397967915 -31285684 -513896212 -967689629 281695972 -1349028848 1701805187 1500141391 125082687
REM
CELL 1.54180   50.00000   50.00000   50.00000   90.00000   90.00000   90.00000
LATT -1
SFAC C  
C      1  0.4560920000000  0.5328610000000  0.5216040000000 1.0
C      1  0.5226530000000  0.5262480000000  0.4324200000000 1.0
C      1  0.5482940000000  0.5308280000000  0.5562370000000 1.0
C      1  0.4405060000000  0.5493560000000  0.4969010000000 1.0
C      1  0.5184290000000  0.5365430000000  0.5584480000000 1.0
C      1  0.5536950000000  0.5332640000000  0.4332840000000 1.0
C      1  0.4913970000000  0.4660350000000  0.5692280000000 1.0
C      1  0.4295400000000  0.4699790000000  0.4552950000000 1.0
C      1  0.5597350000000  0.4647610000000  0.4776610000000 1.0
C      1  0.4887430000000  0.4631690000000  0.4301440000000 1.0
C      1  0.4440150000000  0.4619140000000  0.5331070000000 1.0
C      1  0.5663290000000  0.4843050000000  0.5332820000000 1.0
C      1  0.4992110000000  0.5308600000000  0.4566310000000 1.0
C      1  0.5410710000000  0.5336220000000  0.5257160000000 1.0
C      1  0.4845130000000  0.5240470000000  0.5068090000000 1.0
C      1  0.5131820000000  0.5204620000000  0.5222180000000 1.0
C      1  0.5268870000000  0.5382990000000  0.4738870000000 1.0
C      1  0.4812080000000  0.5130180000000  0.4793160000000 1.0
C      1  0.4707820000000  0.4892270000000  0.4303630000000 1.0
C      1  0.5744660000000  0.4986750000000  0.5106630000000 1.0
C      1  0.4424350000000  0.4808800000000  0.5561780000000 1.0
C      1  0.4648430000000  0.4790000000000  0.5769280000000 1.0
C      1  0.5803270000000  0.4823630000000  0.4875120000000 1.0
C      1  0.4478410000000  0.4925710000000  0.4479160000000 1.0
C      1  0.4707420000000  0.4523350000000  0.5280750000000 1.0
C      1  0.4757300000000  0.4443630000000  0.4474860000000 1.0
C      1  0.5419660000000  0.4647650000000  0.5255680000000 1.0
C      1  0.4589880000000  0.4593850000000  0.4688990000000 1.0
C      1  0.4859050000000  0.4446100000000  0.5509790000000 1.0
C      1  0.5491820000000  0.4489100000000  0.4981100000000 1.0
C      1  0.4302510000000  0.4608790000000  0.4856470000000 1.0
C      1  0.5404020000000  0.4766500000000  0.4532110000000 1.0
C      1  0.5128920000000  0.4840770000000  0.5661350000000 1.0
C      1  0.4301280000000  0.4732670000000  0.5103120000000 1.0
C      1  0.5417240000000  0.4795840000000  0.5562780000000 1.0
C      1  0.5163310000000  0.4691260000000  0.4303610000000 1.0
C      1  0.4704960000000  0.5596460000000  0.4958540000000 1.0
C      1  0.5205100000000  0.5631570000000  0.4900260000000 1.0
C      1  0.5093510000000  0.5563760000000  0.5392360000000 1.0
C      1  0.4827310000000  0.5523500000000  0.5269890000000 1.0
C      1  0.5288070000000  0.5622030000000  0.5171510000000 1.0
C      1  0.4917020000000  0.5573920000000  0.4769710000000 1.0
C      1  0.5269710000000  0.4956870000000  0.4207510000000 1.0
C      1  0.5579140000000  0.5068830000000  0.5650220000000 1.0
C      1  0.4319650000000  0.5018010000000  0.5119330000000 1.0
C      1  0.5042470000000  0.5132470000000  0.5644860000000 1.0
C      1  0.5543210000000  0.5022230000000  0.4356140000000 1.0
C      1  0.4350110000000  0.5198330000000  0.4902490000000 1.0
C      1  0.5407920000000  0.5170230000000  0.4838270000000 1.0
C      1  0.4773200000000  0.4994900000000  0.5524520000000 1.0
C      1  0.4516780000000  0.5104040000000  0.4693790000000 1.0
C      1  0.5584420000000  0.5208640000000  0.5050650000000 1.0
C      1  0.4949470000000  0.5000110000000  0.4441000000000 1.0
C      1  0.4489510000000  0.5083660000000  0.5386460000000 1.0
C      1  0.5286130000000  0.4893850000000  0.4819400000000 1.0
C      1  0.4976950000000  0.4939640000000  0.5296270000000 1.0
C      1  0.4776050000000  0.4792130000000  0.4830580000000 1.0
C      1  0.5194670000000  0.4774960000000  0.5094440000000 1.0
C      1  0.5028920000000  0.4827650000000  0.4654090000000 1.0
C      1  0.4871350000000  0.4699820000000  0.5099610000000 1.0
END
