TITL C-1154823-9327-674 9.61284285443334e-05 125000 -323.881634055382 0 0 60 (C1) n - 1
REM
REM in /home/nfs/bkarasulu/CARBON/AIRSS/Generating-Clusters/AIREBO/Higher-Symm/Only-C60
REM
REM
REM
REM
REM
REM ./C.cell (28575a23ae977d3b5fae324c64b13b57)
REM
REM compiler GCC version 9.2.1 20190827 (Red Hat 9.2.1-1)
REM options -cpp -mtune=generic -march=x86-64 -g -O0 -fpre-include=/usr/include/finclude/math-vector-fortran.h
REM seed 1749189861 40597386 1393809637 1501687856 -909530885 -1405882236 -53011801 953015888 -420358859 1226493186 -1830757633 1763263809 -107913047 -1417994402 118425811 -1283561549 1991142559 1474755016 -1773159985 1613394195 -2112088522 -97053099 2116757834 -1696995291 -1883892 107190792 1049700062 2041485492 -1036043597 1918233117 -1763150788 -1380129342 1249241267
REM
CELL 1.54180   50.00000   50.00000   50.00000   90.00000   90.00000   90.00000
LATT -1
SFAC C  
C      1  0.4853360000000  0.4783610000000  0.5065920000000 1.0
C      1  0.5131800000000  0.4790690000000  0.5026390000000 1.0
C      1  0.5244830000000  0.5045030000000  0.5366100000000 1.0
C      1  0.4925890000000  0.5129070000000  0.5399220000000 1.0
C      1  0.4681200000000  0.4597300000000  0.5241350000000 1.0
C      1  0.5297000000000  0.4575920000000  0.5199530000000 1.0
C      1  0.5451910000000  0.5103420000000  0.4906990000000 1.0
C      1  0.4515880000000  0.5112720000000  0.4969090000000 1.0
C      1  0.5284800000000  0.4775880000000  0.5705340000000 1.0
C      1  0.4746930000000  0.4751300000000  0.5708770000000 1.0
C      1  0.5106920000000  0.5636120000000  0.4580960000000 1.0
C      1  0.4804630000000  0.5591600000000  0.4515180000000 1.0
C      1  0.5443870000000  0.4948960000000  0.4358610000000 1.0
C      1  0.4704190000000  0.4848400000000  0.4350200000000 1.0
C      1  0.5167120000000  0.4551390000000  0.5487450000000 1.0
C      1  0.4863030000000  0.4571760000000  0.5505860000000 1.0
C      1  0.4416290000000  0.4735150000000  0.5387330000000 1.0
C      1  0.5445470000000  0.4837640000000  0.5308530000000 1.0
C      1  0.5155880000000  0.5308470000000  0.4665740000000 1.0
C      1  0.4759420000000  0.5277160000000  0.4636960000000 1.0
C      1  0.5407700000000  0.5306810000000  0.5619460000000 1.0
C      1  0.4670540000000  0.5272010000000  0.5549240000000 1.0
C      1  0.5124120000000  0.4460360000000  0.4712050000000 1.0
C      1  0.4854820000000  0.4459540000000  0.4731520000000 1.0
C      1  0.5378570000000  0.4476400000000  0.5745390000000 1.0
C      1  0.4463450000000  0.4739070000000  0.5668340000000 1.0
C      1  0.4629290000000  0.4481380000000  0.4933820000000 1.0
C      1  0.5354420000000  0.4488050000000  0.4891730000000 1.0
C      1  0.4504470000000  0.5122630000000  0.4373000000000 1.0
C      1  0.5491460000000  0.5252150000000  0.4457770000000 1.0
C      1  0.5180040000000  0.5196750000000  0.5089440000000 1.0
C      1  0.4830430000000  0.5183550000000  0.5077460000000 1.0
C      1  0.4431750000000  0.5261430000000  0.4675690000000 1.0
C      1  0.5571190000000  0.5324210000000  0.4714790000000 1.0
C      1  0.5565970000000  0.4645360000000  0.4756610000000 1.0
C      1  0.4422790000000  0.4654130000000  0.4800360000000 1.0
C      1  0.5680400000000  0.4929730000000  0.5184530000000 1.0
C      1  0.4279700000000  0.4924850000000  0.5230510000000 1.0
C      1  0.5353160000000  0.5486490000000  0.5130820000000 1.0
C      1  0.4662410000000  0.5477930000000  0.5105410000000 1.0
C      1  0.5663280000000  0.4859880000000  0.4897810000000 1.0
C      1  0.4318610000000  0.4858490000000  0.4945750000000 1.0
C      1  0.5185610000000  0.5070020000000  0.5695750000000 1.0
C      1  0.4855820000000  0.5034130000000  0.5709110000000 1.0
C      1  0.4847740000000  0.5518030000000  0.4860230000000 1.0
C      1  0.5168640000000  0.5548260000000  0.4902020000000 1.0
C      1  0.4502840000000  0.5371760000000  0.5349820000000 1.0
C      1  0.5524060000000  0.5362870000000  0.5380220000000 1.0
C      1  0.4264290000000  0.5213140000000  0.5261850000000 1.0
C      1  0.5744270000000  0.5207510000000  0.5231680000000 1.0
C      1  0.5660080000000  0.5424530000000  0.5010410000000 1.0
C      1  0.4328010000000  0.5388510000000  0.4976790000000 1.0
C      1  0.4697150000000  0.4740250000000  0.4637400000000 1.0
C      1  0.5296880000000  0.4719980000000  0.4562540000000 1.0
C      1  0.5191050000000  0.4981460000000  0.4752570000000 1.0
C      1  0.4854140000000  0.4992430000000  0.4797030000000 1.0
C      1  0.4847330000000  0.5153360000000  0.4332740000000 1.0
C      1  0.5167030000000  0.5144160000000  0.4387970000000 1.0
C      1  0.5130900000000  0.4634360000000  0.4278380000000 1.0
C      1  0.4895180000000  0.4662420000000  0.4196440000000 1.0
END
