TITL C-1154810-7815-499 0.00222882816743614 125000 -332.520480786286 0 0 60 (C1) n - 1
REM
REM in /home/nfs/bkarasulu/CARBON/AIRSS/Generating-Clusters/AIREBO/Higher-Symm/Only-C60
REM
REM
REM
REM
REM
REM ./C.cell (28575a23ae977d3b5fae324c64b13b57)
REM
REM compiler GCC version 9.2.1 20190827 (Red Hat 9.2.1-1)
REM options -cpp -mtune=generic -march=x86-64 -g -O0 -fpre-include=/usr/include/finclude/math-vector-fortran.h
REM seed -896930364 1743941843 -1976706840 -177112923 297554921 1154961272 -1396118275 -553406024 -1246846028 2067128383 65989745 1378553070 -960420326 -1698028510 -966499501 -181807388 1367203438 1847506109 836611347 -1846919545 554781164 1720682822 2091713097 -225514437 -933472445 -63720294 1808703720 363279890 -314806897 955019418 -1391314887 37474033 -1236222954
REM
CELL 1.54180   50.00000   50.00000   50.00000   90.00000   90.00000   90.00000
LATT -1
SFAC C  
C      1  0.5193590000000  0.5312670000000  0.5187690000000 1.0
C      1  0.5122990000000  0.4529640000000  0.5667060000000 1.0
C      1  0.5461070000000  0.4548280000000  0.4483800000000 1.0
C      1  0.5430260000000  0.4308420000000  0.5094360000000 1.0
C      1  0.4410250000000  0.4753970000000  0.4751260000000 1.0
C      1  0.4938150000000  0.4339860000000  0.5571650000000 1.0
C      1  0.4715550000000  0.4333510000000  0.4698290000000 1.0
C      1  0.5155530000000  0.4834530000000  0.4801170000000 1.0
C      1  0.4966270000000  0.4943620000000  0.5839600000000 1.0
C      1  0.4036420000000  0.5691040000000  0.4899240000000 1.0
C      1  0.4757710000000  0.5874890000000  0.5135140000000 1.0
C      1  0.4578380000000  0.5290820000000  0.4294690000000 1.0
C      1  0.5531330000000  0.5286880000000  0.5219250000000 1.0
C      1  0.5127180000000  0.5515060000000  0.5428940000000 1.0
C      1  0.4945210000000  0.5279810000000  0.4676730000000 1.0
C      1  0.4992420000000  0.4336460000000  0.4701420000000 1.0
C      1  0.4910910000000  0.5345440000000  0.5000700000000 1.0
C      1  0.5130500000000  0.4984760000000  0.4244490000000 1.0
C      1  0.5311180000000  0.5473660000000  0.4912200000000 1.0
C      1  0.4319490000000  0.4569130000000  0.5302500000000 1.0
C      1  0.5453620000000  0.5241480000000  0.4829690000000 1.0
C      1  0.5461930000000  0.5108680000000  0.5569910000000 1.0
C      1  0.5574840000000  0.5152330000000  0.4588510000000 1.0
C      1  0.5240590000000  0.5008150000000  0.5332190000000 1.0
C      1  0.4648790000000  0.6063340000000  0.5281140000000 1.0
C      1  0.5241180000000  0.4563510000000  0.4684240000000 1.0
C      1  0.5476780000000  0.4500030000000  0.5283110000000 1.0
C      1  0.4261140000000  0.4812820000000  0.5260030000000 1.0
C      1  0.5349070000000  0.4973880000000  0.5011620000000 1.0
C      1  0.4663430000000  0.4943970000000  0.4837820000000 1.0
C      1  0.4773130000000  0.4306030000000  0.5359280000000 1.0
C      1  0.5370490000000  0.5107780000000  0.4403920000000 1.0
C      1  0.4958900000000  0.5032090000000  0.5521130000000 1.0
C      1  0.5272540000000  0.4677290000000  0.5422030000000 1.0
C      1  0.4408470000000  0.4953170000000  0.5059700000000 1.0
C      1  0.5230570000000  0.4320130000000  0.4907500000000 1.0
C      1  0.4858740000000  0.5232340000000  0.5778450000000 1.0
C      1  0.4619730000000  0.5222720000000  0.5011420000000 1.0
C      1  0.5085590000000  0.4699530000000  0.5890640000000 1.0
C      1  0.5694920000000  0.4692050000000  0.4536090000000 1.0
C      1  0.5108330000000  0.5632040000000  0.4804160000000 1.0
C      1  0.4200690000000  0.5491880000000  0.4854180000000 1.0
C      1  0.4888980000000  0.4788150000000  0.4929250000000 1.0
C      1  0.5669810000000  0.5045670000000  0.5098650000000 1.0
C      1  0.5860100000000  0.4963530000000  0.4909650000000 1.0
C      1  0.5095770000000  0.5040170000000  0.4580170000000 1.0
C      1  0.4535380000000  0.4480300000000  0.4844630000000 1.0
C      1  0.5414590000000  0.4424760000000  0.4243260000000 1.0
C      1  0.4357420000000  0.5269990000000  0.4824830000000 1.0
C      1  0.4946530000000  0.4744040000000  0.5382240000000 1.0
C      1  0.4780330000000  0.5420250000000  0.4424950000000 1.0
C      1  0.5619120000000  0.5345400000000  0.5500200000000 1.0
C      1  0.4567870000000  0.4458250000000  0.5158270000000 1.0
C      1  0.5763800000000  0.4943810000000  0.4641200000000 1.0
C      1  0.5015440000000  0.5598780000000  0.4525340000000 1.0
C      1  0.4826100000000  0.4648230000000  0.5159790000000 1.0
C      1  0.4333690000000  0.5056370000000  0.4642320000000 1.0
C      1  0.4371600000000  0.5128080000000  0.4373370000000 1.0
C      1  0.4888290000000  0.5680910000000  0.5003830000000 1.0
C      1  0.5077310000000  0.5675650000000  0.5621090000000 1.0
END
