TITL C-1154824-75-53 -0.000271011312911149 125000 -349.289485082403 0 0 60 (C1) n - 1
REM
REM in /home/nfs/bkarasulu/CARBON/AIRSS/Generating-Clusters/AIREBO/Higher-Symm/Only-C60
REM
REM
REM
REM
REM
REM ./C.cell (28575a23ae977d3b5fae324c64b13b57)
REM
REM compiler GCC version 9.2.1 20190827 (Red Hat 9.2.1-1)
REM options -cpp -mtune=generic -march=x86-64 -g -O0 -fpre-include=/usr/include/finclude/math-vector-fortran.h
REM seed 1461402741 1752819154 662814934 1472167210 -637355915 -1708955040 270884465 954329938 -64310034 127433325 -304894025 -1605012001 -495539669 -1255916358 1516877064 1369628336 1462723892 1964127075 -2127076504 963157431 467509007 -1571011065 -2097304728 -1702432314 1115095692 -593870085 -2030552262 -167945937 -880347277 -353999157 1700136426 -110831221 -1855100927
REM
CELL 1.54180   50.00000   50.00000   50.00000   90.00000   90.00000   90.00000
LATT -1
SFAC C  
C      1  0.5295310000000  0.4828070000000  0.4077160000000 1.0
C      1  0.4257040000000  0.5095650000000  0.4295400000000 1.0
C      1  0.4024510000000  0.4678000000000  0.5281390000000 1.0
C      1  0.4796250000000  0.4807150000000  0.5909300000000 1.0
C      1  0.5684910000000  0.5061050000000  0.5677130000000 1.0
C      1  0.5919570000000  0.4907850000000  0.4817400000000 1.0
C      1  0.4733800000000  0.4846980000000  0.4070390000000 1.0
C      1  0.5806530000000  0.4804090000000  0.4291310000000 1.0
C      1  0.5954540000000  0.4764850000000  0.5299610000000 1.0
C      1  0.5374770000000  0.4680460000000  0.5918710000000 1.0
C      1  0.4265330000000  0.4984970000000  0.5778380000000 1.0
C      1  0.4043420000000  0.4744980000000  0.4716040000000 1.0
C      1  0.4860890000000  0.5076410000000  0.5510470000000 1.0
C      1  0.5339360000000  0.5107890000000  0.5336720000000 1.0
C      1  0.5489830000000  0.5139810000000  0.4845670000000 1.0
C      1  0.5215680000000  0.5135330000000  0.4448710000000 1.0
C      1  0.4664880000000  0.5196600000000  0.4632140000000 1.0
C      1  0.4459060000000  0.5025900000000  0.5160800000000 1.0
C      1  0.5096190000000  0.5213400000000  0.5444090000000 1.0
C      1  0.4594450000000  0.5176350000000  0.5410160000000 1.0
C      1  0.4440400000000  0.5110810000000  0.4873340000000 1.0
C      1  0.4926260000000  0.5187520000000  0.4431930000000 1.0
C      1  0.5363240000000  0.5277680000000  0.4634420000000 1.0
C      1  0.5446610000000  0.5242690000000  0.5106590000000 1.0
C      1  0.4755060000000  0.4911890000000  0.4368740000000 1.0
C      1  0.4330940000000  0.4830710000000  0.4741890000000 1.0
C      1  0.4348730000000  0.4992340000000  0.5531990000000 1.0
C      1  0.5351140000000  0.4705770000000  0.5647070000000 1.0
C      1  0.5681770000000  0.4743830000000  0.5305070000000 1.0
C      1  0.5606640000000  0.4855940000000  0.4451460000000 1.0
C      1  0.5315360000000  0.4866400000000  0.4356600000000 1.0
C      1  0.5642270000000  0.4889120000000  0.4757190000000 1.0
C      1  0.5518070000000  0.4916910000000  0.5497780000000 1.0
C      1  0.4853650000000  0.4830320000000  0.5646990000000 1.0
C      1  0.4281050000000  0.4777470000000  0.5287320000000 1.0
C      1  0.4456150000000  0.4984590000000  0.4494970000000 1.0
C      1  0.4515230000000  0.4619050000000  0.5144700000000 1.0
C      1  0.4916640000000  0.4603520000000  0.5483490000000 1.0
C      1  0.5330720000000  0.4425610000000  0.5267490000000 1.0
C      1  0.5507040000000  0.4638650000000  0.4869680000000 1.0
C      1  0.5157910000000  0.4660960000000  0.4518070000000 1.0
C      1  0.4715880000000  0.4540280000000  0.4694660000000 1.0
C      1  0.5525810000000  0.4581710000000  0.5135920000000 1.0
C      1  0.5188630000000  0.4545370000000  0.5478570000000 1.0
C      1  0.4710710000000  0.4517600000000  0.5315100000000 1.0
C      1  0.4520350000000  0.4630240000000  0.4872020000000 1.0
C      1  0.4887530000000  0.4685340000000  0.4528980000000 1.0
C      1  0.5320760000000  0.4521680000000  0.4697130000000 1.0
C      1  0.5322550000000  0.5556150000000  0.4656560000000 1.0
C      1  0.4868530000000  0.5504000000000  0.4483270000000 1.0
C      1  0.4463650000000  0.5436050000000  0.4878030000000 1.0
C      1  0.4595950000000  0.5471780000000  0.5360090000000 1.0
C      1  0.5077820000000  0.5497580000000  0.5448030000000 1.0
C      1  0.5436180000000  0.5529120000000  0.5124720000000 1.0
C      1  0.4614160000000  0.5530770000000  0.4639410000000 1.0
C      1  0.5103780000000  0.5655680000000  0.4508090000000 1.0
C      1  0.5449980000000  0.5668980000000  0.4880260000000 1.0
C      1  0.5307900000000  0.5629280000000  0.5354620000000 1.0
C      1  0.4817060000000  0.5601150000000  0.5473590000000 1.0
C      1  0.4451560000000  0.5549650000000  0.5133180000000 1.0
END
