TITL C-1154803-8277-555 -0.00116530305090349 125000 -324.082213322991 0 0 60 (C1) n - 1
REM
REM in /home/nfs/bkarasulu/CARBON/AIRSS/Generating-Clusters/AIREBO/Higher-Symm/Only-C60
REM
REM
REM
REM
REM
REM ./C.cell (28575a23ae977d3b5fae324c64b13b57)
REM
REM compiler GCC version 9.2.1 20190827 (Red Hat 9.2.1-1)
REM options -cpp -mtune=generic -march=x86-64 -g -O0 -fpre-include=/usr/include/finclude/math-vector-fortran.h
REM seed -1333828159 -406806639 1194591606 1960742856 542745105 -2140210254 1818127008 747726124 896524894 -1049275544 -814625059 -1678826520 -260108972 880657488 197771577 -1995277522 437155144 616856753 -1114172695 1913599261 -989925515 930640332 784126867 -397238877 -1954410243 1612104702 1987737511 351025082 -788290285 1455564655 -771829895 1390240140 508640819
REM
CELL 1.54180   50.00000   50.00000   50.00000   90.00000   90.00000   90.00000
LATT -1
SFAC C  
C      1  0.5141850000000  0.4472960000000  0.4730230000000 1.0
C      1  0.5568170000000  0.5033210000000  0.4792710000000 1.0
C      1  0.5225960000000  0.5575460000000  0.4775350000000 1.0
C      1  0.4547130000000  0.5311000000000  0.4759650000000 1.0
C      1  0.4522410000000  0.4671390000000  0.4768110000000 1.0
C      1  0.4813910000000  0.5153800000000  0.4816770000000 1.0
C      1  0.4774600000000  0.4861920000000  0.4693520000000 1.0
C      1  0.5060680000000  0.4769700000000  0.4805570000000 1.0
C      1  0.5253050000000  0.5002920000000  0.4687830000000 1.0
C      1  0.5089980000000  0.5284610000000  0.4718300000000 1.0
C      1  0.5673670000000  0.4903320000000  0.5482480000000 1.0
C      1  0.5307750000000  0.5526870000000  0.5344460000000 1.0
C      1  0.4701470000000  0.5522550000000  0.5370760000000 1.0
C      1  0.4459320000000  0.4836750000000  0.5405290000000 1.0
C      1  0.4929780000000  0.4463890000000  0.5423690000000 1.0
C      1  0.5566470000000  0.4525910000000  0.5040320000000 1.0
C      1  0.5602920000000  0.5467600000000  0.5226630000000 1.0
C      1  0.4775850000000  0.5664230000000  0.5073020000000 1.0
C      1  0.4318110000000  0.5012990000000  0.5199290000000 1.0
C      1  0.4778520000000  0.4326770000000  0.5165900000000 1.0
C      1  0.5644810000000  0.4785260000000  0.4973070000000 1.0
C      1  0.5476670000000  0.5554620000000  0.4924030000000 1.0
C      1  0.4557850000000  0.5600570000000  0.4866280000000 1.0
C      1  0.4315890000000  0.4835390000000  0.4909150000000 1.0
C      1  0.4922900000000  0.4315280000000  0.4863590000000 1.0
C      1  0.5579570000000  0.4990160000000  0.4463180000000 1.0
C      1  0.5217870000000  0.5536610000000  0.4441430000000 1.0
C      1  0.4594980000000  0.5298780000000  0.4442320000000 1.0
C      1  0.4524350000000  0.4690760000000  0.4436720000000 1.0
C      1  0.5131930000000  0.4490840000000  0.4414270000000 1.0
C      1  0.5635800000000  0.5287360000000  0.4936250000000 1.0
C      1  0.5029540000000  0.5778090000000  0.4904840000000 1.0
C      1  0.4331770000000  0.5154150000000  0.4890280000000 1.0
C      1  0.4616960000000  0.4410410000000  0.4877180000000 1.0
C      1  0.5421420000000  0.4390200000000  0.4840680000000 1.0
C      1  0.4225340000000  0.5359020000000  0.5367920000000 1.0
C      1  0.4459090000000  0.4535360000000  0.5540910000000 1.0
C      1  0.5497420000000  0.4490560000000  0.5324210000000 1.0
C      1  0.5528130000000  0.5207750000000  0.5432860000000 1.0
C      1  0.5010300000000  0.5586130000000  0.5498190000000 1.0
C      1  0.5270640000000  0.4965490000000  0.4351230000000 1.0
C      1  0.5093630000000  0.5234230000000  0.4386830000000 1.0
C      1  0.4800900000000  0.5159250000000  0.4320310000000 1.0
C      1  0.4798110000000  0.4853580000000  0.4362730000000 1.0
C      1  0.5073040000000  0.4735710000000  0.4296300000000 1.0
C      1  0.5187890000000  0.5233210000000  0.5455580000000 1.0
C      1  0.4875860000000  0.5264320000000  0.5507170000000 1.0
C      1  0.4737500000000  0.4977050000000  0.5541480000000 1.0
C      1  0.4764730000000  0.4640220000000  0.5586540000000 1.0
C      1  0.5662430000000  0.4633980000000  0.5514210000000 1.0
C      1  0.4523780000000  0.5273270000000  0.5274010000000 1.0
C      1  0.4598810000000  0.4595170000000  0.5228630000000 1.0
C      1  0.5216250000000  0.4522300000000  0.5368490000000 1.0
C      1  0.5560420000000  0.4984560000000  0.5189060000000 1.0
C      1  0.5038080000000  0.5476810000000  0.5165790000000 1.0
C      1  0.5119780000000  0.4755860000000  0.5228690000000 1.0
C      1  0.5249440000000  0.5019460000000  0.5217600000000 1.0
C      1  0.5002990000000  0.5189520000000  0.5096490000000 1.0
C      1  0.4739050000000  0.5039700000000  0.5207290000000 1.0
C      1  0.4852450000000  0.4761160000000  0.5074330000000 1.0
END
