TITL C-1154821-8623-505 -0.0049141671856264 125000 -349.801164859561 0 0 60 (C1) n - 1
REM
REM in /home/nfs/bkarasulu/CARBON/AIRSS/Generating-Clusters/AIREBO/Higher-Symm/Only-C60
REM
REM
REM
REM
REM
REM ./C.cell (28575a23ae977d3b5fae324c64b13b57)
REM
REM compiler GCC version 9.2.1 20190827 (Red Hat 9.2.1-1)
REM options -cpp -mtune=generic -march=x86-64 -g -O0 -fpre-include=/usr/include/finclude/math-vector-fortran.h
REM seed -1277115925 160299164 -742522107 1068757167 -1501371662 -1369896265 -1237146688 1114240004 -1720409979 1262604106 2036479224 2140901992 -1329034458 -1447593064 -1055877836 -1960764315 1718577602 1141305614 -1869448791 1732596540 682469150 2098507922 -823873176 -1211073850 -279702030 -109282019 -399502771 549122601 404996216 611477344 1376701356 -313529603 -1119469128
REM
CELL 1.54180   50.00000   50.00000   50.00000   90.00000   90.00000   90.00000
LATT -1
SFAC C  
C      1  0.5755040000000  0.5047320000000  0.4745220000000 1.0
C      1  0.4352750000000  0.5054890000000  0.4504560000000 1.0
C      1  0.4817790000000  0.5072660000000  0.5743130000000 1.0
C      1  0.4224180000000  0.5067700000000  0.4737550000000 1.0
C      1  0.5659300000000  0.5057990000000  0.4492610000000 1.0
C      1  0.5094260000000  0.5052890000000  0.5802830000000 1.0
C      1  0.5190720000000  0.4639330000000  0.4722680000000 1.0
C      1  0.4666770000000  0.4629390000000  0.4977470000000 1.0
C      1  0.5155100000000  0.4627450000000  0.5288670000000 1.0
C      1  0.4865320000000  0.4568530000000  0.4707880000000 1.0
C      1  0.5327290000000  0.4557500000000  0.5023160000000 1.0
C      1  0.4822940000000  0.4557630000000  0.5250760000000 1.0
C      1  0.5165520000000  0.4907880000000  0.5437730000000 1.0
C      1  0.5316000000000  0.4918710000000  0.4642330000000 1.0
C      1  0.4529010000000  0.4910090000000  0.4941780000000 1.0
C      1  0.4838540000000  0.4813820000000  0.5439260000000 1.0
C      1  0.4702130000000  0.4840030000000  0.4643280000000 1.0
C      1  0.5482060000000  0.4818240000000  0.4926810000000 1.0
C      1  0.5796980000000  0.4858280000000  0.5336510000000 1.0
C      1  0.4880070000000  0.4894400000000  0.4173980000000 1.0
C      1  0.4361580000000  0.4841190000000  0.5583080000000 1.0
C      1  0.4222190000000  0.4854520000000  0.5349050000000 1.0
C      1  0.5127720000000  0.4886600000000  0.4171420000000 1.0
C      1  0.5661840000000  0.4856270000000  0.5551300000000 1.0
C      1  0.5126180000000  0.4297750000000  0.5248770000000 1.0
C      1  0.5165920000000  0.4310270000000  0.4754410000000 1.0
C      1  0.4717340000000  0.4301090000000  0.4964510000000 1.0
C      1  0.4836570000000  0.4218660000000  0.5231690000000 1.0
C      1  0.4876560000000  0.4230280000000  0.4718830000000 1.0
C      1  0.5298360000000  0.4220840000000  0.5010360000000 1.0
C      1  0.4836380000000  0.5541680000000  0.4714140000000 1.0
C      1  0.4857270000000  0.5597390000000  0.5225550000000 1.0
C      1  0.5292020000000  0.5576260000000  0.4959560000000 1.0
C      1  0.5138570000000  0.5464800000000  0.4712740000000 1.0
C      1  0.5146630000000  0.5506280000000  0.5218010000000 1.0
C      1  0.4702700000000  0.5480120000000  0.4986050000000 1.0
C      1  0.5298750000000  0.5267150000000  0.5680620000000 1.0
C      1  0.5469160000000  0.5285590000000  0.4362570000000 1.0
C      1  0.4231670000000  0.5283370000000  0.4965960000000 1.0
C      1  0.4756450000000  0.5282270000000  0.5546490000000 1.0
C      1  0.4555580000000  0.5274340000000  0.4393160000000 1.0
C      1  0.5601380000000  0.5213020000000  0.4962130000000 1.0
C      1  0.4386020000000  0.5497630000000  0.5004180000000 1.0
C      1  0.5296740000000  0.5462940000000  0.5502520000000 1.0
C      1  0.5311640000000  0.5486540000000  0.4448160000000 1.0
C      1  0.5562040000000  0.5504520000000  0.4961980000000 1.0
C      1  0.4740770000000  0.5550270000000  0.5469910000000 1.0
C      1  0.4685340000000  0.5494800000000  0.4493370000000 1.0
C      1  0.5369360000000  0.4967550000000  0.4336190000000 1.0
C      1  0.4239360000000  0.4957260000000  0.5061870000000 1.0
C      1  0.5388460000000  0.4945360000000  0.5655470000000 1.0
C      1  0.4647150000000  0.4956930000000  0.4360590000000 1.0
C      1  0.5768920000000  0.4892990000000  0.5048210000000 1.0
C      1  0.4628150000000  0.4841860000000  0.5670770000000 1.0
C      1  0.4866000000000  0.5056210000000  0.4793690000000 1.0
C      1  0.4854480000000  0.5111390000000  0.5298170000000 1.0
C      1  0.5312840000000  0.5091010000000  0.5001150000000 1.0
C      1  0.5133710000000  0.5157080000000  0.4753950000000 1.0
C      1  0.5171870000000  0.5174210000000  0.5250490000000 1.0
C      1  0.4714540000000  0.5167000000000  0.5040710000000 1.0
END
