TITL C-1154808-8168-628 0.00115511076851452 125000 -363.913319028524 0 0 60 (C2) n - 1
REM
REM in /home/nfs/bkarasulu/CARBON/AIRSS/Generating-Clusters/AIREBO/Higher-Symm/Only-C60
REM
REM
REM
REM
REM
REM ./C.cell (28575a23ae977d3b5fae324c64b13b57)
REM
REM compiler GCC version 9.2.1 20190827 (Red Hat 9.2.1-1)
REM options -cpp -mtune=generic -march=x86-64 -g -O0 -fpre-include=/usr/include/finclude/math-vector-fortran.h
REM seed -1205903850 1399748572 1756572899 -41869250 -853157094 -918935164 -545729063 52204108 1694321492 -1525987924 1386438323 1516336469 1154434489 320364411 -199969342 -917374271 -381255492 -1703117882 -984855951 -1297338964 604814591 685136564 -15318457 1763330944 1292497688 -657740314 -1101870428 -2081345117 1945966919 -707563612 1455412348 854075088 -199356085
REM
CELL 1.54180   50.00000   50.00000   50.00000   90.00000   90.00000   90.00000
LATT -1
SFAC C  
C      1  0.5519050000000  0.4587090000000  0.4922610000000 1.0
C      1  0.5347050000000  0.4553290000000  0.5392550000000 1.0
C      1  0.4845110000000  0.4637160000000  0.5403110000000 1.0
C      1  0.4480930000000  0.4587120000000  0.5077440000000 1.0
C      1  0.4652930000000  0.4553260000000  0.4607500000000 1.0
C      1  0.5154870000000  0.4637110000000  0.4596920000000 1.0
C      1  0.4250320000000  0.5422230000000  0.4588240000000 1.0
C      1  0.4984330000000  0.5211520000000  0.4192380000000 1.0
C      1  0.5732060000000  0.5370040000000  0.4565960000000 1.0
C      1  0.5749700000000  0.5422240000000  0.5411720000000 1.0
C      1  0.5015680000000  0.5211600000000  0.5807600000000 1.0
C      1  0.4267950000000  0.5370120000000  0.5434010000000 1.0
C      1  0.4716350000000  0.4779830000000  0.4925630000000 1.0
C      1  0.4817390000000  0.4850880000000  0.4605080000000 1.0
C      1  0.5259280000000  0.4837920000000  0.4755150000000 1.0
C      1  0.5283640000000  0.4779830000000  0.5074390000000 1.0
C      1  0.5182600000000  0.4850910000000  0.5394930000000 1.0
C      1  0.4740710000000  0.4837950000000  0.5244870000000 1.0
C      1  0.5291540000000  0.4378390000000  0.4953010000000 1.0
C      1  0.5194650000000  0.4372490000000  0.5222700000000 1.0
C      1  0.4907660000000  0.4402450000000  0.5255730000000 1.0
C      1  0.4708430000000  0.4378410000000  0.5047050000000 1.0
C      1  0.4805330000000  0.4372470000000  0.4777360000000 1.0
C      1  0.5092310000000  0.4402420000000  0.4744330000000 1.0
C      1  0.4374090000000  0.5032190000000  0.5250370000000 1.0
C      1  0.4411950000000  0.5074530000000  0.4697260000000 1.0
C      1  0.5111510000000  0.4924980000000  0.4190910000000 1.0
C      1  0.5625920000000  0.5032140000000  0.4749620000000 1.0
C      1  0.5588050000000  0.5074530000000  0.5302730000000 1.0
C      1  0.4888490000000  0.4925070000000  0.5809100000000 1.0
C      1  0.4469270000000  0.5239290000000  0.4922920000000 1.0
C      1  0.4778870000000  0.5145540000000  0.4559380000000 1.0
C      1  0.5333230000000  0.5115930000000  0.4629170000000 1.0
C      1  0.5530740000000  0.5239280000000  0.5077060000000 1.0
C      1  0.5221140000000  0.5145580000000  0.5440610000000 1.0
C      1  0.4666780000000  0.5115980000000  0.5370810000000 1.0
C      1  0.4896900000000  0.5316080000000  0.4746730000000 1.0
C      1  0.5171670000000  0.5315920000000  0.4784270000000 1.0
C      1  0.5277300000000  0.5353130000000  0.5036380000000 1.0
C      1  0.5103110000000  0.5316100000000  0.5253240000000 1.0
C      1  0.4828350000000  0.5315950000000  0.5215690000000 1.0
C      1  0.4722720000000  0.5353140000000  0.4963590000000 1.0
C      1  0.4444980000000  0.5350390000000  0.5606450000000 1.0
C      1  0.4125080000000  0.5402890000000  0.4806500000000 1.0
C      1  0.4735460000000  0.5304990000000  0.4197660000000 1.0
C      1  0.5555030000000  0.5350310000000  0.4393510000000 1.0
C      1  0.5874940000000  0.5402870000000  0.5193460000000 1.0
C      1  0.5264560000000  0.5305060000000  0.5802310000000 1.0
C      1  0.4487010000000  0.5247300000000  0.4417710000000 1.0
C      1  0.5300190000000  0.5170590000000  0.4315660000000 1.0
C      1  0.5780540000000  0.5304660000000  0.4881840000000 1.0
C      1  0.5513000000000  0.5247340000000  0.5582270000000 1.0
C      1  0.4699820000000  0.5170670000000  0.5684320000000 1.0
C      1  0.4219480000000  0.5304710000000  0.5118130000000 1.0
C      1  0.5687250000000  0.4765990000000  0.4779210000000 1.0
C      1  0.5556610000000  0.4794240000000  0.5276600000000 1.0
C      1  0.4990000000000  0.4737850000000  0.5636020000000 1.0
C      1  0.4312740000000  0.4766050000000  0.5220810000000 1.0
C      1  0.4443380000000  0.4794240000000  0.4723420000000 1.0
C      1  0.5009990000000  0.4737780000000  0.4364000000000 1.0
END
