TITL C-1154802-8274-313 8.96162536536141e-05 125000 -345.129775734995 0 0 60 (C1) n - 1
REM
REM in /home/nfs/bkarasulu/CARBON/AIRSS/Generating-Clusters/AIREBO/Higher-Symm/Only-C60
REM
REM
REM
REM
REM
REM ./C.cell (28575a23ae977d3b5fae324c64b13b57)
REM
REM compiler GCC version 9.2.1 20190827 (Red Hat 9.2.1-1)
REM options -cpp -mtune=generic -march=x86-64 -g -O0 -fpre-include=/usr/include/finclude/math-vector-fortran.h
REM seed 398361754 -866505610 -1828694792 -959675828 1890867112 -1752975027 -2096211139 -624119061 259728473 525309025 599203284 1728511862 540588091 -1026745562 -2136628908 306978581 397131846 -788769889 -1190669118 -1972968399 1737577363 -624842136 -1626677053 -1768178696 -276100536 2053975387 1246502816 -786072324 2022650585 1415802921 404169564 -309036097 2082632110
REM
CELL 1.54180   50.00000   50.00000   50.00000   90.00000   90.00000   90.00000
LATT -1
SFAC C  
C      1  0.4902520000000  0.5330950000000  0.5243230000000 1.0
C      1  0.4734880000000  0.4970030000000  0.4968260000000 1.0
C      1  0.5127470000000  0.4979730000000  0.5733070000000 1.0
C      1  0.5525470000000  0.5838900000000  0.4573550000000 1.0
C      1  0.5324540000000  0.5262390000000  0.4817640000000 1.0
C      1  0.4903810000000  0.4912520000000  0.5228410000000 1.0
C      1  0.5029580000000  0.3972760000000  0.5209080000000 1.0
C      1  0.5287000000000  0.4743620000000  0.4381040000000 1.0
C      1  0.5514470000000  0.4608930000000  0.5056480000000 1.0
C      1  0.4304870000000  0.5315800000000  0.4886610000000 1.0
C      1  0.4420910000000  0.4674570000000  0.4627870000000 1.0
C      1  0.4981990000000  0.4726740000000  0.4487320000000 1.0
C      1  0.4941010000000  0.5688930000000  0.5656090000000 1.0
C      1  0.4635010000000  0.5196100000000  0.5391720000000 1.0
C      1  0.4619340000000  0.4418030000000  0.4983380000000 1.0
C      1  0.5106540000000  0.4330110000000  0.4694330000000 1.0
C      1  0.4281540000000  0.4800050000000  0.4842690000000 1.0
C      1  0.4989500000000  0.5117690000000  0.4405670000000 1.0
C      1  0.5152190000000  0.5121280000000  0.5261010000000 1.0
C      1  0.4830820000000  0.5519780000000  0.5018900000000 1.0
C      1  0.4467130000000  0.5000920000000  0.5265010000000 1.0
C      1  0.4862600000000  0.4458330000000  0.4566480000000 1.0
C      1  0.4673030000000  0.4662190000000  0.5214190000000 1.0
C      1  0.5631170000000  0.5594720000000  0.4544940000000 1.0
C      1  0.4805590000000  0.5444690000000  0.5549010000000 1.0
C      1  0.4425920000000  0.5043610000000  0.4952270000000 1.0
C      1  0.5061790000000  0.4620550000000  0.4872110000000 1.0
C      1  0.5203390000000  0.5746040000000  0.5693570000000 1.0
C      1  0.4968270000000  0.4527520000000  0.5144670000000 1.0
C      1  0.5633990000000  0.4889680000000  0.4701220000000 1.0
C      1  0.4350450000000  0.5567110000000  0.4978720000000 1.0
C      1  0.4990260000000  0.4671370000000  0.5451960000000 1.0
C      1  0.4367650000000  0.4415340000000  0.5149410000000 1.0
C      1  0.5363460000000  0.5098790000000  0.5040720000000 1.0
C      1  0.5547290000000  0.4890660000000  0.4985320000000 1.0
C      1  0.5481290000000  0.4684760000000  0.4569460000000 1.0
C      1  0.5055950000000  0.5233680000000  0.4694780000000 1.0
C      1  0.5611610000000  0.4463210000000  0.5262970000000 1.0
C      1  0.5865630000000  0.5523890000000  0.4387770000000 1.0
C      1  0.4869680000000  0.5667410000000  0.4563650000000 1.0
C      1  0.5210710000000  0.5005240000000  0.4268420000000 1.0
C      1  0.4988170000000  0.4222870000000  0.5177830000000 1.0
C      1  0.5544810000000  0.5352170000000  0.4672450000000 1.0
C      1  0.4707000000000  0.5179110000000  0.5723360000000 1.0
C      1  0.4179390000000  0.4650450000000  0.5060090000000 1.0
C      1  0.4819390000000  0.4898260000000  0.6095870000000 1.0
C      1  0.4594260000000  0.5668500000000  0.5055850000000 1.0
C      1  0.4901400000000  0.5477000000000  0.4758800000000 1.0
C      1  0.5445630000000  0.5326070000000  0.5611620000000 1.0
C      1  0.5417070000000  0.5576930000000  0.5715410000000 1.0
C      1  0.4750900000000  0.4941390000000  0.4390390000000 1.0
C      1  0.4878730000000  0.5014190000000  0.5860450000000 1.0
C      1  0.5723980000000  0.5135100000000  0.4598460000000 1.0
C      1  0.5269910000000  0.5122520000000  0.5539450000000 1.0
C      1  0.4367890000000  0.4707730000000  0.5337220000000 1.0
C      1  0.5367280000000  0.4512520000000  0.4796590000000 1.0
C      1  0.4615900000000  0.4473210000000  0.4706350000000 1.0
C      1  0.4953120000000  0.4919710000000  0.4750980000000 1.0
C      1  0.4493900000000  0.4836130000000  0.4404170000000 1.0
C      1  0.5920930000000  0.5247520000000  0.4421660000000 1.0
END
