TITL C-1154816-9297-672 -0.000187274016032008 125000 -304.449408469975 0 0 60 (C1) n - 1
REM
REM in /home/nfs/bkarasulu/CARBON/AIRSS/Generating-Clusters/AIREBO/Higher-Symm/Only-C60
REM
REM
REM
REM
REM
REM ./C.cell (28575a23ae977d3b5fae324c64b13b57)
REM
REM compiler GCC version 9.2.1 20190827 (Red Hat 9.2.1-1)
REM options -cpp -mtune=generic -march=x86-64 -g -O0 -fpre-include=/usr/include/finclude/math-vector-fortran.h
REM seed 545888465 -251999429 1011848563 1694693062 -1705708718 -1032302504 2009346743 735862851 1627409097 1296231980 1486060359 -935352298 -256508373 1291497609 -722820027 -2058132905 859178053 506845868 -231024564 568721712 -1943202153 -1109602784 120302141 59745902 56254916 -972983529 2126456797 748367972 1901987081 1644228276 -1869436276 2133104823 -1870988874
REM
CELL 1.54180   50.00000   50.00000   50.00000   90.00000   90.00000   90.00000
LATT -1
SFAC C  
C      1  0.5336010000000  0.5062810000000  0.5317360000000 1.0
C      1  0.5089330000000  0.5216150000000  0.5215130000000 1.0
C      1  0.4777190000000  0.5348380000000  0.5241390000000 1.0
C      1  0.4592970000000  0.5063300000000  0.5268790000000 1.0
C      1  0.4784790000000  0.4639380000000  0.5204500000000 1.0
C      1  0.5046230000000  0.4527090000000  0.5327910000000 1.0
C      1  0.5312690000000  0.4732160000000  0.5267050000000 1.0
C      1  0.4584810000000  0.4718930000000  0.5467810000000 1.0
C      1  0.5019850000000  0.4428140000000  0.5650460000000 1.0
C      1  0.5407880000000  0.4477070000000  0.5470790000000 1.0
C      1  0.5612620000000  0.4929060000000  0.5442130000000 1.0
C      1  0.5380050000000  0.5427020000000  0.5565700000000 1.0
C      1  0.4831980000000  0.5499420000000  0.5510780000000 1.0
C      1  0.4509060000000  0.5264170000000  0.5524440000000 1.0
C      1  0.4382960000000  0.4835130000000  0.5220100000000 1.0
C      1  0.4610820000000  0.4368360000000  0.5096180000000 1.0
C      1  0.5292320000000  0.4344120000000  0.5181000000000 1.0
C      1  0.5793980000000  0.4913490000000  0.5228390000000 1.0
C      1  0.5448610000000  0.5381930000000  0.5282900000000 1.0
C      1  0.4997690000000  0.5848380000000  0.4998940000000 1.0
C      1  0.4450180000000  0.5432860000000  0.5224650000000 1.0
C      1  0.5425440000000  0.4924600000000  0.5680210000000 1.0
C      1  0.5340770000000  0.5175020000000  0.5758380000000 1.0
C      1  0.5070420000000  0.5340260000000  0.5661700000000 1.0
C      1  0.4755180000000  0.5285440000000  0.5763050000000 1.0
C      1  0.4654530000000  0.4986090000000  0.5655450000000 1.0
C      1  0.4886080000000  0.4738700000000  0.5627140000000 1.0
C      1  0.5226350000000  0.4698270000000  0.5654840000000 1.0
C      1  0.4991780000000  0.4569760000000  0.4460570000000 1.0
C      1  0.5298970000000  0.4705060000000  0.4515020000000 1.0
C      1  0.5407240000000  0.5027260000000  0.4524220000000 1.0
C      1  0.5163160000000  0.5263000000000  0.4500380000000 1.0
C      1  0.4838390000000  0.5361410000000  0.4524630000000 1.0
C      1  0.4607090000000  0.5117940000000  0.4470790000000 1.0
C      1  0.4744500000000  0.4808990000000  0.4490790000000 1.0
C      1  0.5298440000000  0.4258810000000  0.4926020000000 1.0
C      1  0.5696240000000  0.4949240000000  0.4980770000000 1.0
C      1  0.5519400000000  0.5474850000000  0.4980550000000 1.0
C      1  0.5002570000000  0.5581550000000  0.4850650000000 1.0
C      1  0.4374030000000  0.5479840000000  0.4960370000000 1.0
C      1  0.4390900000000  0.4746800000000  0.4950710000000 1.0
C      1  0.4588750000000  0.4319580000000  0.4848690000000 1.0
C      1  0.4724570000000  0.4731920000000  0.4882640000000 1.0
C      1  0.5061740000000  0.4688720000000  0.4834890000000 1.0
C      1  0.5334320000000  0.4785540000000  0.4969250000000 1.0
C      1  0.5400620000000  0.5107840000000  0.4915150000000 1.0
C      1  0.5195760000000  0.5373070000000  0.4974090000000 1.0
C      1  0.4768030000000  0.5394520000000  0.4916750000000 1.0
C      1  0.4701620000000  0.5070020000000  0.4854370000000 1.0
C      1  0.5005910000000  0.5628680000000  0.4528690000000 1.0
C      1  0.4534540000000  0.5382520000000  0.4675890000000 1.0
C      1  0.4434480000000  0.4941370000000  0.4704670000000 1.0
C      1  0.4699000000000  0.4512790000000  0.4623820000000 1.0
C      1  0.5198220000000  0.4436850000000  0.4698150000000 1.0
C      1  0.5559620000000  0.4802420000000  0.4715140000000 1.0
C      1  0.5446800000000  0.5340420000000  0.4671400000000 1.0
C      1  0.5002360000000  0.4968560000000  0.4555740000000 1.0
C      1  0.5015200000000  0.5006070000000  0.4884930000000 1.0
C      1  0.4880680000000  0.4965470000000  0.5194540000000 1.0
C      1  0.5122690000000  0.5037880000000  0.4245300000000 1.0
END
