TITL C-1154830-9999-354 0.000433799096975361 125000 -322.097754181109 0 0 60 (C1) n - 1
REM
REM in /home/nfs/bkarasulu/CARBON/AIRSS/Generating-Clusters/AIREBO/Higher-Symm/Only-C60
REM
REM
REM
REM
REM
REM ./C.cell (28575a23ae977d3b5fae324c64b13b57)
REM
REM compiler GCC version 9.2.1 20190827 (Red Hat 9.2.1-1)
REM options -cpp -mtune=generic -march=x86-64 -g -O0 -fpre-include=/usr/include/finclude/math-vector-fortran.h
REM seed 1031519201 -1743938708 515785455 -662363396 -1145285629 -332505268 -846162398 1458919285 299412592 -660703166 -996484175 -1612619963 1506262143 -660504920 1536384876 290942171 -251182717 -1806801905 -1975411045 -76543968 -539401938 756850951 -1203341674 -1378246537 281800704 726287486 -1050188012 151791744 857346821 -142124919 -1788680979 107787076 351688333
REM
CELL 1.54180   50.00000   50.00000   50.00000   90.00000   90.00000   90.00000
LATT -1
SFAC C  
C      1  0.4366320000000  0.4951450000000  0.4879910000000 1.0
C      1  0.5298730000000  0.5481160000000  0.4824560000000 1.0
C      1  0.5266590000000  0.4575300000000  0.4854230000000 1.0
C      1  0.4314170000000  0.4880970000000  0.5191800000000 1.0
C      1  0.5207800000000  0.5465910000000  0.5141570000000 1.0
C      1  0.5225630000000  0.4521410000000  0.5177850000000 1.0
C      1  0.4802690000000  0.5058300000000  0.4564890000000 1.0
C      1  0.5186290000000  0.5162770000000  0.4524140000000 1.0
C      1  0.5055860000000  0.4863270000000  0.4537590000000 1.0
C      1  0.4762770000000  0.5057100000000  0.5433960000000 1.0
C      1  0.5147040000000  0.5154940000000  0.5406910000000 1.0
C      1  0.5092780000000  0.4838160000000  0.5477110000000 1.0
C      1  0.4475750000000  0.4684930000000  0.5324750000000 1.0
C      1  0.4919700000000  0.5633610000000  0.5167090000000 1.0
C      1  0.5529600000000  0.4670400000000  0.5139420000000 1.0
C      1  0.4434830000000  0.4707510000000  0.4675840000000 1.0
C      1  0.5000410000000  0.5644040000000  0.4835890000000 1.0
C      1  0.5585940000000  0.4684800000000  0.4813740000000 1.0
C      1  0.4395380000000  0.5204990000000  0.5184440000000 1.0
C      1  0.5499900000000  0.5327010000000  0.5131820000000 1.0
C      1  0.4948730000000  0.4351950000000  0.5218500000000 1.0
C      1  0.4461310000000  0.5277710000000  0.4865990000000 1.0
C      1  0.5599900000000  0.5351340000000  0.4822660000000 1.0
C      1  0.4964130000000  0.4437400000000  0.4888580000000 1.0
C      1  0.4841830000000  0.4917530000000  0.5134050000000 1.0
C      1  0.4958860000000  0.5236820000000  0.5135730000000 1.0
C      1  0.5175350000000  0.4852710000000  0.5147410000000 1.0
C      1  0.4701600000000  0.4960450000000  0.4830280000000 1.0
C      1  0.5052630000000  0.5250710000000  0.4808730000000 1.0
C      1  0.5240880000000  0.4894590000000  0.4814290000000 1.0
C      1  0.5304400000000  0.4458980000000  0.5567430000000 1.0
C      1  0.4516660000000  0.5038650000000  0.5649280000000 1.0
C      1  0.5282370000000  0.5436320000000  0.5532260000000 1.0
C      1  0.5270780000000  0.4474620000000  0.4460950000000 1.0
C      1  0.4536440000000  0.5076050000000  0.4353600000000 1.0
C      1  0.5332170000000  0.5454400000000  0.4427780000000 1.0
C      1  0.4854870000000  0.4672030000000  0.5609550000000 1.0
C      1  0.4803550000000  0.5339730000000  0.5567610000000 1.0
C      1  0.5394600000000  0.4948300000000  0.5585080000000 1.0
C      1  0.4821640000000  0.4669880000000  0.4423730000000 1.0
C      1  0.4846770000000  0.5362520000000  0.4419590000000 1.0
C      1  0.5421350000000  0.4948560000000  0.4403720000000 1.0
C      1  0.4558150000000  0.4774900000000  0.4426630000000 1.0
C      1  0.5049280000000  0.5536720000000  0.4516960000000 1.0
C      1  0.5445310000000  0.4691930000000  0.4516020000000 1.0
C      1  0.4575920000000  0.4742080000000  0.5588530000000 1.0
C      1  0.4992450000000  0.5516500000000  0.5474100000000 1.0
C      1  0.5460290000000  0.4663010000000  0.5469040000000 1.0
C      1  0.5576790000000  0.5232660000000  0.4508990000000 1.0
C      1  0.5001700000000  0.4467970000000  0.4555140000000 1.0
C      1  0.4534200000000  0.5351530000000  0.4552960000000 1.0
C      1  0.5535670000000  0.5223140000000  0.5453590000000 1.0
C      1  0.5025570000000  0.4445860000000  0.5515360000000 1.0
C      1  0.4477510000000  0.5330540000000  0.5474760000000 1.0
C      1  0.5476790000000  0.5000750000000  0.5200610000000 1.0
C      1  0.4724560000000  0.4596590000000  0.5166400000000 1.0
C      1  0.4675220000000  0.5397880000000  0.5194820000000 1.0
C      1  0.5539800000000  0.5019810000000  0.4776990000000 1.0
C      1  0.4693780000000  0.4622120000000  0.4850230000000 1.0
C      1  0.4757990000000  0.5406740000000  0.4804550000000 1.0
END
