TITL C-1154803-8277-138 0.000152419719300299 125000 -309.523252827297 0 0 60 (C1) n - 1
REM
REM in /home/nfs/bkarasulu/CARBON/AIRSS/Generating-Clusters/AIREBO/Higher-Symm/Only-C60
REM
REM
REM
REM
REM
REM ./C.cell (28575a23ae977d3b5fae324c64b13b57)
REM
REM compiler GCC version 9.2.1 20190827 (Red Hat 9.2.1-1)
REM options -cpp -mtune=generic -march=x86-64 -g -O0 -fpre-include=/usr/include/finclude/math-vector-fortran.h
REM seed 561647146 1070652749 -1875940926 74252791 487039758 344942851 -717159268 -1468044313 811053592 1406269293 999985188 -936697627 -8370188 1658125896 -1280252900 -1206319000 1248918349 1283524231 1250347441 -2109934769 340483347 1260861151 906910136 1354381975 -707303248 -1955407938 -321214440 832045145 -1510126691 -1408896637 132267106 -238674199 -81239465
REM
CELL 1.54180   50.00000   50.00000   50.00000   90.00000   90.00000   90.00000
LATT -1
SFAC C  
C      1  0.5055770000000  0.4890680000000  0.5367330000000 1.0
C      1  0.4768530000000  0.5540470000000  0.5092870000000 1.0
C      1  0.5496180000000  0.5113260000000  0.4937250000000 1.0
C      1  0.5050890000000  0.5142650000000  0.4697240000000 1.0
C      1  0.4824750000000  0.4707400000000  0.4545160000000 1.0
C      1  0.4741500000000  0.5232060000000  0.5475720000000 1.0
C      1  0.4675740000000  0.4580070000000  0.4813320000000 1.0
C      1  0.5260130000000  0.5348480000000  0.4869010000000 1.0
C      1  0.5249770000000  0.4718500000000  0.5162300000000 1.0
C      1  0.5551410000000  0.4788940000000  0.5240900000000 1.0
C      1  0.4592390000000  0.5287960000000  0.5225370000000 1.0
C      1  0.4511340000000  0.4823170000000  0.4970500000000 1.0
C      1  0.4800400000000  0.4720850000000  0.5458360000000 1.0
C      1  0.5083760000000  0.5418250000000  0.5129480000000 1.0
C      1  0.4559380000000  0.5118820000000  0.4931320000000 1.0
C      1  0.4748720000000  0.5224630000000  0.4701010000000 1.0
C      1  0.5096210000000  0.4845360000000  0.4618420000000 1.0
C      1  0.5061630000000  0.5233230000000  0.5414060000000 1.0
C      1  0.5298900000000  0.4670640000000  0.4828390000000 1.0
C      1  0.4763560000000  0.5525780000000  0.4770670000000 1.0
C      1  0.4666380000000  0.4304240000000  0.5009100000000 1.0
C      1  0.4511140000000  0.4753530000000  0.5295320000000 1.0
C      1  0.5627360000000  0.5092210000000  0.5237960000000 1.0
C      1  0.5563720000000  0.4870930000000  0.4755180000000 1.0
C      1  0.4833530000000  0.5749710000000  0.5352860000000 1.0
C      1  0.5785890000000  0.5474960000000  0.4939290000000 1.0
C      1  0.5219750000000  0.4949720000000  0.5645950000000 1.0
C      1  0.4855530000000  0.4331240000000  0.4666260000000 1.0
C      1  0.5196440000000  0.5577930000000  0.4620460000000 1.0
C      1  0.5148630000000  0.4430260000000  0.5238500000000 1.0
C      1  0.5750540000000  0.4633900000000  0.5133780000000 1.0
C      1  0.4286620000000  0.5438780000000  0.5263330000000 1.0
C      1  0.4278280000000  0.4603690000000  0.4851410000000 1.0
C      1  0.5384170000000  0.5147350000000  0.4318020000000 1.0
C      1  0.4653580000000  0.4860570000000  0.4365010000000 1.0
C      1  0.4620260000000  0.5094940000000  0.5679270000000 1.0
C      1  0.5149690000000  0.5733630000000  0.5247070000000 1.0
C      1  0.4323480000000  0.5356640000000  0.4943050000000 1.0
C      1  0.4710810000000  0.4798390000000  0.5775620000000 1.0
C      1  0.5166360000000  0.4402600000000  0.4666510000000 1.0
C      1  0.4937130000000  0.5681170000000  0.4633280000000 1.0
C      1  0.4873240000000  0.4268340000000  0.5182400000000 1.0
C      1  0.4277770000000  0.4576180000000  0.5178800000000 1.0
C      1  0.5853120000000  0.5240960000000  0.5063160000000 1.0
C      1  0.5802620000000  0.4699420000000  0.4869740000000 1.0
C      1  0.4620930000000  0.5161670000000  0.4441760000000 1.0
C      1  0.5279770000000  0.4849780000000  0.4358350000000 1.0
C      1  0.5337410000000  0.5214550000000  0.5612140000000 1.0
C      1  0.4445170000000  0.4847360000000  0.5587200000000 1.0
C      1  0.5571080000000  0.4927850000000  0.4459870000000 1.0
C      1  0.5231380000000  0.5318530000000  0.4472410000000 1.0
C      1  0.5518900000000  0.4418540000000  0.4889050000000 1.0
C      1  0.4450070000000  0.5042600000000  0.4194580000000 1.0
C      1  0.5579800000000  0.5236080000000  0.5501110000000 1.0
C      1  0.4908360000000  0.4438850000000  0.5445280000000 1.0
C      1  0.5048440000000  0.5559230000000  0.5509970000000 1.0
C      1  0.4990920000000  0.4451890000000  0.4394480000000 1.0
C      1  0.5528850000000  0.5554830000000  0.4898230000000 1.0
C      1  0.4374240000000  0.4329050000000  0.5000250000000 1.0
C      1  0.4447700000000  0.5646690000000  0.5055360000000 1.0
END
