TITL C-1154825-9328-363 0.00200958160578629 125000 -340.523068414614 0 0 60 (C1) n - 1
REM
REM in /home/nfs/bkarasulu/CARBON/AIRSS/Generating-Clusters/AIREBO/Higher-Symm/Only-C60
REM
REM
REM
REM
REM
REM ./C.cell (28575a23ae977d3b5fae324c64b13b57)
REM
REM compiler GCC version 9.2.1 20190827 (Red Hat 9.2.1-1)
REM options -cpp -mtune=generic -march=x86-64 -g -O0 -fpre-include=/usr/include/finclude/math-vector-fortran.h
REM seed 480725135 -1141873406 116853632 1271242674 1158580128 -55996083 -1242125377 -943041464 -1705059138 -1489634248 77846756 -1412935626 -126077111 1368067596 676224042 329844886 912491920 -623141369 1549903861 130860675 207205108 1815604339 -1780007119 2064639160 1079252689 -358794924 -1192163211 948508380 808853786 1351188818 -1847746633 -1341749440 1853324010
REM
CELL 1.54180   50.00000   50.00000   50.00000   90.00000   90.00000   90.00000
LATT -1
SFAC C  
C      1  0.5222890000000  0.4245820000000  0.5141050000000 1.0
C      1  0.5204730000000  0.4960370000000  0.4997630000000 1.0
C      1  0.4537700000000  0.4805980000000  0.5187310000000 1.0
C      1  0.4420280000000  0.5659290000000  0.4855180000000 1.0
C      1  0.4564840000000  0.5347120000000  0.5314410000000 1.0
C      1  0.4956860000000  0.4200810000000  0.5239870000000 1.0
C      1  0.4671250000000  0.4345530000000  0.5318600000000 1.0
C      1  0.4428060000000  0.4797270000000  0.5837980000000 1.0
C      1  0.5594400000000  0.5099110000000  0.4958120000000 1.0
C      1  0.5032260000000  0.4808000000000  0.5149410000000 1.0
C      1  0.5122080000000  0.4670250000000  0.5404510000000 1.0
C      1  0.4783800000000  0.4782190000000  0.5015250000000 1.0
C      1  0.4593840000000  0.5001200000000  0.5726120000000 1.0
C      1  0.5517850000000  0.5827720000000  0.4733800000000 1.0
C      1  0.4801960000000  0.5515880000000  0.5323660000000 1.0
C      1  0.4890340000000  0.4910840000000  0.5741440000000 1.0
C      1  0.4936400000000  0.5656710000000  0.5168100000000 1.0
C      1  0.4423570000000  0.5379180000000  0.5022850000000 1.0
C      1  0.5371330000000  0.4761220000000  0.4377370000000 1.0
C      1  0.5435800000000  0.4819650000000  0.4845870000000 1.0
C      1  0.4459520000000  0.4517170000000  0.5265130000000 1.0
C      1  0.5356090000000  0.4476290000000  0.5318140000000 1.0
C      1  0.4935840000000  0.4427040000000  0.5469280000000 1.0
C      1  0.5352640000000  0.5008110000000  0.5681010000000 1.0
C      1  0.5490120000000  0.5569330000000  0.5198770000000 1.0
C      1  0.5068320000000  0.5138830000000  0.4834960000000 1.0
C      1  0.4808420000000  0.4041620000000  0.4533840000000 1.0
C      1  0.5385820000000  0.5638870000000  0.4888400000000 1.0
C      1  0.5719530000000  0.4810820000000  0.5028580000000 1.0
C      1  0.5061260000000  0.5134790000000  0.4340630000000 1.0
C      1  0.4355480000000  0.5091180000000  0.5154440000000 1.0
C      1  0.4968950000000  0.5010840000000  0.4608550000000 1.0
C      1  0.4875250000000  0.5640270000000  0.4618240000000 1.0
C      1  0.4561600000000  0.5247710000000  0.5866180000000 1.0
C      1  0.4626080000000  0.5266060000000  0.4558130000000 1.0
C      1  0.4920210000000  0.5361360000000  0.4900040000000 1.0
C      1  0.5129640000000  0.4858820000000  0.5635520000000 1.0
C      1  0.5467350000000  0.4327950000000  0.4485310000000 1.0
C      1  0.4821300000000  0.4756080000000  0.4700760000000 1.0
C      1  0.4627840000000  0.5735240000000  0.4691180000000 1.0
C      1  0.5308320000000  0.4975720000000  0.4269190000000 1.0
C      1  0.4826810000000  0.5219220000000  0.4122940000000 1.0
C      1  0.4530010000000  0.5037740000000  0.5437440000000 1.0
C      1  0.5005780000000  0.4519460000000  0.4635750000000 1.0
C      1  0.4869230000000  0.5409820000000  0.4399800000000 1.0
C      1  0.5567690000000  0.5518770000000  0.5454940000000 1.0
C      1  0.4595390000000  0.5068560000000  0.4141130000000 1.0
C      1  0.5542630000000  0.5352230000000  0.4979000000000 1.0
C      1  0.5656070000000  0.5084140000000  0.5746450000000 1.0
C      1  0.4528020000000  0.5037510000000  0.4419540000000 1.0
C      1  0.4556500000000  0.4786040000000  0.4547330000000 1.0
C      1  0.5703090000000  0.5698280000000  0.5603480000000 1.0
C      1  0.5085550000000  0.5636990000000  0.4875440000000 1.0
C      1  0.4372790000000  0.4583700000000  0.4542180000000 1.0
C      1  0.5473260000000  0.5283280000000  0.5562370000000 1.0
C      1  0.5335440000000  0.4560750000000  0.4649350000000 1.0
C      1  0.4652910000000  0.5336730000000  0.4821130000000 1.0
C      1  0.5576420000000  0.4570990000000  0.5125590000000 1.0
C      1  0.5405780000000  0.4391390000000  0.4934150000000 1.0
C      1  0.4906790000000  0.4276160000000  0.4597170000000 1.0
END
