TITL C-1154801-8518-499 2.25992645204792 125000 -293.470176635079 0 0 60 (C2) n - 1
REM
REM in /home/nfs/bkarasulu/CARBON/AIRSS/Generating-Clusters/AIREBO/Higher-Symm/Only-C60
REM
REM
REM
REM
REM
REM ./C.cell (28575a23ae977d3b5fae324c64b13b57)
REM
REM compiler GCC version 9.2.1 20190827 (Red Hat 9.2.1-1)
REM options -cpp -mtune=generic -march=x86-64 -g -O0 -fpre-include=/usr/include/finclude/math-vector-fortran.h
REM seed -1933205266 1280286559 -1768272189 -871817504 986120517 595565283 1997051180 -571269241 -951103837 -449996336 260667194 -449768594 -1286835447 -671046312 653910057 -1505695254 1463795534 -937604755 2079012442 1913109889 693493386 -2127084170 -938289251 402063555 1005329377 188780399 570855682 -2036949186 364536707 -520615251 1534018661 1988621833 1306396238
REM
CELL 1.54180   50.00000   50.00000   50.00000   90.00000   90.00000   90.00000
LATT -1
SFAC C  
C      1  0.4812490000000  0.5330220000000  0.5158320000000 1.0
C      1  0.4753650000000  0.5314620000000  0.4758690000000 1.0
C      1  0.4656930000000  0.4757980000000  0.4584230000000 1.0
C      1  0.4677490000000  0.4676490000000  0.4913740000000 1.0
C      1  0.4691220000000  0.4784970000000  0.5298350000000 1.0
C      1  0.5187520000000  0.5330220000000  0.4841700000000 1.0
C      1  0.5246360000000  0.5314610000000  0.5241320000000 1.0
C      1  0.5343060000000  0.4757950000000  0.5415760000000 1.0
C      1  0.5322490000000  0.4676470000000  0.5086240000000 1.0
C      1  0.5308770000000  0.4784970000000  0.4701640000000 1.0
C      1  0.4908670000000  0.5830950000000  0.4822500000000 1.0
C      1  0.4749960000000  0.5139100000000  0.4326060000000 1.0
C      1  0.4764440000000  0.4200210000000  0.4759180000000 1.0
C      1  0.4901680000000  0.4479800000000  0.5611740000000 1.0
C      1  0.4684400000000  0.5362960000000  0.5615100000000 1.0
C      1  0.5091350000000  0.5830940000000  0.5177530000000 1.0
C      1  0.5250040000000  0.5139070000000  0.5673950000000 1.0
C      1  0.5235530000000  0.4200200000000  0.5240790000000 1.0
C      1  0.5098300000000  0.4479820000000  0.4388230000000 1.0
C      1  0.5315610000000  0.5362980000000  0.4384910000000 1.0
C      1  0.4530190000000  0.5239850000000  0.5078310000000 1.0
C      1  0.4442780000000  0.5177080000000  0.4752690000000 1.0
C      1  0.4382400000000  0.4881080000000  0.4746740000000 1.0
C      1  0.4381330000000  0.4761150000000  0.5057740000000 1.0
C      1  0.4458760000000  0.5017810000000  0.5265360000000 1.0
C      1  0.5469810000000  0.5239830000000  0.4921700000000 1.0
C      1  0.5557230000000  0.5177050000000  0.5247320000000 1.0
C      1  0.5617600000000  0.4881050000000  0.5253260000000 1.0
C      1  0.5618660000000  0.4761130000000  0.4942250000000 1.0
C      1  0.5541240000000  0.5017810000000  0.4734640000000 1.0
C      1  0.4775630000000  0.4396890000000  0.5340310000000 1.0
C      1  0.4717410000000  0.5055600000000  0.5723630000000 1.0
C      1  0.4743700000000  0.5721840000000  0.5013050000000 1.0
C      1  0.4757830000000  0.5460880000000  0.4352750000000 1.0
C      1  0.4519110000000  0.4241890000000  0.4689340000000 1.0
C      1  0.5224350000000  0.4396900000000  0.4659660000000 1.0
C      1  0.5282590000000  0.5055620000000  0.4276370000000 1.0
C      1  0.5256320000000  0.5721840000000  0.4986980000000 1.0
C      1  0.5242190000000  0.5460840000000  0.5647270000000 1.0
C      1  0.5480870000000  0.4241870000000  0.5310630000000 1.0
C      1  0.4460960000000  0.5131890000000  0.5547380000000 1.0
C      1  0.4573420000000  0.5526500000000  0.4906950000000 1.0
C      1  0.4496230000000  0.5290490000000  0.4456890000000 1.0
C      1  0.4452090000000  0.4522700000000  0.4710890000000 1.0
C      1  0.4525470000000  0.4515130000000  0.5243440000000 1.0
C      1  0.5539040000000  0.5131900000000  0.4452630000000 1.0
C      1  0.5426600000000  0.5526480000000  0.5093080000000 1.0
C      1  0.5503780000000  0.5290450000000  0.5543120000000 1.0
C      1  0.5547890000000  0.4522670000000  0.5289090000000 1.0
C      1  0.5474520000000  0.4515120000000  0.4756540000000 1.0
C      1  0.4984010000000  0.5338500000000  0.5451850000000 1.0
C      1  0.5123510000000  0.5629400000000  0.4687980000000 1.0
C      1  0.5011860000000  0.5016250000000  0.4439560000000 1.0
C      1  0.4943480000000  0.4478110000000  0.4839540000000 1.0
C      1  0.5005120000000  0.4719820000000  0.5394170000000 1.0
C      1  0.5016000000000  0.5338510000000  0.4548160000000 1.0
C      1  0.4876510000000  0.5629400000000  0.5312050000000 1.0
C      1  0.4988140000000  0.5016230000000  0.5560440000000 1.0
C      1  0.5056500000000  0.4478100000000  0.5160440000000 1.0
C      1  0.4994870000000  0.4719840000000  0.4605820000000 1.0
END
