TITL C-1154825-9328-541 0.0010167970355296 125000 -345.25282535372 0 0 60 (C1) n - 1
REM
REM in /home/nfs/bkarasulu/CARBON/AIRSS/Generating-Clusters/AIREBO/Higher-Symm/Only-C60
REM
REM
REM
REM
REM
REM ./C.cell (28575a23ae977d3b5fae324c64b13b57)
REM
REM compiler GCC version 9.2.1 20190827 (Red Hat 9.2.1-1)
REM options -cpp -mtune=generic -march=x86-64 -g -O0 -fpre-include=/usr/include/finclude/math-vector-fortran.h
REM seed -458007115 -1053484772 -1488492706 -734221024 710837395 -1860203337 1252051441 1857993915 1084759587 -512473976 -800599670 -1966270374 -997303793 -542408357 -1577372327 -1491140978 -613049766 -1456817631 -1216559820 -819059297 -1133553084 -174204689 -2110525480 -1012475114 1937524543 408569546 -2135375153 1683271605 -1921427195 818852390 1844027793 -1376152143 1151312685
REM
CELL 1.54180   50.00000   50.00000   50.00000   90.00000   90.00000   90.00000
LATT -1
SFAC C  
C      1  0.5448850000000  0.5114200000000  0.4591920000000 1.0
C      1  0.5635630000000  0.5074820000000  0.5007950000000 1.0
C      1  0.5367840000000  0.5087410000000  0.5535730000000 1.0
C      1  0.4821630000000  0.5246430000000  0.5606250000000 1.0
C      1  0.4379410000000  0.5138640000000  0.5221740000000 1.0
C      1  0.4423230000000  0.5110200000000  0.4647380000000 1.0
C      1  0.4904150000000  0.5225970000000  0.4322830000000 1.0
C      1  0.5461670000000  0.5357260000000  0.5353160000000 1.0
C      1  0.5023710000000  0.5438830000000  0.5597320000000 1.0
C      1  0.4476350000000  0.5409510000000  0.5369230000000 1.0
C      1  0.4396090000000  0.5397590000000  0.4820820000000 1.0
C      1  0.4740630000000  0.5435430000000  0.4419570000000 1.0
C      1  0.5297940000000  0.5383620000000  0.4481630000000 1.0
C      1  0.5585950000000  0.5375910000000  0.4860060000000 1.0
C      1  0.4232370000000  0.5350530000000  0.5041850000000 1.0
C      1  0.4466620000000  0.5354970000000  0.4433030000000 1.0
C      1  0.5155260000000  0.5325940000000  0.4246120000000 1.0
C      1  0.5682080000000  0.5361440000000  0.4581940000000 1.0
C      1  0.5701380000000  0.5291100000000  0.5231970000000 1.0
C      1  0.5261540000000  0.5348130000000  0.5696860000000 1.0
C      1  0.4562860000000  0.5350050000000  0.5620360000000 1.0
C      1  0.4858420000000  0.5026120000000  0.5392990000000 1.0
C      1  0.4684980000000  0.5079570000000  0.5108910000000 1.0
C      1  0.4708770000000  0.5038620000000  0.4774300000000 1.0
C      1  0.4928910000000  0.5010320000000  0.4540030000000 1.0
C      1  0.5144820000000  0.5106850000000  0.4744160000000 1.0
C      1  0.5318070000000  0.5015610000000  0.5007510000000 1.0
C      1  0.5163830000000  0.5008660000000  0.5306290000000 1.0
C      1  0.4869430000000  0.5579850000000  0.4643750000000 1.0
C      1  0.5168870000000  0.5550320000000  0.4684740000000 1.0
C      1  0.5356890000000  0.5548140000000  0.4924910000000 1.0
C      1  0.5288140000000  0.5526930000000  0.5202610000000 1.0
C      1  0.5003190000000  0.5614050000000  0.5335800000000 1.0
C      1  0.4670200000000  0.5593500000000  0.5217610000000 1.0
C      1  0.4644220000000  0.5581020000000  0.4875240000000 1.0
C      1  0.4680490000000  0.4754040000000  0.5423120000000 1.0
C      1  0.4441680000000  0.4684530000000  0.4995920000000 1.0
C      1  0.4614420000000  0.4617070000000  0.4564400000000 1.0
C      1  0.5108280000000  0.4737660000000  0.4495420000000 1.0
C      1  0.5499950000000  0.4642100000000  0.4786040000000 1.0
C      1  0.5490070000000  0.4641760000000  0.5249810000000 1.0
C      1  0.5146740000000  0.4605350000000  0.5567920000000 1.0
C      1  0.5616510000000  0.4753250000000  0.5019570000000 1.0
C      1  0.5392930000000  0.4751410000000  0.5504850000000 1.0
C      1  0.4898530000000  0.4708230000000  0.5670840000000 1.0
C      1  0.4417550000000  0.4819790000000  0.5247110000000 1.0
C      1  0.4418490000000  0.4776840000000  0.4714820000000 1.0
C      1  0.4804300000000  0.4679520000000  0.4355240000000 1.0
C      1  0.5398720000000  0.4806060000000  0.4578710000000 1.0
C      1  0.4658940000000  0.4484620000000  0.5012190000000 1.0
C      1  0.4776230000000  0.4460030000000  0.4755110000000 1.0
C      1  0.5050670000000  0.4496670000000  0.4709420000000 1.0
C      1  0.5310140000000  0.4388030000000  0.4849370000000 1.0
C      1  0.5302190000000  0.4435140000000  0.5161520000000 1.0
C      1  0.5074010000000  0.4435280000000  0.5334830000000 1.0
C      1  0.4811080000000  0.4511620000000  0.5245800000000 1.0
C      1  0.5398740000000  0.4136940000000  0.4764990000000 1.0
C      1  0.4929630000000  0.5491860000000  0.5029080000000 1.0
C      1  0.5011780000000  0.4869680000000  0.5030220000000 1.0
C      1  0.4969810000000  0.5207020000000  0.5021220000000 1.0
END
