TITL C-1154823-9327-248 0.00134382905154396 125000 -348.795679102954 0 0 60 (C2) n - 1
REM
REM in /home/nfs/bkarasulu/CARBON/AIRSS/Generating-Clusters/AIREBO/Higher-Symm/Only-C60
REM
REM
REM
REM
REM
REM ./C.cell (28575a23ae977d3b5fae324c64b13b57)
REM
REM compiler GCC version 9.2.1 20190827 (Red Hat 9.2.1-1)
REM options -cpp -mtune=generic -march=x86-64 -g -O0 -fpre-include=/usr/include/finclude/math-vector-fortran.h
REM seed 727264407 1589292163 198910658 1460996499 257143406 -837666538 799328260 1300697928 1747618919 1634793832 1706758259 -609366317 -1215155527 1364540069 -912238919 2074121854 1179943346 -921265525 -1701153912 2123068667 1433489143 -508554439 -220553522 -705072055 -208285592 1308543200 -1819786921 -477918777 1223669960 1817741716 -123092588 -1849743028 1092789917
REM
CELL 1.54180   50.00000   50.00000   50.00000   90.00000   90.00000   90.00000
LATT -1
SFAC C  
C      1  0.5479810000000  0.4446500000000  0.5122890000000 1.0
C      1  0.5443590000000  0.5398690000000  0.5425210000000 1.0
C      1  0.5485420000000  0.5120630000000  0.4498170000000 1.0
C      1  0.4520050000000  0.4446610000000  0.4877120000000 1.0
C      1  0.4556510000000  0.5398790000000  0.4574770000000 1.0
C      1  0.4514610000000  0.5120770000000  0.5501820000000 1.0
C      1  0.4532520000000  0.5526590000000  0.4853830000000 1.0
C      1  0.4503200000000  0.4645690000000  0.4644370000000 1.0
C      1  0.4550670000000  0.4817120000000  0.5542210000000 1.0
C      1  0.5467610000000  0.5526480000000  0.5146150000000 1.0
C      1  0.5496710000000  0.4645580000000  0.5355640000000 1.0
C      1  0.5449280000000  0.4816990000000  0.4457800000000 1.0
C      1  0.4777020000000  0.4722900000000  0.4992800000000 1.0
C      1  0.4814700000000  0.5129130000000  0.5240910000000 1.0
C      1  0.4783050000000  0.5136430000000  0.4765530000000 1.0
C      1  0.5222910000000  0.4722850000000  0.5007210000000 1.0
C      1  0.5185330000000  0.5129070000000  0.4759090000000 1.0
C      1  0.5216980000000  0.5136390000000  0.5234460000000 1.0
C      1  0.5215730000000  0.5267230000000  0.4988810000000 1.0
C      1  0.5212270000000  0.4858130000000  0.4769520000000 1.0
C      1  0.5187430000000  0.4865910000000  0.5238530000000 1.0
C      1  0.4784330000000  0.5267280000000  0.5011180000000 1.0
C      1  0.4787700000000  0.4858190000000  0.5230480000000 1.0
C      1  0.4812530000000  0.4865950000000  0.4761470000000 1.0
C      1  0.5217510000000  0.4384200000000  0.4504090000000 1.0
C      1  0.5256880000000  0.4868350000000  0.5772500000000 1.0
C      1  0.5251860000000  0.5732780000000  0.4727000000000 1.0
C      1  0.4782340000000  0.4384270000000  0.5495930000000 1.0
C      1  0.4743090000000  0.4868390000000  0.4227500000000 1.0
C      1  0.4748320000000  0.5732850000000  0.5272980000000 1.0
C      1  0.4728140000000  0.5608170000000  0.5491060000000 1.0
C      1  0.4779100000000  0.5117640000000  0.4228680000000 1.0
C      1  0.4766050000000  0.4256920000000  0.5279290000000 1.0
C      1  0.5272010000000  0.5608080000000  0.4508920000000 1.0
C      1  0.5220930000000  0.5117620000000  0.5771310000000 1.0
C      1  0.5233760000000  0.4256850000000  0.4720730000000 1.0
C      1  0.4351200000000  0.4843330000000  0.5267450000000 1.0
C      1  0.4334230000000  0.5327430000000  0.5021460000000 1.0
C      1  0.4321110000000  0.4896120000000  0.4729590000000 1.0
C      1  0.5648760000000  0.4843150000000  0.4732550000000 1.0
C      1  0.5665850000000  0.5327260000000  0.4978530000000 1.0
C      1  0.5678860000000  0.4895960000000  0.5270410000000 1.0
C      1  0.5677550000000  0.5167940000000  0.4741910000000 1.0
C      1  0.5657570000000  0.4706170000000  0.4996490000000 1.0
C      1  0.5641250000000  0.5187070000000  0.5265380000000 1.0
C      1  0.4322490000000  0.5168120000000  0.5258090000000 1.0
C      1  0.4342350000000  0.4706330000000  0.5003520000000 1.0
C      1  0.4358800000000  0.5187220000000  0.4734620000000 1.0
C      1  0.5201520000000  0.5307730000000  0.4489540000000 1.0
C      1  0.5169750000000  0.4403870000000  0.4989200000000 1.0
C      1  0.5137510000000  0.5279330000000  0.5513410000000 1.0
C      1  0.4798560000000  0.5307800000000  0.5510450000000 1.0
C      1  0.4830100000000  0.4403920000000  0.5010820000000 1.0
C      1  0.4862560000000  0.5279340000000  0.4486580000000 1.0
C      1  0.4862350000000  0.4688730000000  0.5493780000000 1.0
C      1  0.4829920000000  0.5585870000000  0.5009140000000 1.0
C      1  0.4798120000000  0.4703420000000  0.4484830000000 1.0
C      1  0.5137570000000  0.4688670000000  0.4506230000000 1.0
C      1  0.5170230000000  0.5585820000000  0.4990840000000 1.0
C      1  0.5201810000000  0.4703390000000  0.5515180000000 1.0
END
