TITL C-1154803-8277-422 0.0647340076389578 125000 -343.739261383181 0 0 60 (C1) n - 1
REM
REM in /home/nfs/bkarasulu/CARBON/AIRSS/Generating-Clusters/AIREBO/Higher-Symm/Only-C60
REM
REM
REM
REM
REM
REM ./C.cell (28575a23ae977d3b5fae324c64b13b57)
REM
REM compiler GCC version 9.2.1 20190827 (Red Hat 9.2.1-1)
REM options -cpp -mtune=generic -march=x86-64 -g -O0 -fpre-include=/usr/include/finclude/math-vector-fortran.h
REM seed 2100585124 -1887796720 -1189921952 960299342 -163516730 777017622 -940511743 -1097138423 -149290620 26488929 1716719369 253237976 -1714828867 1782512865 2119805364 -991027125 -1882309020 -262221229 -94666818 717130609 1074167162 -979063317 -218651802 1816383814 -411349949 1016043933 -1998706628 466802777 -1256811716 -1828742452 -1186563602 2029293495 -641728108
REM
CELL 1.54180   50.00000   50.00000   50.00000   90.00000   90.00000   90.00000
LATT -1
SFAC C  
C      1  0.5488640000000  0.5276720000000  0.4759180000000 1.0
C      1  0.4266740000000  0.5255050000000  0.4716050000000 1.0
C      1  0.5252430000000  0.5403900000000  0.5728950000000 1.0
C      1  0.5289850000000  0.4531820000000  0.4311300000000 1.0
C      1  0.4387590000000  0.4686870000000  0.4772920000000 1.0
C      1  0.5223180000000  0.4814740000000  0.5836710000000 1.0
C      1  0.4282820000000  0.5402880000000  0.5004700000000 1.0
C      1  0.5706070000000  0.5315770000000  0.5438410000000 1.0
C      1  0.5244640000000  0.5414720000000  0.4611580000000 1.0
C      1  0.4481850000000  0.4584670000000  0.5064700000000 1.0
C      1  0.5511780000000  0.4686920000000  0.5936040000000 1.0
C      1  0.4994350000000  0.4633330000000  0.4432100000000 1.0
C      1  0.4460670000000  0.5111410000000  0.4561900000000 1.0
C      1  0.4977750000000  0.5224020000000  0.5669380000000 1.0
C      1  0.5684860000000  0.5289510000000  0.4946300000000 1.0
C      1  0.4436410000000  0.4825590000000  0.4537700000000 1.0
C      1  0.4985530000000  0.4914100000000  0.5752970000000 1.0
C      1  0.5923700000000  0.5152930000000  0.4911690000000 1.0
C      1  0.4702090000000  0.4521310000000  0.5214610000000 1.0
C      1  0.4991210000000  0.4165970000000  0.5061360000000 1.0
C      1  0.4748330000000  0.4526330000000  0.4322360000000 1.0
C      1  0.4443540000000  0.5548250000000  0.5171300000000 1.0
C      1  0.5958030000000  0.5331950000000  0.5545970000000 1.0
C      1  0.4782770000000  0.5497910000000  0.4461700000000 1.0
C      1  0.4705520000000  0.5665180000000  0.4271470000000 1.0
C      1  0.4648530000000  0.5479590000000  0.5415760000000 1.0
C      1  0.5541570000000  0.5683650000000  0.5179180000000 1.0
C      1  0.4729470000000  0.4257850000000  0.4267980000000 1.0
C      1  0.4717170000000  0.4601920000000  0.5482710000000 1.0
C      1  0.5441720000000  0.4348280000000  0.4223690000000 1.0
C      1  0.4889580000000  0.5363520000000  0.4936390000000 1.0
C      1  0.4761760000000  0.5555750000000  0.5128460000000 1.0
C      1  0.4991660000000  0.5501110000000  0.4670330000000 1.0
C      1  0.5104800000000  0.4621210000000  0.4952070000000 1.0
C      1  0.4934530000000  0.4429760000000  0.5074410000000 1.0
C      1  0.5365580000000  0.4636770000000  0.5042750000000 1.0
C      1  0.4509310000000  0.5198770000000  0.5786840000000 1.0
C      1  0.6368610000000  0.4870750000000  0.4879870000000 1.0
C      1  0.4281040000000  0.4783900000000  0.3830380000000 1.0
C      1  0.4513050000000  0.4921090000000  0.5795370000000 1.0
C      1  0.6141440000000  0.5001070000000  0.4890100000000 1.0
C      1  0.4391120000000  0.4730050000000  0.4062050000000 1.0
C      1  0.4740750000000  0.4782980000000  0.5694990000000 1.0
C      1  0.5604560000000  0.4669430000000  0.5145220000000 1.0
C      1  0.4524220000000  0.4694180000000  0.4302000000000 1.0
C      1  0.4704520000000  0.5334850000000  0.5635870000000 1.0
C      1  0.5643380000000  0.5433070000000  0.5188060000000 1.0
C      1  0.4717000000000  0.5222270000000  0.4535960000000 1.0
C      1  0.5189230000000  0.4962200000000  0.5252600000000 1.0
C      1  0.5028510000000  0.4782790000000  0.4720530000000 1.0
C      1  0.4612400000000  0.4959990000000  0.5156420000000 1.0
C      1  0.5206250000000  0.5133010000000  0.5447060000000 1.0
C      1  0.4945930000000  0.5107330000000  0.4719080000000 1.0
C      1  0.4811580000000  0.5090230000000  0.5092950000000 1.0
C      1  0.5263130000000  0.5082930000000  0.4605430000000 1.0
C      1  0.4159050000000  0.5108970000000  0.4984130000000 1.0
C      1  0.5486100000000  0.5202820000000  0.5598840000000 1.0
C      1  0.5273350000000  0.4827070000000  0.4451890000000 1.0
C      1  0.4330320000000  0.4877210000000  0.5034590000000 1.0
C      1  0.5498430000000  0.4961770000000  0.5774660000000 1.0
END
