TITL C-1154804-8633-141 0.0028801799208929 125000 -336.712690044167 0 0 60 (C1) n - 1
REM
REM in /home/nfs/bkarasulu/CARBON/AIRSS/Generating-Clusters/AIREBO/Higher-Symm/Only-C60
REM
REM
REM
REM
REM
REM ./C.cell (28575a23ae977d3b5fae324c64b13b57)
REM
REM compiler GCC version 9.2.1 20190827 (Red Hat 9.2.1-1)
REM options -cpp -mtune=generic -march=x86-64 -g -O0 -fpre-include=/usr/include/finclude/math-vector-fortran.h
REM seed -106474649 -1499022222 392382840 585478384 1516462449 470423090 -253719228 -1942860399 -66302247 1880535526 -1952629357 -893547739 1293710430 2115107919 1237587070 -566504484 -1897229943 280291765 -545112194 740017948 1575294312 -298985113 4734586 -1289873855 -1151442485 1480605806 -111663548 448084393 -1540208785 -1980838805 -745865492 -1660567555 1388066829
REM
CELL 1.54180   50.00000   50.00000   50.00000   90.00000   90.00000   90.00000
LATT -1
SFAC C  
C      1  0.5393610000000  0.4926840000000  0.5060480000000 1.0
C      1  0.5357240000000  0.5084660000000  0.4575490000000 1.0
C      1  0.4952330000000  0.5146040000000  0.4272160000000 1.0
C      1  0.4584960000000  0.4976490000000  0.4911050000000 1.0
C      1  0.4666270000000  0.5082680000000  0.5519910000000 1.0
C      1  0.5080090000000  0.5123270000000  0.5737080000000 1.0
C      1  0.4575380000000  0.4956230000000  0.5239400000000 1.0
C      1  0.4706980000000  0.5076830000000  0.4383310000000 1.0
C      1  0.5167090000000  0.4993320000000  0.4353400000000 1.0
C      1  0.5381600000000  0.4862760000000  0.4789640000000 1.0
C      1  0.5311740000000  0.5055840000000  0.5593430000000 1.0
C      1  0.4851630000000  0.4971500000000  0.5689110000000 1.0
C      1  0.5482890000000  0.4408740000000  0.4896360000000 1.0
C      1  0.5348260000000  0.4571920000000  0.4042010000000 1.0
C      1  0.4483680000000  0.4599810000000  0.4241300000000 1.0
C      1  0.4439000000000  0.4496520000000  0.5109780000000 1.0
C      1  0.4675230000000  0.4513090000000  0.5944790000000 1.0
C      1  0.5623340000000  0.4636600000000  0.5719210000000 1.0
C      1  0.4542970000000  0.4507630000000  0.4856130000000 1.0
C      1  0.4704730000000  0.4425350000000  0.4123190000000 1.0
C      1  0.5544610000000  0.4402870000000  0.4204360000000 1.0
C      1  0.5408150000000  0.4459650000000  0.5155350000000 1.0
C      1  0.5387070000000  0.4484800000000  0.5813900000000 1.0
C      1  0.4451080000000  0.4393080000000  0.5779100000000 1.0
C      1  0.4980260000000  0.5626890000000  0.5302270000000 1.0
C      1  0.5430110000000  0.5299980000000  0.5426280000000 1.0
C      1  0.5424100000000  0.5408260000000  0.4937470000000 1.0
C      1  0.5018230000000  0.5475870000000  0.4710170000000 1.0
C      1  0.4555360000000  0.5313680000000  0.4521460000000 1.0
C      1  0.4540640000000  0.5283400000000  0.5152720000000 1.0
C      1  0.5164310000000  0.5486750000000  0.5463780000000 1.0
C      1  0.4729070000000  0.5501940000000  0.5285040000000 1.0
C      1  0.4465680000000  0.5232350000000  0.4795810000000 1.0
C      1  0.4840340000000  0.5455940000000  0.4497600000000 1.0
C      1  0.5250920000000  0.5327980000000  0.4734390000000 1.0
C      1  0.5512390000000  0.5200760000000  0.5140240000000 1.0
C      1  0.4591420000000  0.4565910000000  0.5561470000000 1.0
C      1  0.5138740000000  0.4577360000000  0.5696710000000 1.0
C      1  0.5384670000000  0.4723010000000  0.5246290000000 1.0
C      1  0.5391290000000  0.4541550000000  0.4434830000000 1.0
C      1  0.4875640000000  0.4600870000000  0.4295130000000 1.0
C      1  0.4608680000000  0.4754400000000  0.4744220000000 1.0
C      1  0.5367830000000  0.4771080000000  0.5536720000000 1.0
C      1  0.4863300000000  0.4676140000000  0.5718690000000 1.0
C      1  0.4519490000000  0.4663670000000  0.5318390000000 1.0
C      1  0.4659110000000  0.4793230000000  0.4456090000000 1.0
C      1  0.5153390000000  0.4702980000000  0.4285350000000 1.0
C      1  0.5426660000000  0.4601060000000  0.4700080000000 1.0
C      1  0.4248590000000  0.5366930000000  0.5103290000000 1.0
C      1  0.5031980000000  0.5879790000000  0.5222510000000 1.0
C      1  0.5652780000000  0.5424450000000  0.5552970000000 1.0
C      1  0.5523560000000  0.5663400000000  0.4956270000000 1.0
C      1  0.4961390000000  0.5655580000000  0.4903780000000 1.0
C      1  0.4353230000000  0.5437500000000  0.4370520000000 1.0
C      1  0.5798870000000  0.5173580000000  0.5133720000000 1.0
C      1  0.5052070000000  0.5405120000000  0.5717310000000 1.0
C      1  0.4633870000000  0.5361900000000  0.5532220000000 1.0
C      1  0.4155380000000  0.5301470000000  0.4852540000000 1.0
C      1  0.4964560000000  0.5440790000000  0.4220920000000 1.0
C      1  0.5612130000000  0.5147890000000  0.4462830000000 1.0
END
