TITL C-1154827-9204-358 -0.00118132761210951 125000 -304.542490647508 0 0 60 (C1) n - 1
REM
REM in /home/nfs/bkarasulu/CARBON/AIRSS/Generating-Clusters/AIREBO/Higher-Symm/Only-C60
REM
REM
REM
REM
REM
REM ./C.cell (28575a23ae977d3b5fae324c64b13b57)
REM
REM compiler GCC version 9.2.1 20190827 (Red Hat 9.2.1-1)
REM options -cpp -mtune=generic -march=x86-64 -g -O0 -fpre-include=/usr/include/finclude/math-vector-fortran.h
REM seed 640042054 690722180 690946693 -767719438 1979766325 1709647415 564996947 1533472909 -38433879 -1283280013 -1137401999 172160137 941298256 -431558790 -736120749 -2058904981 -614527622 -1654042914 -1802748283 -1498493233 -1456252936 238432203 -1306050576 1100437569 1457986931 -222940036 -1183955462 311694352 1649745231 -1408923670 -1650070759 -1214656934 1281039129
REM
CELL 1.54180   50.00000   50.00000   50.00000   90.00000   90.00000   90.00000
LATT -1
SFAC C  
C      1  0.5569000000000  0.5340370000000  0.5097420000000 1.0
C      1  0.5454260000000  0.4528160000000  0.5241750000000 1.0
C      1  0.4830610000000  0.4252900000000  0.5167270000000 1.0
C      1  0.4404920000000  0.4671240000000  0.5091960000000 1.0
C      1  0.4406180000000  0.5441170000000  0.5204050000000 1.0
C      1  0.5199960000000  0.5768580000000  0.5144310000000 1.0
C      1  0.5560380000000  0.5477590000000  0.4843640000000 1.0
C      1  0.5540180000000  0.4527900000000  0.4833910000000 1.0
C      1  0.4912390000000  0.4287780000000  0.4878650000000 1.0
C      1  0.4437300000000  0.4458980000000  0.4876530000000 1.0
C      1  0.4479360000000  0.5486430000000  0.4812620000000 1.0
C      1  0.5095900000000  0.5705220000000  0.4895620000000 1.0
C      1  0.5281360000000  0.4739700000000  0.5729270000000 1.0
C      1  0.4783350000000  0.4637560000000  0.5656590000000 1.0
C      1  0.4307790000000  0.5089950000000  0.5645440000000 1.0
C      1  0.4797580000000  0.5196970000000  0.5699260000000 1.0
C      1  0.5319210000000  0.5487980000000  0.5610710000000 1.0
C      1  0.5756030000000  0.4917100000000  0.5610120000000 1.0
C      1  0.5149440000000  0.4472280000000  0.4299510000000 1.0
C      1  0.4606510000000  0.4579330000000  0.4380080000000 1.0
C      1  0.4535290000000  0.5091570000000  0.4183850000000 1.0
C      1  0.4854950000000  0.5546930000000  0.4305660000000 1.0
C      1  0.5402780000000  0.5434320000000  0.4394850000000 1.0
C      1  0.5486660000000  0.4924200000000  0.4210540000000 1.0
C      1  0.5280480000000  0.4954620000000  0.4367870000000 1.0
C      1  0.5105220000000  0.4730820000000  0.4453530000000 1.0
C      1  0.4788680000000  0.4801790000000  0.4490750000000 1.0
C      1  0.4728440000000  0.5061600000000  0.4356880000000 1.0
C      1  0.4899440000000  0.5284370000000  0.4452310000000 1.0
C      1  0.5215230000000  0.5214750000000  0.4501820000000 1.0
C      1  0.5459730000000  0.4924010000000  0.5553450000000 1.0
C      1  0.5060030000000  0.4646880000000  0.5605110000000 1.0
C      1  0.4646000000000  0.4775360000000  0.5462120000000 1.0
C      1  0.4563210000000  0.5059950000000  0.5534430000000 1.0
C      1  0.5017990000000  0.5290390000000  0.5540410000000 1.0
C      1  0.5326830000000  0.5182130000000  0.5464880000000 1.0
C      1  0.5084520000000  0.4669410000000  0.5298120000000 1.0
C      1  0.4795170000000  0.4739090000000  0.5169450000000 1.0
C      1  0.4594720000000  0.5158560000000  0.5219270000000 1.0
C      1  0.4884220000000  0.5337670000000  0.5263650000000 1.0
C      1  0.5180000000000  0.5289100000000  0.5174850000000 1.0
C      1  0.5361130000000  0.4856840000000  0.5235060000000 1.0
C      1  0.5114050000000  0.4713820000000  0.4767650000000 1.0
C      1  0.4793990000000  0.4774400000000  0.4830710000000 1.0
C      1  0.4713300000000  0.5081210000000  0.4896660000000 1.0
C      1  0.4889190000000  0.5292200000000  0.4767190000000 1.0
C      1  0.5209020000000  0.5222540000000  0.4842420000000 1.0
C      1  0.5280860000000  0.4923110000000  0.4902260000000 1.0
C      1  0.4680180000000  0.5543170000000  0.5153060000000 1.0
C      1  0.5379700000000  0.5534400000000  0.5287520000000 1.0
C      1  0.5596050000000  0.5064490000000  0.5103340000000 1.0
C      1  0.5165410000000  0.4382810000000  0.5170650000000 1.0
C      1  0.4630580000000  0.4455380000000  0.5226430000000 1.0
C      1  0.4377320000000  0.4946520000000  0.5066240000000 1.0
C      1  0.4799710000000  0.5588400000000  0.4867070000000 1.0
C      1  0.5283100000000  0.5543920000000  0.4759640000000 1.0
C      1  0.5576250000000  0.4794590000000  0.4905110000000 1.0
C      1  0.5219860000000  0.4423190000000  0.4855330000000 1.0
C      1  0.4706880000000  0.4457370000000  0.4776170000000 1.0
C      1  0.4422150000000  0.5216890000000  0.4864970000000 1.0
END
