TITL C-1154808-8168-650 -0.000616355643204627 125000 -335.709132737189 0 0 60 (C1) n - 1
REM
REM in /home/nfs/bkarasulu/CARBON/AIRSS/Generating-Clusters/AIREBO/Higher-Symm/Only-C60
REM
REM
REM
REM
REM
REM ./C.cell (28575a23ae977d3b5fae324c64b13b57)
REM
REM compiler GCC version 9.2.1 20190827 (Red Hat 9.2.1-1)
REM options -cpp -mtune=generic -march=x86-64 -g -O0 -fpre-include=/usr/include/finclude/math-vector-fortran.h
REM seed -1037821762 138490100 1381977150 2022605635 -243336987 1228637689 394308077 -437111216 -712448649 1442916567 -1348539601 1036056228 209446750 -223174677 965628405 -2043049744 829451338 -1515903187 -728485909 729247808 -269605818 -2028553369 645654424 1868046423 1170480906 910416187 -1310946311 1404133339 -600982944 1173169055 -975650556 -1426742318 -208480105
REM
CELL 1.54180   50.00000   50.00000   50.00000   90.00000   90.00000   90.00000
LATT -1
SFAC C  
C      1  0.4470300000000  0.4990300000000  0.4627580000000 1.0
C      1  0.5516450000000  0.4981040000000  0.5384890000000 1.0
C      1  0.5257290000000  0.5540770000000  0.5411270000000 1.0
C      1  0.4688340000000  0.4458590000000  0.4585780000000 1.0
C      1  0.5088480000000  0.5491760000000  0.4498770000000 1.0
C      1  0.4915510000000  0.4583810000000  0.5485980000000 1.0
C      1  0.5201820000000  0.5481430000000  0.4796000000000 1.0
C      1  0.4753550000000  0.4508570000000  0.5217500000000 1.0
C      1  0.5010900000000  0.5285850000000  0.4964050000000 1.0
C      1  0.4974440000000  0.4641590000000  0.5021830000000 1.0
C      1  0.4632280000000  0.4758430000000  0.5401890000000 1.0
C      1  0.5356310000000  0.5289660000000  0.4570410000000 1.0
C      1  0.4981660000000  0.4930010000000  0.5202770000000 1.0
C      1  0.4975330000000  0.5038390000000  0.4728780000000 1.0
C      1  0.5296850000000  0.4578090000000  0.5787360000000 1.0
C      1  0.4726540000000  0.5414990000000  0.4201950000000 1.0
C      1  0.4931750000000  0.5292600000000  0.5609810000000 1.0
C      1  0.5119800000000  0.4718470000000  0.4470350000000 1.0
C      1  0.5402120000000  0.5685780000000  0.4898530000000 1.0
C      1  0.4537260000000  0.4312950000000  0.5142330000000 1.0
C      1  0.4814640000000  0.5513110000000  0.4451990000000 1.0
C      1  0.5177840000000  0.4518700000000  0.5538420000000 1.0
C      1  0.4735170000000  0.5479290000000  0.5433980000000 1.0
C      1  0.5357270000000  0.4496440000000  0.4539630000000 1.0
C      1  0.4701850000000  0.4856880000000  0.4818310000000 1.0
C      1  0.5278830000000  0.5094960000000  0.5189440000000 1.0
C      1  0.5567190000000  0.4674440000000  0.5297770000000 1.0
C      1  0.4430850000000  0.5305240000000  0.4700240000000 1.0
C      1  0.4905610000000  0.4964170000000  0.4402060000000 1.0
C      1  0.5239130000000  0.5237110000000  0.5690040000000 1.0
C      1  0.5351270000000  0.4505180000000  0.5314760000000 1.0
C      1  0.4643400000000  0.5477570000000  0.4677200000000 1.0
C      1  0.4459450000000  0.4569350000000  0.4607990000000 1.0
C      1  0.5505090000000  0.5493370000000  0.5371960000000 1.0
C      1  0.4481700000000  0.4922910000000  0.5145090000000 1.0
C      1  0.5489590000000  0.5120210000000  0.4833700000000 1.0
C      1  0.4409770000000  0.4701320000000  0.4897430000000 1.0
C      1  0.5555220000000  0.5280710000000  0.5118890000000 1.0
C      1  0.5594920000000  0.4893460000000  0.5059790000000 1.0
C      1  0.4308100000000  0.5079230000000  0.4911820000000 1.0
C      1  0.4597720000000  0.4915940000000  0.5668110000000 1.0
C      1  0.5403700000000  0.5122790000000  0.4315720000000 1.0
C      1  0.4731210000000  0.5138130000000  0.4176810000000 1.0
C      1  0.5427360000000  0.4815800000000  0.5837210000000 1.0
C      1  0.5068930000000  0.5308270000000  0.5298860000000 1.0
C      1  0.4921540000000  0.4638260000000  0.4697640000000 1.0
C      1  0.5610820000000  0.5582550000000  0.5000830000000 1.0
C      1  0.4343350000000  0.4417790000000  0.5016810000000 1.0
C      1  0.4738380000000  0.5083960000000  0.5190740000000 1.0
C      1  0.5264850000000  0.4902990000000  0.4793920000000 1.0
C      1  0.4780440000000  0.5528170000000  0.4937030000000 1.0
C      1  0.5226250000000  0.4444130000000  0.5051810000000 1.0
C      1  0.4569130000000  0.4933020000000  0.4350910000000 1.0
C      1  0.5415180000000  0.5034010000000  0.5661930000000 1.0
C      1  0.4689990000000  0.5363830000000  0.5189270000000 1.0
C      1  0.5315200000000  0.4623750000000  0.4805020000000 1.0
C      1  0.5190080000000  0.4172810000000  0.4995450000000 1.0
C      1  0.4842260000000  0.5795510000000  0.4989360000000 1.0
C      1  0.5272860000000  0.4917100000000  0.4255060000000 1.0
C      1  0.4746910000000  0.5094470000000  0.5759230000000 1.0
END
