TITL C-1154829-9094-162 0.00126492003554368 125000 -334.70528083977 0 0 60 (C1) n - 1
REM
REM in /home/nfs/bkarasulu/CARBON/AIRSS/Generating-Clusters/AIREBO/Higher-Symm/Only-C60
REM
REM
REM
REM
REM
REM ./C.cell (28575a23ae977d3b5fae324c64b13b57)
REM
REM compiler GCC version 9.2.1 20190827 (Red Hat 9.2.1-1)
REM options -cpp -mtune=generic -march=x86-64 -g -O0 -fpre-include=/usr/include/finclude/math-vector-fortran.h
REM seed 380665275 -2054474617 -1869211626 -1663819080 1160589327 1017195840 360437622 638756989 991722082 -975827220 291315529 2091473763 -167742310 -314577976 -421956058 245331575 977827286 -923559057 1582278798 -315516773 -1190362450 -660721663 -1928481686 -849288727 -1188960968 -110698289 -1474873148 1208168528 1013615565 416672116 53872468 311003007 138998106
REM
CELL 1.54180   50.00000   50.00000   50.00000   90.00000   90.00000   90.00000
LATT -1
SFAC C  
C      1  0.4714210000000  0.5197530000000  0.5317680000000 1.0
C      1  0.4619530000000  0.5197020000000  0.4805100000000 1.0
C      1  0.5150120000000  0.5681930000000  0.5324080000000 1.0
C      1  0.5288870000000  0.5607290000000  0.4642990000000 1.0
C      1  0.5134020000000  0.4353070000000  0.5183520000000 1.0
C      1  0.5072700000000  0.4390520000000  0.4668650000000 1.0
C      1  0.5305820000000  0.4533480000000  0.5410870000000 1.0
C      1  0.5221980000000  0.4559010000000  0.4413770000000 1.0
C      1  0.5596810000000  0.5403020000000  0.5458730000000 1.0
C      1  0.5555360000000  0.5037810000000  0.4628870000000 1.0
C      1  0.4960740000000  0.5276170000000  0.5122700000000 1.0
C      1  0.4904430000000  0.5350420000000  0.4819120000000 1.0
C      1  0.4346580000000  0.4855370000000  0.4557570000000 1.0
C      1  0.4328950000000  0.4962870000000  0.5443510000000 1.0
C      1  0.4588150000000  0.5034770000000  0.5537990000000 1.0
C      1  0.4557720000000  0.5047960000000  0.4548710000000 1.0
C      1  0.5426920000000  0.5298710000000  0.4665270000000 1.0
C      1  0.5416190000000  0.5507390000000  0.5219660000000 1.0
C      1  0.4969010000000  0.4737960000000  0.5709270000000 1.0
C      1  0.5041330000000  0.5080050000000  0.4381540000000 1.0
C      1  0.4675810000000  0.5512530000000  0.5272720000000 1.0
C      1  0.4399710000000  0.5403150000000  0.4893440000000 1.0
C      1  0.4888910000000  0.5855150000000  0.4795400000000 1.0
C      1  0.4829100000000  0.5910200000000  0.5058920000000 1.0
C      1  0.4670820000000  0.4492700000000  0.4586540000000 1.0
C      1  0.4703580000000  0.4279360000000  0.5371340000000 1.0
C      1  0.4631160000000  0.4612060000000  0.5360180000000 1.0
C      1  0.4850690000000  0.4693320000000  0.4535200000000 1.0
C      1  0.4883840000000  0.4566440000000  0.5159430000000 1.0
C      1  0.5076920000000  0.4720840000000  0.4749220000000 1.0
C      1  0.5365460000000  0.4779170000000  0.4713430000000 1.0
C      1  0.5285540000000  0.5021300000000  0.5453750000000 1.0
C      1  0.5400740000000  0.4639180000000  0.5135130000000 1.0
C      1  0.5485690000000  0.4479820000000  0.4615740000000 1.0
C      1  0.5209210000000  0.4746310000000  0.5567410000000 1.0
C      1  0.5162790000000  0.4804260000000  0.4311160000000 1.0
C      1  0.4414030000000  0.4598590000000  0.4665540000000 1.0
C      1  0.4428780000000  0.4800520000000  0.5161840000000 1.0
C      1  0.5026110000000  0.5625070000000  0.4715460000000 1.0
C      1  0.4876620000000  0.5709670000000  0.5255780000000 1.0
C      1  0.5539360000000  0.5178340000000  0.5561930000000 1.0
C      1  0.5686360000000  0.4755600000000  0.4590740000000 1.0
C      1  0.4722070000000  0.4791650000000  0.5593790000000 1.0
C      1  0.4786680000000  0.4941830000000  0.4426660000000 1.0
C      1  0.5115150000000  0.5253620000000  0.4588090000000 1.0
C      1  0.5197320000000  0.5288560000000  0.5280460000000 1.0
C      1  0.4868660000000  0.4172870000000  0.5102260000000 1.0
C      1  0.4806540000000  0.4236410000000  0.4767410000000 1.0
C      1  0.4973790000000  0.4829020000000  0.5023530000000 1.0
C      1  0.4404010000000  0.4560720000000  0.4942710000000 1.0
C      1  0.5308350000000  0.4432680000000  0.4902030000000 1.0
C      1  0.5537050000000  0.5479640000000  0.4929140000000 1.0
C      1  0.5746170000000  0.5682840000000  0.4858730000000 1.0
C      1  0.4639910000000  0.4403750000000  0.5002400000000 1.0
C      1  0.5484990000000  0.5161210000000  0.5034110000000 1.0
C      1  0.4176640000000  0.4942730000000  0.5030150000000 1.0
C      1  0.4437870000000  0.5552750000000  0.5121790000000 1.0
C      1  0.4687460000000  0.4995920000000  0.5049950000000 1.0
C      1  0.5280910000000  0.4929370000000  0.5129500000000 1.0
C      1  0.5905100000000  0.5871230000000  0.4792520000000 1.0
END
