TITL C-1154808-8168-221 -0.000388371578034735 125000 -333.125213203893 0 0 60 (C1) n - 1
REM
REM in /home/nfs/bkarasulu/CARBON/AIRSS/Generating-Clusters/AIREBO/Higher-Symm/Only-C60
REM
REM
REM
REM
REM
REM ./C.cell (28575a23ae977d3b5fae324c64b13b57)
REM
REM compiler GCC version 9.2.1 20190827 (Red Hat 9.2.1-1)
REM options -cpp -mtune=generic -march=x86-64 -g -O0 -fpre-include=/usr/include/finclude/math-vector-fortran.h
REM seed 960021172 -1759309136 1754161684 244184182 692338917 -1687828581 -232411573 76406939 -2046277358 -1126532404 -1438636677 1368832259 1557641120 1753649378 -2017570964 1029682329 1019024181 1832842070 782568638 36456474 -960416668 -1693271245 1037696639 743567432 953078383 1250792415 -1585106621 719449337 -832292914 -426653760 -1106979123 1688077947 -983563932
REM
CELL 1.54180   50.00000   50.00000   50.00000   90.00000   90.00000   90.00000
LATT -1
SFAC C  
C      1  0.4445500000000  0.5570250000000  0.4742790000000 1.0
C      1  0.4441520000000  0.4558590000000  0.5292970000000 1.0
C      1  0.4461730000000  0.4534920000000  0.4714190000000 1.0
C      1  0.4425740000000  0.5555220000000  0.5250930000000 1.0
C      1  0.5375340000000  0.5234760000000  0.5280880000000 1.0
C      1  0.5364460000000  0.4709980000000  0.4652830000000 1.0
C      1  0.5352690000000  0.4702850000000  0.5324030000000 1.0
C      1  0.5374150000000  0.5247590000000  0.4717510000000 1.0
C      1  0.5048430000000  0.5247320000000  0.4690670000000 1.0
C      1  0.5026400000000  0.4722040000000  0.5355330000000 1.0
C      1  0.5044310000000  0.4731490000000  0.4690450000000 1.0
C      1  0.5051600000000  0.5232960000000  0.5318610000000 1.0
C      1  0.4730980000000  0.4554780000000  0.5146170000000 1.0
C      1  0.4734170000000  0.5435060000000  0.4851810000000 1.0
C      1  0.4724870000000  0.5441310000000  0.5151670000000 1.0
C      1  0.4741610000000  0.4551830000000  0.4877220000000 1.0
C      1  0.5014380000000  0.5749170000000  0.4744880000000 1.0
C      1  0.4961590000000  0.4254150000000  0.5297100000000 1.0
C      1  0.5003110000000  0.4257030000000  0.4758470000000 1.0
C      1  0.4999390000000  0.5737720000000  0.5271020000000 1.0
C      1  0.4711920000000  0.4299460000000  0.4662170000000 1.0
C      1  0.4705330000000  0.5723550000000  0.5336560000000 1.0
C      1  0.4738330000000  0.5701700000000  0.4649380000000 1.0
C      1  0.4672150000000  0.4311100000000  0.5367840000000 1.0
C      1  0.4730080000000  0.4708080000000  0.4583220000000 1.0
C      1  0.4737700000000  0.5177930000000  0.5332980000000 1.0
C      1  0.4739160000000  0.5159940000000  0.4698990000000 1.0
C      1  0.4710860000000  0.4720250000000  0.5436890000000 1.0
C      1  0.5259180000000  0.4246610000000  0.4628650000000 1.0
C      1  0.5257800000000  0.5711190000000  0.5396210000000 1.0
C      1  0.5274170000000  0.5731850000000  0.4625020000000 1.0
C      1  0.5261410000000  0.4237590000000  0.5346130000000 1.0
C      1  0.5446110000000  0.5535830000000  0.5263330000000 1.0
C      1  0.5447900000000  0.4446800000000  0.4720720000000 1.0
C      1  0.5430910000000  0.4443740000000  0.5236320000000 1.0
C      1  0.5454850000000  0.5545490000000  0.4749940000000 1.0
C      1  0.5037630000000  0.5644120000000  0.5006660000000 1.0
C      1  0.5052400000000  0.4352700000000  0.5025970000000 1.0
C      1  0.5123610000000  0.5001900000000  0.4527810000000 1.0
C      1  0.5135180000000  0.4994310000000  0.5489460000000 1.0
C      1  0.4365000000000  0.5381820000000  0.4990200000000 1.0
C      1  0.4398910000000  0.4719100000000  0.4995910000000 1.0
C      1  0.5571290000000  0.5605740000000  0.5009990000000 1.0
C      1  0.5569120000000  0.4412750000000  0.4982280000000 1.0
C      1  0.4635120000000  0.4985550000000  0.5504670000000 1.0
C      1  0.4643370000000  0.4971330000000  0.4521730000000 1.0
C      1  0.5505610000000  0.4946350000000  0.4630480000000 1.0
C      1  0.5504470000000  0.4931400000000  0.5352170000000 1.0
C      1  0.5089590000000  0.4680270000000  0.5023740000000 1.0
C      1  0.5094140000000  0.5350840000000  0.5004160000000 1.0
C      1  0.5766120000000  0.4938700000000  0.4712800000000 1.0
C      1  0.5762240000000  0.4920570000000  0.5263330000000 1.0
C      1  0.4809360000000  0.5073750000000  0.5020350000000 1.0
C      1  0.4156380000000  0.4941400000000  0.5002580000000 1.0
C      1  0.4471950000000  0.5058080000000  0.4977980000000 1.0
C      1  0.6015030000000  0.5269450000000  0.5000180000000 1.0
C      1  0.5145880000000  0.5014710000000  0.4999270000000 1.0
C      1  0.5817080000000  0.5075750000000  0.4992760000000 1.0
C      1  0.5476430000000  0.5105370000000  0.4994850000000 1.0
C      1  0.3907960000000  0.4990510000000  0.5005070000000 1.0
END
