TITL C-1154821-8623-542 3.44497890332884 125000 -322.285389996859 0 0 60 (C2) n - 1
REM
REM in /home/nfs/bkarasulu/CARBON/AIRSS/Generating-Clusters/AIREBO/Higher-Symm/Only-C60
REM
REM
REM
REM
REM
REM ./C.cell (28575a23ae977d3b5fae324c64b13b57)
REM
REM compiler GCC version 9.2.1 20190827 (Red Hat 9.2.1-1)
REM options -cpp -mtune=generic -march=x86-64 -g -O0 -fpre-include=/usr/include/finclude/math-vector-fortran.h
REM seed 648105763 -113981775 -2085633080 -1409515932 1689175564 -922591375 -182076842 -1679498068 -417843008 469118873 461592863 -1867821242 1934940718 532382760 -1353185966 2073262590 1657885318 1086409590 -1624227498 1422361577 1191127804 -608128976 985363320 981628726 758638852 1391721737 -1801304641 957492255 -1525197214 -938759633 849098843 -206357366 1424315510
REM
CELL 1.54180   50.00000   50.00000   50.00000   90.00000   90.00000   90.00000
LATT -1
SFAC C  
C      1  0.5144390000000  0.5269990000000  0.5217750000000 1.0
C      1  0.5169310000000  0.4758000000000  0.5311170000000 1.0
C      1  0.5144180000000  0.4730060000000  0.4782160000000 1.0
C      1  0.5169300000000  0.5242010000000  0.4688680000000 1.0
C      1  0.4872570000000  0.4773440000000  0.5345030000000 1.0
C      1  0.4853320000000  0.5309520000000  0.5207710000000 1.0
C      1  0.4872520000000  0.5226580000000  0.4655020000000 1.0
C      1  0.4853120000000  0.4690570000000  0.4792340000000 1.0
C      1  0.4705440000000  0.4653200000000  0.4523740000000 1.0
C      1  0.4721200000000  0.5498310000000  0.4641850000000 1.0
C      1  0.4705740000000  0.5346810000000  0.5476350000000 1.0
C      1  0.4721300000000  0.4501690000000  0.5358240000000 1.0
C      1  0.5312330000000  0.5426650000000  0.4478020000000 1.0
C      1  0.5314720000000  0.4567230000000  0.4560260000000 1.0
C      1  0.5312530000000  0.4573480000000  0.5521770000000 1.0
C      1  0.5315030000000  0.5432680000000  0.5439710000000 1.0
C      1  0.5276430000000  0.4649660000000  0.5048990000000 1.0
C      1  0.5278990000000  0.4960490000000  0.4618070000000 1.0
C      1  0.5276520000000  0.5350340000000  0.4950830000000 1.0
C      1  0.5279120000000  0.5039460000000  0.5381770000000 1.0
C      1  0.4704970000000  0.5407680000000  0.4969230000000 1.0
C      1  0.4729760000000  0.4991840000000  0.4544240000000 1.0
C      1  0.4704890000000  0.4592360000000  0.5030880000000 1.0
C      1  0.4729870000000  0.5008140000000  0.5455980000000 1.0
C      1  0.5565260000000  0.5066400000000  0.4739480000000 1.0
C      1  0.5552380000000  0.5196110000000  0.5044280000000 1.0
C      1  0.5565380000000  0.4933780000000  0.5260230000000 1.0
C      1  0.5552320000000  0.4803810000000  0.4955550000000 1.0
C      1  0.4488750000000  0.4898760000000  0.4753020000000 1.0
C      1  0.4454010000000  0.4818030000000  0.5081490000000 1.0
C      1  0.4488800000000  0.5101290000000  0.5247270000000 1.0
C      1  0.4454060000000  0.5182020000000  0.4918820000000 1.0
C      1  0.4772320000000  0.5727990000000  0.4964050000000 1.0
C      1  0.4785230000000  0.5021980000000  0.5770820000000 1.0
C      1  0.4772210000000  0.4272050000000  0.5035980000000 1.0
C      1  0.4784940000000  0.4977840000000  0.4229350000000 1.0
C      1  0.5265750000000  0.4336640000000  0.5054440000000 1.0
C      1  0.5261040000000  0.5083040000000  0.5689280000000 1.0
C      1  0.5265860000000  0.5663370000000  0.4945390000000 1.0
C      1  0.5260790000000  0.4916850000000  0.4310580000000 1.0
C      1  0.4883840000000  0.4318100000000  0.5542940000000 1.0
C      1  0.4875620000000  0.4461640000000  0.4350690000000 1.0
C      1  0.4883580000000  0.5681930000000  0.4457040000000 1.0
C      1  0.4876010000000  0.5538290000000  0.5649410000000 1.0
C      1  0.5148040000000  0.5569950000000  0.5616310000000 1.0
C      1  0.5141270000000  0.5622980000000  0.4377190000000 1.0
C      1  0.5147660000000  0.4429960000000  0.4383730000000 1.0
C      1  0.5141570000000  0.4377070000000  0.5622670000000 1.0
C      1  0.5569220000000  0.5310420000000  0.4524350000000 1.0
C      1  0.5568580000000  0.5341190000000  0.5345470000000 1.0
C      1  0.5569390000000  0.4689760000000  0.5475470000000 1.0
C      1  0.5568360000000  0.4658490000000  0.4654440000000 1.0
C      1  0.4370340000000  0.4673840000000  0.4566630000000 1.0
C      1  0.4403730000000  0.4581370000000  0.5286760000000 1.0
C      1  0.4370610000000  0.5326330000000  0.5433630000000 1.0
C      1  0.4403670000000  0.5418660000000  0.4713530000000 1.0
C      1  0.5032500000000  0.4195190000000  0.5074280000000 1.0
C      1  0.5046970000000  0.4968470000000  0.4147780000000 1.0
C      1  0.5032600000000  0.5804820000000  0.4925630000000 1.0
C      1  0.5047310000000  0.5031410000000  0.5852220000000 1.0
END
