TITL C-1154823-9327-505 -690.982548428325 125000 -258.323417358196 0 0 60 (C1) n - 1
REM
REM in /home/nfs/bkarasulu/CARBON/AIRSS/Generating-Clusters/AIREBO/Higher-Symm/Only-C60
REM
REM
REM
REM
REM
REM ./C.cell (28575a23ae977d3b5fae324c64b13b57)
REM
REM compiler GCC version 9.2.1 20190827 (Red Hat 9.2.1-1)
REM options -cpp -mtune=generic -march=x86-64 -g -O0 -fpre-include=/usr/include/finclude/math-vector-fortran.h
REM seed 1134751151 -1056537913 1881987431 2121865921 -1429774231 -1254072746 -755820773 533318560 -1533231580 1423815872 -1982254209 -1134755489 -208121197 -29446945 -1908101724 -1026611223 -1447223417 1184807515 -1395014510 829001863 -1893784727 1926111966 -2000537775 -695338661 1665827378 1503909782 1564079808 -1619178554 -756593801 1502026310 1797721424 1532285307 907728402
REM
CELL 1.54180   50.00000   50.00000   50.00000   90.00000   90.00000   90.00000
LATT -1
SFAC C  
C      1  0.5736190000000  0.4718240000000  0.4919820000000 1.0
C      1  0.5732930000000  0.5282620000000  0.5084990000000 1.0
C      1  0.4269400000000  0.4720850000000  0.5081050000000 1.0
C      1  0.4263730000000  0.5284540000000  0.4918550000000 1.0
C      1  0.5765820000000  0.4904660000000  0.4697310000000 1.0
C      1  0.5763520000000  0.5099360000000  0.5307320000000 1.0
C      1  0.4237290000000  0.5097100000000  0.4697210000000 1.0
C      1  0.4233320000000  0.4901650000000  0.5304160000000 1.0
C      1  0.5611530000000  0.4552940000000  0.5202180000000 1.0
C      1  0.5614330000000  0.5448560000000  0.4801040000000 1.0
C      1  0.4386680000000  0.4550360000000  0.4799450000000 1.0
C      1  0.4390160000000  0.5446720000000  0.5201760000000 1.0
C      1  0.5598890000000  0.5187250000000  0.4577410000000 1.0
C      1  0.5598170000000  0.4815280000000  0.5424780000000 1.0
C      1  0.4400170000000  0.4812840000000  0.4576770000000 1.0
C      1  0.4402080000000  0.5183290000000  0.5423070000000 1.0
C      1  0.5138910000000  0.5085450000000  0.4719490000000 1.0
C      1  0.5136020000000  0.4914370000000  0.5288930000000 1.0
C      1  0.4858590000000  0.5085180000000  0.5283450000000 1.0
C      1  0.4865330000000  0.4909620000000  0.4707550000000 1.0
C      1  0.5128460000000  0.4692580000000  0.5096640000000 1.0
C      1  0.5122670000000  0.5315710000000  0.4900970000000 1.0
C      1  0.4870180000000  0.5308870000000  0.5096710000000 1.0
C      1  0.4877110000000  0.4681720000000  0.4897000000000 1.0
C      1  0.5203970000000  0.4503320000000  0.4753560000000 1.0
C      1  0.5202840000000  0.5498570000000  0.5245490000000 1.0
C      1  0.4797780000000  0.4502460000000  0.5244030000000 1.0
C      1  0.4799210000000  0.5495620000000  0.4751920000000 1.0
C      1  0.5205340000000  0.4750950000000  0.4518860000000 1.0
C      1  0.5206690000000  0.5253360000000  0.5483560000000 1.0
C      1  0.4792270000000  0.5249780000000  0.4515050000000 1.0
C      1  0.4796510000000  0.4747740000000  0.5481710000000 1.0
C      1  0.4577330000000  0.5223740000000  0.5035110000000 1.0
C      1  0.4584090000000  0.4769100000000  0.4961550000000 1.0
C      1  0.5418680000000  0.5230330000000  0.4965640000000 1.0
C      1  0.5421720000000  0.4774130000000  0.5036500000000 1.0
C      1  0.4561780000000  0.4952390000000  0.5231250000000 1.0
C      1  0.4565320000000  0.5040540000000  0.4767800000000 1.0
C      1  0.5436350000000  0.5044390000000  0.5232600000000 1.0
C      1  0.5437620000000  0.4957830000000  0.4769690000000 1.0
C      1  0.4762750000000  0.4169620000000  0.4858590000000 1.0
C      1  0.4776260000000  0.5823220000000  0.5141810000000 1.0
C      1  0.5223870000000  0.4176680000000  0.5144890000000 1.0
C      1  0.5239160000000  0.5829250000000  0.4858130000000 1.0
C      1  0.4772040000000  0.4854860000000  0.4189810000000 1.0
C      1  0.4782590000000  0.5146160000000  0.5803390000000 1.0
C      1  0.5214960000000  0.5148640000000  0.4196080000000 1.0
C      1  0.5222670000000  0.4856230000000  0.5806680000000 1.0
C      1  0.5392760000000  0.4999590000000  0.4382040000000 1.0
C      1  0.5400010000000  0.5009960000000  0.5621650000000 1.0
C      1  0.4605200000000  0.4993080000000  0.5619120000000 1.0
C      1  0.4596930000000  0.5007270000000  0.4378240000000 1.0
C      1  0.5394320000000  0.4378670000000  0.5006240000000 1.0
C      1  0.5405110000000  0.5625530000000  0.5003370000000 1.0
C      1  0.4607220000000  0.5619050000000  0.5003970000000 1.0
C      1  0.4596330000000  0.4374090000000  0.5001980000000 1.0
C      1  0.4995210000000  0.4377820000000  0.4993620000000 1.0
C      1  0.4994520000000  0.4995680000000  0.4404990000000 1.0
C      1  0.5006320000000  0.5621590000000  0.4993340000000 1.0
C      1  0.5002800000000  0.4999010000000  0.5590120000000 1.0
END
