TITL C-1154801-8518-204 -0.000422343994637218 125000 -317.5377178571 0 0 60 (C1) n - 1
REM
REM in /home/nfs/bkarasulu/CARBON/AIRSS/Generating-Clusters/AIREBO/Higher-Symm/Only-C60
REM
REM
REM
REM
REM
REM ./C.cell (28575a23ae977d3b5fae324c64b13b57)
REM
REM compiler GCC version 9.2.1 20190827 (Red Hat 9.2.1-1)
REM options -cpp -mtune=generic -march=x86-64 -g -O0 -fpre-include=/usr/include/finclude/math-vector-fortran.h
REM seed -132422172 -1010884548 -1156242664 -1885811225 862423876 1963774247 -278676475 1499538474 1770351605 -1035542493 1467277909 -1254656430 -199685154 523057579 -2072121366 -1184705845 629447285 -913340554 -951431585 -1047022109 -1003029978 -926991251 475199209 669606397 -1742948355 513293519 -1855415818 588205991 -1811212698 -2069389097 678821479 658068418 -294378441
REM
CELL 1.54180   50.00000   50.00000   50.00000   90.00000   90.00000   90.00000
LATT -1
SFAC C  
C      1  0.4922280000000  0.5287700000000  0.4528750000000 1.0
C      1  0.4637390000000  0.5392740000000  0.4679190000000 1.0
C      1  0.4588190000000  0.5324280000000  0.5005180000000 1.0
C      1  0.4931760000000  0.5403870000000  0.5544030000000 1.0
C      1  0.5248630000000  0.5341250000000  0.5447710000000 1.0
C      1  0.5453430000000  0.5407600000000  0.5180830000000 1.0
C      1  0.5370540000000  0.5297470000000  0.4704770000000 1.0
C      1  0.4760570000000  0.4216880000000  0.5199320000000 1.0
C      1  0.4931950000000  0.4403150000000  0.5328500000000 1.0
C      1  0.5194410000000  0.4424100000000  0.5242840000000 1.0
C      1  0.5253010000000  0.4365920000000  0.4958040000000 1.0
C      1  0.5125360000000  0.4467650000000  0.4684870000000 1.0
C      1  0.4850650000000  0.4267270000000  0.4683270000000 1.0
C      1  0.4675530000000  0.4246440000000  0.4930080000000 1.0
C      1  0.5333680000000  0.4680660000000  0.4613230000000 1.0
C      1  0.4831090000000  0.4576850000000  0.4552200000000 1.0
C      1  0.4629480000000  0.4567150000000  0.4826880000000 1.0
C      1  0.4558630000000  0.4677570000000  0.5140800000000 1.0
C      1  0.4814340000000  0.4640520000000  0.5476310000000 1.0
C      1  0.5426190000000  0.4604770000000  0.5402200000000 1.0
C      1  0.5525450000000  0.4574050000000  0.5077850000000 1.0
C      1  0.4849840000000  0.4912930000000  0.5275800000000 1.0
C      1  0.5167200000000  0.4819870000000  0.5354700000000 1.0
C      1  0.5403830000000  0.4884490000000  0.5119200000000 1.0
C      1  0.5362700000000  0.4968730000000  0.4792290000000 1.0
C      1  0.5043470000000  0.5048070000000  0.4706140000000 1.0
C      1  0.4737570000000  0.4941370000000  0.4727950000000 1.0
C      1  0.4634310000000  0.4987680000000  0.5023470000000 1.0
C      1  0.4830620000000  0.4832260000000  0.4358160000000 1.0
C      1  0.4332410000000  0.4722190000000  0.4885640000000 1.0
C      1  0.4509010000000  0.4782000000000  0.5437070000000 1.0
C      1  0.4908480000000  0.4682500000000  0.5793010000000 1.0
C      1  0.5529730000000  0.4902940000000  0.5497480000000 1.0
C      1  0.5700530000000  0.4750820000000  0.4887000000000 1.0
C      1  0.5374830000000  0.4731040000000  0.4347170000000 1.0
C      1  0.5687000000000  0.5065400000000  0.4758530000000 1.0
C      1  0.5314320000000  0.5007050000000  0.4301950000000 1.0
C      1  0.4552030000000  0.4949680000000  0.4473900000000 1.0
C      1  0.4308640000000  0.5045540000000  0.4944490000000 1.0
C      1  0.4531220000000  0.5069750000000  0.5459060000000 1.0
C      1  0.5020060000000  0.4944980000000  0.5634170000000 1.0
C      1  0.5684160000000  0.5009790000000  0.5265370000000 1.0
C      1  0.4788670000000  0.5161460000000  0.5582120000000 1.0
C      1  0.5331330000000  0.5080950000000  0.5606160000000 1.0
C      1  0.5620070000000  0.5214380000000  0.5058200000000 1.0
C      1  0.5508270000000  0.5152370000000  0.4469930000000 1.0
C      1  0.5022000000000  0.5055380000000  0.4309310000000 1.0
C      1  0.4415810000000  0.5165400000000  0.4656960000000 1.0
C      1  0.4381540000000  0.5199800000000  0.5244790000000 1.0
C      1  0.5329560000000  0.5631100000000  0.5021570000000 1.0
C      1  0.5257480000000  0.5543160000000  0.4766950000000 1.0
C      1  0.4997540000000  0.5561440000000  0.4666330000000 1.0
C      1  0.4752080000000  0.5658410000000  0.4859120000000 1.0
C      1  0.4637280000000  0.5613560000000  0.5176990000000 1.0
C      1  0.4832070000000  0.5664970000000  0.5428790000000 1.0
C      1  0.5153120000000  0.5635570000000  0.5306730000000 1.0
C      1  0.4943730000000  0.5495980000000  0.5088230000000 1.0
C      1  0.5025760000000  0.4911890000000  0.4997510000000 1.0
C      1  0.4968810000000  0.5221500000000  0.5054290000000 1.0
C      1  0.4922030000000  0.4617320000000  0.4992870000000 1.0
END
