TITL C-1154826-9507-516 -7.12861687303917e-05 125000 -338.067296084907 0 0 60 (C1) n - 1
REM
REM in /home/nfs/bkarasulu/CARBON/AIRSS/Generating-Clusters/AIREBO/Higher-Symm/Only-C60
REM
REM
REM
REM
REM
REM ./C.cell (28575a23ae977d3b5fae324c64b13b57)
REM
REM compiler GCC version 9.2.1 20190827 (Red Hat 9.2.1-1)
REM options -cpp -mtune=generic -march=x86-64 -g -O0 -fpre-include=/usr/include/finclude/math-vector-fortran.h
REM seed -1412237510 -570269722 751184723 1602367464 2056479615 1323845206 1672103395 -1792247504 105864535 1223143255 1796723305 1126030794 1355924137 -990067332 -680065243 1115245520 -690238810 -188314643 367143568 2125960459 1237734896 -1817578044 -530360710 -1089569782 973539959 -1864755940 1516695268 -815333430 302874664 -1655525502 2051400759 -1729991911 220411222
REM
CELL 1.54180   50.00000   50.00000   50.00000   90.00000   90.00000   90.00000
LATT -1
SFAC C  
C      1  0.5407920000000  0.4738880000000  0.4549000000000 1.0
C      1  0.5329040000000  0.5275920000000  0.4564000000000 1.0
C      1  0.4735140000000  0.4858550000000  0.4327530000000 1.0
C      1  0.4709270000000  0.5103520000000  0.4279740000000 1.0
C      1  0.5022920000000  0.4660480000000  0.5313960000000 1.0
C      1  0.5240650000000  0.5299460000000  0.5275650000000 1.0
C      1  0.5112340000000  0.5729100000000  0.5012420000000 1.0
C      1  0.5185140000000  0.4327280000000  0.5091060000000 1.0
C      1  0.5221740000000  0.4783980000000  0.5104040000000 1.0
C      1  0.5188970000000  0.5109290000000  0.5070720000000 1.0
C      1  0.5018930000000  0.4452670000000  0.4702160000000 1.0
C      1  0.4983940000000  0.5611670000000  0.4574460000000 1.0
C      1  0.5536850000000  0.5286750000000  0.4347240000000 1.0
C      1  0.5603430000000  0.4705660000000  0.4350140000000 1.0
C      1  0.5000890000000  0.5675080000000  0.5391800000000 1.0
C      1  0.4891990000000  0.4167760000000  0.5408960000000 1.0
C      1  0.5496500000000  0.5176900000000  0.4824260000000 1.0
C      1  0.5514720000000  0.4897150000000  0.4817330000000 1.0
C      1  0.4406780000000  0.5399660000000  0.4757060000000 1.0
C      1  0.4270070000000  0.4624250000000  0.4621780000000 1.0
C      1  0.4419080000000  0.5193140000000  0.5343880000000 1.0
C      1  0.4305110000000  0.4687130000000  0.5328360000000 1.0
C      1  0.5301850000000  0.5627050000000  0.5271690000000 1.0
C      1  0.5113180000000  0.4111820000000  0.5253960000000 1.0
C      1  0.4715480000000  0.5381250000000  0.4752910000000 1.0
C      1  0.4545890000000  0.4736850000000  0.4752650000000 1.0
C      1  0.4844030000000  0.5341510000000  0.4444720000000 1.0
C      1  0.4858340000000  0.4732970000000  0.4618520000000 1.0
C      1  0.4723440000000  0.4808900000000  0.5005440000000 1.0
C      1  0.4803990000000  0.5138750000000  0.4974220000000 1.0
C      1  0.5072200000000  0.5206520000000  0.4776030000000 1.0
C      1  0.5074360000000  0.4882230000000  0.4834560000000 1.0
C      1  0.4924710000000  0.4532520000000  0.5014590000000 1.0
C      1  0.4882710000000  0.5656970000000  0.4862520000000 1.0
C      1  0.4704330000000  0.5101160000000  0.5518210000000 1.0
C      1  0.4515980000000  0.4848090000000  0.5510710000000 1.0
C      1  0.5081560000000  0.4768110000000  0.5584390000000 1.0
C      1  0.4981870000000  0.5027550000000  0.5616440000000 1.0
C      1  0.5365760000000  0.5632220000000  0.4877020000000 1.0
C      1  0.5406300000000  0.4431100000000  0.4947370000000 1.0
C      1  0.4228260000000  0.5124020000000  0.5154700000000 1.0
C      1  0.4154710000000  0.4832740000000  0.5151410000000 1.0
C      1  0.5560870000000  0.5405340000000  0.5318760000000 1.0
C      1  0.5684450000000  0.4767760000000  0.5322800000000 1.0
C      1  0.4626290000000  0.4648910000000  0.5269060000000 1.0
C      1  0.4711600000000  0.5282580000000  0.5238080000000 1.0
C      1  0.4256340000000  0.5212710000000  0.4870140000000 1.0
C      1  0.4252310000000  0.4886700000000  0.4835170000000 1.0
C      1  0.5124740000000  0.4845780000000  0.4439780000000 1.0
C      1  0.5093870000000  0.5126400000000  0.4386560000000 1.0
C      1  0.5525570000000  0.4696840000000  0.5068620000000 1.0
C      1  0.5502030000000  0.5404060000000  0.4991910000000 1.0
C      1  0.5269120000000  0.5582880000000  0.4602980000000 1.0
C      1  0.5306460000000  0.4476560000000  0.4685910000000 1.0
C      1  0.5349600000000  0.4729880000000  0.5674330000000 1.0
C      1  0.5183810000000  0.5212550000000  0.5580020000000 1.0
C      1  0.5493630000000  0.5163360000000  0.5548430000000 1.0
C      1  0.5554200000000  0.4887350000000  0.5546560000000 1.0
C      1  0.4808460000000  0.5569740000000  0.5270250000000 1.0
C      1  0.4796290000000  0.4413990000000  0.5373020000000 1.0
END
