TITL C-1154802-8274-656 -0.0276040161227416 125000 -315.239770779627 0 0 60 (C1) n - 1
REM
REM in /home/nfs/bkarasulu/CARBON/AIRSS/Generating-Clusters/AIREBO/Higher-Symm/Only-C60
REM
REM
REM
REM
REM
REM ./C.cell (28575a23ae977d3b5fae324c64b13b57)
REM
REM compiler GCC version 9.2.1 20190827 (Red Hat 9.2.1-1)
REM options -cpp -mtune=generic -march=x86-64 -g -O0 -fpre-include=/usr/include/finclude/math-vector-fortran.h
REM seed -1201716753 145622364 -1941299737 1354611259 -1141664739 1457966952 -211813207 1158572354 1210233055 -997793381 -350289895 695215881 909616557 1075228639 118419247 511093484 222760166 1204861191 -163269355 305833713 -2130506683 -1914952576 1033484467 -1375092400 -355349416 212406783 158410743 -1238959183 -1901914393 -695282011 -1953061238 -816260483 -723275260
REM
CELL 1.54180   50.00000   50.00000   50.00000   90.00000   90.00000   90.00000
LATT -1
SFAC C  
C      1  0.5091290000000  0.4820610000000  0.4819550000000 1.0
C      1  0.4795640000000  0.4842940000000  0.4709740000000 1.0
C      1  0.5051290000000  0.5228210000000  0.4875240000000 1.0
C      1  0.5190480000000  0.5152980000000  0.5183880000000 1.0
C      1  0.4841520000000  0.5056690000000  0.5299030000000 1.0
C      1  0.5075980000000  0.4749990000000  0.5145930000000 1.0
C      1  0.5326030000000  0.4417590000000  0.5502260000000 1.0
C      1  0.4550720000000  0.5192870000000  0.5509500000000 1.0
C      1  0.5378840000000  0.5320680000000  0.5598120000000 1.0
C      1  0.5251070000000  0.5573160000000  0.4574470000000 1.0
C      1  0.4499450000000  0.4859040000000  0.4419660000000 1.0
C      1  0.5220460000000  0.4615260000000  0.4501640000000 1.0
C      1  0.4685120000000  0.5553370000000  0.4698620000000 1.0
C      1  0.5760540000000  0.5144240000000  0.4748160000000 1.0
C      1  0.4610150000000  0.4287670000000  0.4813880000000 1.0
C      1  0.4346750000000  0.4484700000000  0.5357170000000 1.0
C      1  0.5732580000000  0.5019310000000  0.5306610000000 1.0
C      1  0.4556540000000  0.5674580000000  0.5235640000000 1.0
C      1  0.5364960000000  0.5334140000000  0.4873430000000 1.0
C      1  0.5049910000000  0.4494080000000  0.4733950000000 1.0
C      1  0.4576160000000  0.5049770000000  0.4868180000000 1.0
C      1  0.5395090000000  0.4666100000000  0.5063050000000 1.0
C      1  0.5195260000000  0.5492410000000  0.5196760000000 1.0
C      1  0.4606380000000  0.4855800000000  0.5214950000000 1.0
C      1  0.4659700000000  0.4560280000000  0.4631010000000 1.0
C      1  0.4777080000000  0.5240840000000  0.4734670000000 1.0
C      1  0.5358130000000  0.5018420000000  0.4745730000000 1.0
C      1  0.4904600000000  0.5389830000000  0.5324830000000 1.0
C      1  0.4816040000000  0.4604690000000  0.5310210000000 1.0
C      1  0.5404840000000  0.4937760000000  0.5267400000000 1.0
C      1  0.4801280000000  0.4832230000000  0.4377140000000 1.0
C      1  0.5121200000000  0.5335100000000  0.4559990000000 1.0
C      1  0.5053650000000  0.4728110000000  0.4298420000000 1.0
C      1  0.4859290000000  0.5125540000000  0.5619910000000 1.0
C      1  0.5177760000000  0.4674670000000  0.5461930000000 1.0
C      1  0.5154790000000  0.5154130000000  0.5523530000000 1.0
C      1  0.4398840000000  0.4857370000000  0.4679270000000 1.0
C      1  0.5167140000000  0.5610090000000  0.4897950000000 1.0
C      1  0.5424510000000  0.4625210000000  0.4723070000000 1.0
C      1  0.4484080000000  0.5170510000000  0.5172630000000 1.0
C      1  0.5268340000000  0.4384250000000  0.5205020000000 1.0
C      1  0.5483940000000  0.5448300000000  0.5356500000000 1.0
C      1  0.4602120000000  0.4267670000000  0.4474340000000 1.0
C      1  0.4736480000000  0.5362490000000  0.4428550000000 1.0
C      1  0.5584270000000  0.5087070000000  0.4496150000000 1.0
C      1  0.4711870000000  0.5550140000000  0.5431740000000 1.0
C      1  0.4583610000000  0.4488680000000  0.5505210000000 1.0
C      1  0.5538860000000  0.4925890000000  0.5570250000000 1.0
C      1  0.5720840000000  0.4761220000000  0.5102050000000 1.0
C      1  0.4393290000000  0.4636040000000  0.5133400000000 1.0
C      1  0.4716840000000  0.5847200000000  0.5068660000000 1.0
C      1  0.5657220000000  0.5326280000000  0.4935400000000 1.0
C      1  0.4396490000000  0.5532180000000  0.4823930000000 1.0
C      1  0.4903860000000  0.4333560000000  0.4899420000000 1.0
C      1  0.4984220000000  0.4362630000000  0.5160650000000 1.0
C      1  0.4407350000000  0.5475900000000  0.5092230000000 1.0
C      1  0.5687190000000  0.5312120000000  0.5212000000000 1.0
C      1  0.4866370000000  0.5723400000000  0.4873550000000 1.0
C      1  0.4397180000000  0.4578210000000  0.4846340000000 1.0
C      1  0.5644530000000  0.4845770000000  0.4807510000000 1.0
END
