TITL C-1154824-75-260 0.00102551868885538 125000 -353.064875565382 0 0 60 (C1) n - 1
REM
REM in /home/nfs/bkarasulu/CARBON/AIRSS/Generating-Clusters/AIREBO/Higher-Symm/Only-C60
REM
REM
REM
REM
REM
REM ./C.cell (28575a23ae977d3b5fae324c64b13b57)
REM
REM compiler GCC version 9.2.1 20190827 (Red Hat 9.2.1-1)
REM options -cpp -mtune=generic -march=x86-64 -g -O0 -fpre-include=/usr/include/finclude/math-vector-fortran.h
REM seed 2108165706 1260984861 1231125082 -1692772723 1903059449 -1787926782 -309665801 709211411 775243688 968667652 490392420 -1866516331 -1883815248 504957209 463357936 -476456024 529852204 368437604 -1124223942 484347813 -2104424326 -1088650960 173288161 -462376756 773171198 753672437 -595587354 -344661685 -405567187 -371033386 483743142 -73049148 374147663
REM
CELL 1.54180   50.00000   50.00000   50.00000   90.00000   90.00000   90.00000
LATT -1
SFAC C  
C      1  0.4757180000000  0.4870680000000  0.5610330000000 1.0
C      1  0.5237780000000  0.4802990000000  0.5593410000000 1.0
C      1  0.5062440000000  0.5248390000000  0.5669490000000 1.0
C      1  0.4784160000000  0.5145020000000  0.5621200000000 1.0
C      1  0.5265830000000  0.5087000000000  0.5561380000000 1.0
C      1  0.4983560000000  0.4692790000000  0.5567340000000 1.0
C      1  0.5092440000000  0.5701460000000  0.4923600000000 1.0
C      1  0.4297270000000  0.4623380000000  0.4871880000000 1.0
C      1  0.5714890000000  0.4532540000000  0.4873440000000 1.0
C      1  0.5053100000000  0.4119870000000  0.4881990000000 1.0
C      1  0.4197300000000  0.5378840000000  0.4851110000000 1.0
C      1  0.5667280000000  0.5433590000000  0.4870460000000 1.0
C      1  0.4208460000000  0.5330160000000  0.5130800000000 1.0
C      1  0.5141140000000  0.4110830000000  0.5151830000000 1.0
C      1  0.5638210000000  0.5532930000000  0.5137140000000 1.0
C      1  0.4227120000000  0.4718680000000  0.5129870000000 1.0
C      1  0.5112200000000  0.5808970000000  0.5178880000000 1.0
C      1  0.5679170000000  0.4439610000000  0.5139690000000 1.0
C      1  0.5004770000000  0.5385230000000  0.4929190000000 1.0
C      1  0.4724940000000  0.4925130000000  0.5033180000000 1.0
C      1  0.5230150000000  0.4865980000000  0.5046890000000 1.0
C      1  0.4967980000000  0.4715350000000  0.5039000000000 1.0
C      1  0.4739210000000  0.5224620000000  0.5044280000000 1.0
C      1  0.5236400000000  0.5192180000000  0.4964550000000 1.0
C      1  0.5196050000000  0.4355170000000  0.5278870000000 1.0
C      1  0.5415140000000  0.5462050000000  0.5294700000000 1.0
C      1  0.4402730000000  0.5178040000000  0.5266080000000 1.0
C      1  0.5181470000000  0.5612250000000  0.5366030000000 1.0
C      1  0.5439340000000  0.4499280000000  0.5273360000000 1.0
C      1  0.4398380000000  0.4898450000000  0.5261280000000 1.0
C      1  0.5516750000000  0.5569110000000  0.4665110000000 1.0
C      1  0.4172380000000  0.5132260000000  0.4685340000000 1.0
C      1  0.5261810000000  0.4207110000000  0.4690080000000 1.0
C      1  0.5532280000000  0.4414340000000  0.4679540000000 1.0
C      1  0.4273590000000  0.4818670000000  0.4666530000000 1.0
C      1  0.5261340000000  0.5754460000000  0.4705750000000 1.0
C      1  0.4408430000000  0.5540310000000  0.4747480000000 1.0
C      1  0.4778250000000  0.4245280000000  0.4835920000000 1.0
C      1  0.5707710000000  0.5122180000000  0.4845630000000 1.0
C      1  0.4540800000000  0.4434910000000  0.4849970000000 1.0
C      1  0.4633840000000  0.5705000000000  0.4637010000000 1.0
C      1  0.5751310000000  0.4826630000000  0.4834440000000 1.0
C      1  0.5359450000000  0.5161630000000  0.5280200000000 1.0
C      1  0.4686330000000  0.5313650000000  0.5353710000000 1.0
C      1  0.4958840000000  0.4539980000000  0.5304030000000 1.0
C      1  0.5389170000000  0.4798820000000  0.5313480000000 1.0
C      1  0.4672700000000  0.4766260000000  0.5328020000000 1.0
C      1  0.4967150000000  0.5466120000000  0.5477450000000 1.0
C      1  0.5172440000000  0.5578430000000  0.4463420000000 1.0
C      1  0.4553690000000  0.4873250000000  0.4519890000000 1.0
C      1  0.5369940000000  0.4661580000000  0.4575650000000 1.0
C      1  0.5148490000000  0.4475100000000  0.4596490000000 1.0
C      1  0.4466020000000  0.5152360000000  0.4570410000000 1.0
C      1  0.5390490000000  0.5372600000000  0.4441630000000 1.0
C      1  0.5416250000000  0.5183730000000  0.4686110000000 1.0
C      1  0.4660570000000  0.5324340000000  0.4742190000000 1.0
C      1  0.4916250000000  0.4536310000000  0.4765900000000 1.0
C      1  0.5398080000000  0.4880720000000  0.4775600000000 1.0
C      1  0.4666950000000  0.4743570000000  0.4778690000000 1.0
C      1  0.4912620000000  0.5509800000000  0.4623100000000 1.0
END
