TITL C-1154802-8274-23 0.00771955207294094 125000 -362.304733791662 0 0 60 (C1) n - 1
REM
REM in /home/nfs/bkarasulu/CARBON/AIRSS/Generating-Clusters/AIREBO/Higher-Symm/Only-C60
REM
REM
REM
REM
REM
REM ./C.cell (28575a23ae977d3b5fae324c64b13b57)
REM
REM compiler GCC version 9.2.1 20190827 (Red Hat 9.2.1-1)
REM options -cpp -mtune=generic -march=x86-64 -g -O0 -fpre-include=/usr/include/finclude/math-vector-fortran.h
REM seed -1962337255 2000138623 -1921168988 551265854 1008553687 -114837453 -2034333723 1178462597 892467113 1838229131 -932549600 1161209577 -1227069813 862228782 -1571847321 1245221271 1280002704 -880553062 1173878929 82270306 2036277412 -1163758097 1614461317 -775023687 1661146876 -1767998042 -1620518302 1161997798 621970504 -458820899 -1699017443 1082989904 71064422
REM
CELL 1.54180   50.00000   50.00000   50.00000   90.00000   90.00000   90.00000
LATT -1
SFAC C  
C      1  0.5104380000000  0.5340410000000  0.5636840000000 1.0
C      1  0.5101230000000  0.5694950000000  0.4861120000000 1.0
C      1  0.5103320000000  0.5097540000000  0.4281540000000 1.0
C      1  0.5097580000000  0.4356440000000  0.4694270000000 1.0
C      1  0.5115710000000  0.4529910000000  0.5508970000000 1.0
C      1  0.4805990000000  0.5365570000000  0.5673110000000 1.0
C      1  0.4807260000000  0.5771680000000  0.4854500000000 1.0
C      1  0.4807820000000  0.5096200000000  0.4224850000000 1.0
C      1  0.4799420000000  0.4301660000000  0.4666570000000 1.0
C      1  0.4825570000000  0.4466960000000  0.5565990000000 1.0
C      1  0.5245030000000  0.4432600000000  0.5297000000000 1.0
C      1  0.5232180000000  0.5119780000000  0.5720830000000 1.0
C      1  0.5231740000000  0.5633010000000  0.5083500000000 1.0
C      1  0.5224020000000  0.5323830000000  0.4358660000000 1.0
C      1  0.5231670000000  0.4535680000000  0.4551780000000 1.0
C      1  0.4623590000000  0.4475180000000  0.5370470000000 1.0
C      1  0.4610590000000  0.5176370000000  0.5594610000000 1.0
C      1  0.4602960000000  0.5633550000000  0.5001050000000 1.0
C      1  0.4617350000000  0.5209900000000  0.4399510000000 1.0
C      1  0.4598100000000  0.4503180000000  0.4635370000000 1.0
C      1  0.4644330000000  0.4392760000000  0.5111740000000 1.0
C      1  0.4631720000000  0.4903330000000  0.5606410000000 1.0
C      1  0.4636290000000  0.5537040000000  0.5256700000000 1.0
C      1  0.4637620000000  0.5439880000000  0.4546870000000 1.0
C      1  0.4635510000000  0.4726110000000  0.4478630000000 1.0
C      1  0.5484760000000  0.4323710000000  0.5081130000000 1.0
C      1  0.5481940000000  0.4905940000000  0.5676720000000 1.0
C      1  0.5487570000000  0.5550560000000  0.5278200000000 1.0
C      1  0.5474470000000  0.5465410000000  0.4520620000000 1.0
C      1  0.5486820000000  0.4715640000000  0.4435190000000 1.0
C      1  0.5705670000000  0.5072380000000  0.5491900000000 1.0
C      1  0.5664950000000  0.5363510000000  0.5055000000000 1.0
C      1  0.5708260000000  0.5229460000000  0.4544200000000 1.0
C      1  0.5664570000000  0.4743650000000  0.4724430000000 1.0
C      1  0.5599350000000  0.4612700000000  0.5218840000000 1.0
C      1  0.4360480000000  0.5000750000000  0.5245740000000 1.0
C      1  0.4424270000000  0.5212610000000  0.5026820000000 1.0
C      1  0.4259730000000  0.5166890000000  0.4746680000000 1.0
C      1  0.4376860000000  0.4861710000000  0.4841200000000 1.0
C      1  0.4254730000000  0.4715790000000  0.5124810000000 1.0
C      1  0.5649750000000  0.4563930000000  0.4913240000000 1.0
C      1  0.5634590000000  0.4777370000000  0.5411750000000 1.0
C      1  0.5684360000000  0.5301910000000  0.5361640000000 1.0
C      1  0.5651610000000  0.5406070000000  0.4798860000000 1.0
C      1  0.5687420000000  0.4966950000000  0.4505890000000 1.0
C      1  0.4465110000000  0.4552430000000  0.4917920000000 1.0
C      1  0.4446590000000  0.4728580000000  0.5408580000000 1.0
C      1  0.4438260000000  0.5298820000000  0.5356610000000 1.0
C      1  0.4459300000000  0.5439950000000  0.4798930000000 1.0
C      1  0.4447850000000  0.4981660000000  0.4534640000000 1.0
C      1  0.4843420000000  0.4744420000000  0.5702440000000 1.0
C      1  0.4845640000000  0.5568020000000  0.5440250000000 1.0
C      1  0.4837510000000  0.5634880000000  0.4571710000000 1.0
C      1  0.4843740000000  0.4798050000000  0.4304400000000 1.0
C      1  0.4838200000000  0.4248830000000  0.4973580000000 1.0
C      1  0.5163770000000  0.4809500000000  0.5661200000000 1.0
C      1  0.5169370000000  0.5515460000000  0.5377510000000 1.0
C      1  0.5157490000000  0.5549020000000  0.4582590000000 1.0
C      1  0.5168520000000  0.4801910000000  0.4381120000000 1.0
C      1  0.5162080000000  0.4308010000000  0.5004800000000 1.0
END
