TITL C-1154823-9327-284 0.000621668835906248 125000 -377.280253241706 0 0 60 (C5) n - 1
REM
REM in /home/nfs/bkarasulu/CARBON/AIRSS/Generating-Clusters/AIREBO/Higher-Symm/Only-C60
REM
REM
REM
REM
REM
REM ./C.cell (28575a23ae977d3b5fae324c64b13b57)
REM
REM compiler GCC version 9.2.1 20190827 (Red Hat 9.2.1-1)
REM options -cpp -mtune=generic -march=x86-64 -g -O0 -fpre-include=/usr/include/finclude/math-vector-fortran.h
REM seed 1622452810 1282516808 855849926 -1244861801 -1666839331 -983090657 -461017584 -1981734718 -1425663691 1281532391 1565184610 1754202517 754059804 -1239349865 -326301504 1479338303 -94844789 417100314 647200384 691664634 -1132668895 -1191744998 -290421812 121510712 -207733864 482775348 468849809 -446443165 -1902820467 -210075553 1465710162 -1131812850 736532443
REM
CELL 1.54180   50.00000   50.00000   50.00000   90.00000   90.00000   90.00000
LATT -1
SFAC C  
C      1  0.5522160000000  0.5438370000000  0.4859760000000 1.0
C      1  0.5522100000000  0.5268860000000  0.5373650000000 1.0
C      1  0.5522050000000  0.4727740000000  0.5371240000000 1.0
C      1  0.5522090000000  0.4562810000000  0.4855860000000 1.0
C      1  0.5522160000000  0.5002010000000  0.4539740000000 1.0
C      1  0.5538020000000  0.5441110000000  0.5146090000000 1.0
C      1  0.5538060000000  0.5275170000000  0.4625620000000 1.0
C      1  0.5538020000000  0.4728890000000  0.4622600000000 1.0
C      1  0.5537950000000  0.4557210000000  0.5141210000000 1.0
C      1  0.5537960000000  0.4997390000000  0.5464750000000 1.0
C      1  0.4441810000000  0.5449520000000  0.5158150000000 1.0
C      1  0.4441740000000  0.4988480000000  0.5476310000000 1.0
C      1  0.4441740000000  0.4543420000000  0.5136150000000 1.0
C      1  0.4441810000000  0.4729410000000  0.4607760000000 1.0
C      1  0.4441850000000  0.5289400000000  0.4621360000000 1.0
C      1  0.4412700000000  0.5455300000000  0.4883310000000 1.0
C      1  0.4412690000000  0.5029810000000  0.4530940000000 1.0
C      1  0.4412630000000  0.4563190000000  0.4826710000000 1.0
C      1  0.4412590000000  0.4700300000000  0.5361890000000 1.0
C      1  0.4412630000000  0.5251650000000  0.5396870000000 1.0
C      1  0.5396230000000  0.5417830000000  0.4407260000000 1.0
C      1  0.5396180000000  0.5692860000000  0.5214270000000 1.0
C      1  0.5396070000000  0.5010340000000  0.5725220000000 1.0
C      1  0.5396060000000  0.4313480000000  0.5234000000000 1.0
C      1  0.5396160000000  0.4565320000000  0.4419450000000 1.0
C      1  0.5379200000000  0.5411140000000  0.5586900000000 1.0
C      1  0.5379300000000  0.5685170000000  0.4790340000000 1.0
C      1  0.5379290000000  0.5012270000000  0.4283570000000 1.0
C      1  0.5379190000000  0.4322370000000  0.4766940000000 1.0
C      1  0.5379130000000  0.4568890000000  0.5572440000000 1.0
C      1  0.5114780000000  0.4907230000000  0.4276860000000 1.0
C      1  0.5114800000000  0.5659080000000  0.4688330000000 1.0
C      1  0.5114710000000  0.5500090000000  0.5530530000000 1.0
C      1  0.5114630000000  0.4649970000000  0.5639570000000 1.0
C      1  0.5114670000000  0.4283570000000  0.4864760000000 1.0
C      1  0.5124030000000  0.4920720000000  0.5730390000000 1.0
C      1  0.5124130000000  0.5670130000000  0.5301100000000 1.0
C      1  0.5124200000000  0.5493430000000  0.4455720000000 1.0
C      1  0.5124140000000  0.4634820000000  0.4362530000000 1.0
C      1  0.5124030000000  0.4280860000000  0.5150320000000 1.0
C      1  0.4649240000000  0.5461020000000  0.4463210000000 1.0
C      1  0.4649180000000  0.5652970000000  0.5272530000000 1.0
C      1  0.4649080000000  0.4942580000000  0.5705180000000 1.0
C      1  0.4649080000000  0.4311580000000  0.5163250000000 1.0
C      1  0.4649180000000  0.4631990000000  0.4395670000000 1.0
C      1  0.4639330000000  0.5444330000000  0.5503010000000 1.0
C      1  0.4639410000000  0.5615750000000  0.4732860000000 1.0
C      1  0.4639400000000  0.4936270000000  0.4331840000000 1.0
C      1  0.4639300000000  0.4344900000000  0.4854150000000 1.0
C      1  0.4639250000000  0.4658900000000  0.5577970000000 1.0
C      1  0.4887690000000  0.5680760000000  0.4854140000000 1.0
C      1  0.4887590000000  0.5349080000000  0.5602350000000 1.0
C      1  0.4887530000000  0.4535000000000  0.5518120000000 1.0
C      1  0.4887590000000  0.4363540000000  0.4717850000000 1.0
C      1  0.4887690000000  0.5071660000000  0.4307490000000 1.0
C      1  0.4895190000000  0.5697000000000  0.5137960000000 1.0
C      1  0.4895240000000  0.5346610000000  0.4379740000000 1.0
C      1  0.4895160000000  0.4517230000000  0.4478690000000 1.0
C      1  0.4895070000000  0.4355030000000  0.5298050000000 1.0
C      1  0.4895090000000  0.5084180000000  0.5705500000000 1.0
END
