TITL C-1154823-9327-564 -0.000654943866277073 125000 -329.160712018264 0 0 60 (C1) n - 1
REM
REM in /home/nfs/bkarasulu/CARBON/AIRSS/Generating-Clusters/AIREBO/Higher-Symm/Only-C60
REM
REM
REM
REM
REM
REM ./C.cell (28575a23ae977d3b5fae324c64b13b57)
REM
REM compiler GCC version 9.2.1 20190827 (Red Hat 9.2.1-1)
REM options -cpp -mtune=generic -march=x86-64 -g -O0 -fpre-include=/usr/include/finclude/math-vector-fortran.h
REM seed 2142644823 1092433714 1112198874 -1857353240 1599441471 -1017335150 -1019978863 -481009041 -1245678941 -783146659 -1354725581 1199694370 -811837363 1991909998 843707649 -1851276491 1741221237 -1705668215 1839110820 -44534216 -245972121 1418339608 1434628591 1626386594 -1391184369 8087529 -603971599 1166807292 -2140127314 -1492073653 1160428528 2074510828 1190423815
REM
CELL 1.54180   50.00000   50.00000   50.00000   90.00000   90.00000   90.00000
LATT -1
SFAC C  
C      1  0.4470870000000  0.4780120000000  0.5446480000000 1.0
C      1  0.5478750000000  0.4484870000000  0.4708650000000 1.0
C      1  0.4788220000000  0.5436770000000  0.4513190000000 1.0
C      1  0.5563650000000  0.4776020000000  0.4551260000000 1.0
C      1  0.4505490000000  0.5264010000000  0.4589680000000 1.0
C      1  0.5468610000000  0.5254420000000  0.5521260000000 1.0
C      1  0.4513510000000  0.4458420000000  0.5327440000000 1.0
C      1  0.5430710000000  0.5490480000000  0.5279470000000 1.0
C      1  0.4556120000000  0.5557470000000  0.4737920000000 1.0
C      1  0.5212520000000  0.5463030000000  0.5542230000000 1.0
C      1  0.4752880000000  0.4604760000000  0.5519660000000 1.0
C      1  0.5276460000000  0.4614270000000  0.4467750000000 1.0
C      1  0.4507000000000  0.5279610000000  0.5386400000000 1.0
C      1  0.5504040000000  0.5498110000000  0.4735720000000 1.0
C      1  0.4669620000000  0.4524340000000  0.4480540000000 1.0
C      1  0.5557330000000  0.5255240000000  0.4503810000000 1.0
C      1  0.4406360000000  0.4711320000000  0.4585980000000 1.0
C      1  0.5643880000000  0.4796570000000  0.5432920000000 1.0
C      1  0.4504850000000  0.5580450000000  0.5223230000000 1.0
C      1  0.5517050000000  0.4525420000000  0.5327450000000 1.0
C      1  0.4538290000000  0.4477420000000  0.4794670000000 1.0
C      1  0.5272560000000  0.4521160000000  0.5499820000000 1.0
C      1  0.4734960000000  0.5517680000000  0.5469860000000 1.0
C      1  0.5271380000000  0.5444690000000  0.4493550000000 1.0
C      1  0.4807690000000  0.5459790000000  0.5142810000000 1.0
C      1  0.5221040000000  0.4788760000000  0.5607880000000 1.0
C      1  0.5335930000000  0.5136900000000  0.4760150000000 1.0
C      1  0.5263270000000  0.5380620000000  0.4936320000000 1.0
C      1  0.4868890000000  0.4551630000000  0.4823020000000 1.0
C      1  0.5090090000000  0.4502980000000  0.5144830000000 1.0
C      1  0.4758950000000  0.4845090000000  0.4457530000000 1.0
C      1  0.5176290000000  0.5136300000000  0.4486130000000 1.0
C      1  0.4932910000000  0.5037810000000  0.5323220000000 1.0
C      1  0.4663400000000  0.5090500000000  0.5193590000000 1.0
C      1  0.5595960000000  0.4846030000000  0.5103120000000 1.0
C      1  0.4361380000000  0.4830520000000  0.4872520000000 1.0
C      1  0.4757730000000  0.4575100000000  0.5121590000000 1.0
C      1  0.5157050000000  0.5200060000000  0.5276960000000 1.0
C      1  0.5407960000000  0.4852730000000  0.4843640000000 1.0
C      1  0.5193550000000  0.4595160000000  0.4857330000000 1.0
C      1  0.4777370000000  0.5310190000000  0.4881690000000 1.0
C      1  0.5106530000000  0.5513080000000  0.5179380000000 1.0
C      1  0.4876950000000  0.5124110000000  0.4613320000000 1.0
C      1  0.5075100000000  0.4856100000000  0.4395970000000 1.0
C      1  0.4955770000000  0.4854410000000  0.5528010000000 1.0
C      1  0.4536800000000  0.4801080000000  0.5129030000000 1.0
C      1  0.5437620000000  0.5089850000000  0.5225350000000 1.0
C      1  0.4515420000000  0.5113840000000  0.4887380000000 1.0
C      1  0.5598530000000  0.5562660000000  0.5055900000000 1.0
C      1  0.4964540000000  0.5567400000000  0.5629920000000 1.0
C      1  0.4462810000000  0.5004840000000  0.4425240000000 1.0
C      1  0.5670310000000  0.5005000000000  0.4422890000000 1.0
C      1  0.4407320000000  0.5042630000000  0.5546560000000 1.0
C      1  0.4425580000000  0.5680280000000  0.4960650000000 1.0
C      1  0.5548550000000  0.4524820000000  0.5022590000000 1.0
C      1  0.4426310000000  0.4370610000000  0.5037020000000 1.0
C      1  0.5021410000000  0.5583400000000  0.4424670000000 1.0
C      1  0.4996430000000  0.4487730000000  0.4524340000000 1.0
C      1  0.4999350000000  0.4417790000000  0.5425630000000 1.0
C      1  0.5460100000000  0.4943530000000  0.5594920000000 1.0
END
