TITL C-1154804-8633-12 -0.000885833895374565 125000 -321.972150640071 0 0 60 (C1) n - 1
REM
REM in /home/nfs/bkarasulu/CARBON/AIRSS/Generating-Clusters/AIREBO/Higher-Symm/Only-C60
REM
REM
REM
REM
REM
REM ./C.cell (28575a23ae977d3b5fae324c64b13b57)
REM
REM compiler GCC version 9.2.1 20190827 (Red Hat 9.2.1-1)
REM options -cpp -mtune=generic -march=x86-64 -g -O0 -fpre-include=/usr/include/finclude/math-vector-fortran.h
REM seed 2141438369 1868199434 1436698174 1160544599 708414226 453327354 -1167807613 1464634729 638454479 1962461484 668321038 -1014013082 1144452573 2146538551 -1853342678 1575149052 -1964783151 -611748770 -1705210398 -69988071 -649454509 -312032144 -294783187 -1449832924 676416734 -1064962719 158812353 127442035 -709290318 1710575015 -286763634 -574098687 99626443
REM
CELL 1.54180   50.00000   50.00000   50.00000   90.00000   90.00000   90.00000
LATT -1
SFAC C  
C      1  0.5269810000000  0.5482720000000  0.4334140000000 1.0
C      1  0.4552830000000  0.4513740000000  0.4456760000000 1.0
C      1  0.4314380000000  0.5483840000000  0.5078030000000 1.0
C      1  0.4632440000000  0.4525810000000  0.5567210000000 1.0
C      1  0.5441720000000  0.5426310000000  0.5443790000000 1.0
C      1  0.5697500000000  0.4552690000000  0.4907010000000 1.0
C      1  0.4473170000000  0.5031990000000  0.5594630000000 1.0
C      1  0.5233040000000  0.4910290000000  0.5698040000000 1.0
C      1  0.5743870000000  0.5050830000000  0.5191770000000 1.0
C      1  0.5517400000000  0.5053300000000  0.4490050000000 1.0
C      1  0.4780430000000  0.4966220000000  0.4240070000000 1.0
C      1  0.4266620000000  0.5041030000000  0.4803810000000 1.0
C      1  0.4732360000000  0.4355350000000  0.5413550000000 1.0
C      1  0.5338700000000  0.5630320000000  0.5338540000000 1.0
C      1  0.5514990000000  0.4385640000000  0.4951370000000 1.0
C      1  0.5206410000000  0.5645390000000  0.4515440000000 1.0
C      1  0.4679220000000  0.4351190000000  0.4599200000000 1.0
C      1  0.4503280000000  0.5627230000000  0.5003790000000 1.0
C      1  0.4986710000000  0.5085640000000  0.4485150000000 1.0
C      1  0.4562110000000  0.4877410000000  0.4741090000000 1.0
C      1  0.4538450000000  0.5192740000000  0.5236000000000 1.0
C      1  0.4983430000000  0.4913930000000  0.5465580000000 1.0
C      1  0.5433100000000  0.5133740000000  0.5296250000000 1.0
C      1  0.5444780000000  0.4892970000000  0.4781140000000 1.0
C      1  0.5357030000000  0.4830710000000  0.5326980000000 1.0
C      1  0.5301650000000  0.5167760000000  0.4921210000000 1.0
C      1  0.5022090000000  0.4784870000000  0.4573550000000 1.0
C      1  0.4731450000000  0.5147800000000  0.4784310000000 1.0
C      1  0.4448610000000  0.4864650000000  0.5234200000000 1.0
C      1  0.4920980000000  0.5192260000000  0.5344180000000 1.0
C      1  0.4873080000000  0.4404130000000  0.4857850000000 1.0
C      1  0.4814900000000  0.5597560000000  0.5011210000000 1.0
C      1  0.4918500000000  0.4423630000000  0.5187610000000 1.0
C      1  0.5133230000000  0.5631850000000  0.5096620000000 1.0
C      1  0.5189990000000  0.4403510000000  0.4981490000000 1.0
C      1  0.5055190000000  0.5571620000000  0.4771220000000 1.0
C      1  0.4237910000000  0.5167740000000  0.5084510000000 1.0
C      1  0.4702010000000  0.4819260000000  0.5631650000000 1.0
C      1  0.5540640000000  0.5052980000000  0.5672780000000 1.0
C      1  0.5755130000000  0.4853940000000  0.4914430000000 1.0
C      1  0.5274460000000  0.5164870000000  0.4322280000000 1.0
C      1  0.4536260000000  0.4835710000000  0.4404570000000 1.0
C      1  0.4733510000000  0.5318030000000  0.4507800000000 1.0
C      1  0.4472360000000  0.4716490000000  0.5016450000000 1.0
C      1  0.4651740000000  0.5282690000000  0.5532500000000 1.0
C      1  0.5450230000000  0.4677100000000  0.5579400000000 1.0
C      1  0.5616390000000  0.5218970000000  0.4936560000000 1.0
C      1  0.5274860000000  0.4697760000000  0.4584770000000 1.0
C      1  0.5308690000000  0.4719380000000  0.5023150000000 1.0
C      1  0.5052670000000  0.5258420000000  0.4770470000000 1.0
C      1  0.4828810000000  0.4692510000000  0.4741420000000 1.0
C      1  0.4768480000000  0.5286310000000  0.5055090000000 1.0
C      1  0.5059010000000  0.4697890000000  0.5239790000000 1.0
C      1  0.5164810000000  0.5305400000000  0.5183380000000 1.0
C      1  0.4945520000000  0.4868640000000  0.5856260000000 1.0
C      1  0.5747610000000  0.5054160000000  0.5527350000000 1.0
C      1  0.5739300000000  0.5142170000000  0.4681180000000 1.0
C      1  0.5058480000000  0.5026640000000  0.4098880000000 1.0
C      1  0.4247640000000  0.4968300000000  0.4513390000000 1.0
C      1  0.4220050000000  0.5024010000000  0.5399120000000 1.0
END
