TITL C-1154801-8518-515 -0.00036721676081059 125000 -339.757612914031 0 0 60 (C1) n - 1
REM
REM in /home/nfs/bkarasulu/CARBON/AIRSS/Generating-Clusters/AIREBO/Higher-Symm/Only-C60
REM
REM
REM
REM
REM
REM ./C.cell (28575a23ae977d3b5fae324c64b13b57)
REM
REM compiler GCC version 9.2.1 20190827 (Red Hat 9.2.1-1)
REM options -cpp -mtune=generic -march=x86-64 -g -O0 -fpre-include=/usr/include/finclude/math-vector-fortran.h
REM seed -536776336 991975615 -293785213 -55764060 446514380 599645426 719690999 131342404 546738619 -1354076173 -7962359 -1945299125 -548991896 -1696625114 -264881204 -1505670316 -395047949 604384235 1760792473 -949117581 -242849428 1659954002 2062769953 -1150421789 -1880451488 652869876 -1131474899 1409005700 1756324861 -1157143456 -1934013935 -19957828 -458354866
REM
CELL 1.54180   50.00000   50.00000   50.00000   90.00000   90.00000   90.00000
LATT -1
SFAC C  
C      1  0.5161380000000  0.5340560000000  0.4615340000000 1.0
C      1  0.5151970000000  0.5490630000000  0.5222430000000 1.0
C      1  0.5149210000000  0.4952150000000  0.5551210000000 1.0
C      1  0.5147220000000  0.4488740000000  0.5106000000000 1.0
C      1  0.5137960000000  0.4744850000000  0.4515730000000 1.0
C      1  0.4840830000000  0.4638290000000  0.4608860000000 1.0
C      1  0.4835490000000  0.4504210000000  0.5218200000000 1.0
C      1  0.4838150000000  0.5064210000000  0.5539820000000 1.0
C      1  0.4841550000000  0.5526820000000  0.5107810000000 1.0
C      1  0.4853340000000  0.5247960000000  0.4533470000000 1.0
C      1  0.4890330000000  0.5494620000000  0.5442760000000 1.0
C      1  0.4891950000000  0.4734160000000  0.5601430000000 1.0
C      1  0.4899950000000  0.4352590000000  0.4917760000000 1.0
C      1  0.4879660000000  0.4872310000000  0.4352310000000 1.0
C      1  0.4900040000000  0.5554680000000  0.4672580000000 1.0
C      1  0.5095320000000  0.4513480000000  0.5441120000000 1.0
C      1  0.5096500000000  0.5283070000000  0.5602840000000 1.0
C      1  0.5103950000000  0.5646440000000  0.4924060000000 1.0
C      1  0.5120240000000  0.5114460000000  0.4364750000000 1.0
C      1  0.5119500000000  0.4445010000000  0.4674990000000 1.0
C      1  0.4592180000000  0.5467680000000  0.4783420000000 1.0
C      1  0.4593150000000  0.5351360000000  0.5381200000000 1.0
C      1  0.4587430000000  0.4750550000000  0.5455370000000 1.0
C      1  0.4591710000000  0.4494630000000  0.4896830000000 1.0
C      1  0.4591850000000  0.4948140000000  0.4492230000000 1.0
C      1  0.5436710000000  0.4567330000000  0.4711690000000 1.0
C      1  0.5403200000000  0.4642110000000  0.5373630000000 1.0
C      1  0.5405460000000  0.5262660000000  0.5460970000000 1.0
C      1  0.5397690000000  0.5492480000000  0.4899450000000 1.0
C      1  0.5436570000000  0.5035490000000  0.4461970000000 1.0
C      1  0.4175960000000  0.5184430000000  0.5173750000000 1.0
C      1  0.4174670000000  0.4896040000000  0.5228800000000 1.0
C      1  0.4175960000000  0.4754190000000  0.4971470000000 1.0
C      1  0.4175370000000  0.4955820000000  0.4757930000000 1.0
C      1  0.4175480000000  0.5221260000000  0.4882830000000 1.0
C      1  0.5816880000000  0.4818190000000  0.5169060000000 1.0
C      1  0.5813690000000  0.5106460000000  0.5224030000000 1.0
C      1  0.5819080000000  0.5246420000000  0.4965200000000 1.0
C      1  0.5833200000000  0.5044960000000  0.4751010000000 1.0
C      1  0.5834400000000  0.4780130000000  0.4880090000000 1.0
C      1  0.4715980000000  0.5088970000000  0.4757750000000 1.0
C      1  0.4716590000000  0.5264400000000  0.5011540000000 1.0
C      1  0.4715500000000  0.5072700000000  0.5257290000000 1.0
C      1  0.4710210000000  0.4777840000000  0.5152470000000 1.0
C      1  0.4713730000000  0.4793120000000  0.4840130000000 1.0
C      1  0.5330270000000  0.4888310000000  0.4747670000000 1.0
C      1  0.5237870000000  0.4755250000000  0.5028420000000 1.0
C      1  0.5279790000000  0.4929820000000  0.5280140000000 1.0
C      1  0.5275640000000  0.5217130000000  0.5162200000000 1.0
C      1  0.5282290000000  0.5189080000000  0.4855570000000 1.0
C      1  0.5704640000000  0.4559410000000  0.4752100000000 1.0
C      1  0.5706080000000  0.5076300000000  0.4493240000000 1.0
C      1  0.5666700000000  0.5485750000000  0.4929200000000 1.0
C      1  0.5673820000000  0.5220860000000  0.5447670000000 1.0
C      1  0.5670670000000  0.4638400000000  0.5336050000000 1.0
C      1  0.4323510000000  0.5438120000000  0.4768190000000 1.0
C      1  0.4324060000000  0.4917580000000  0.4516650000000 1.0
C      1  0.4323490000000  0.4510880000000  0.4933850000000 1.0
C      1  0.4319190000000  0.4787060000000  0.5450680000000 1.0
C      1  0.4324760000000  0.5359410000000  0.5344770000000 1.0
END
