TITL C-1154823-9327-539 1.30556394558686e-05 125000 -329.959518597367 0 0 60 (C2) n - 1
REM
REM in /home/nfs/bkarasulu/CARBON/AIRSS/Generating-Clusters/AIREBO/Higher-Symm/Only-C60
REM
REM
REM
REM
REM
REM ./C.cell (28575a23ae977d3b5fae324c64b13b57)
REM
REM compiler GCC version 9.2.1 20190827 (Red Hat 9.2.1-1)
REM options -cpp -mtune=generic -march=x86-64 -g -O0 -fpre-include=/usr/include/finclude/math-vector-fortran.h
REM seed 848786912 527838035 407257485 -1156566280 911586592 -605768681 49641670 -1086386698 1861301099 -1458421391 -1533194900 -379207258 -268203336 256791629 -2069840373 1445806833 411228116 -793649404 -823542651 -477202242 606850319 608055512 1820034095 2040372377 1148306094 -1619780273 1239076751 2057194426 1554071168 -1089671762 730808345 -846964298 145327996
REM
CELL 1.54180   50.00000   50.00000   50.00000   90.00000   90.00000   90.00000
LATT -1
SFAC C  
C      1  0.5188240000000  0.5017600000000  0.5481000000000 1.0
C      1  0.5025340000000  0.5282050000000  0.5412220000000 1.0
C      1  0.5123210000000  0.5439730000000  0.5161370000000 1.0
C      1  0.5207980000000  0.5397610000000  0.4846310000000 1.0
C      1  0.5083990000000  0.5272710000000  0.4584230000000 1.0
C      1  0.5188250000000  0.4982450000000  0.4519010000000 1.0
C      1  0.5025430000000  0.4717960000000  0.4587780000000 1.0
C      1  0.5123340000000  0.4560300000000  0.4838630000000 1.0
C      1  0.5208090000000  0.4602450000000  0.5153690000000 1.0
C      1  0.5084060000000  0.4727310000000  0.5415770000000 1.0
C      1  0.5705120000000  0.4515530000000  0.4429380000000 1.0
C      1  0.5585080000000  0.4305100000000  0.4957120000000 1.0
C      1  0.5668860000000  0.4347240000000  0.5217290000000 1.0
C      1  0.5878090000000  0.4929120000000  0.5219740000000 1.0
C      1  0.5585890000000  0.4989160000000  0.5749330000000 1.0
C      1  0.5704970000000  0.5484670000000  0.5570630000000 1.0
C      1  0.5584880000000  0.5695060000000  0.5042880000000 1.0
C      1  0.5668670000000  0.5652960000000  0.4782720000000 1.0
C      1  0.5878070000000  0.5071140000000  0.4780270000000 1.0
C      1  0.5585890000000  0.5011010000000  0.4250670000000 1.0
C      1  0.5627470000000  0.4871720000000  0.5280850000000 1.0
C      1  0.5487910000000  0.5049520000000  0.5488180000000 1.0
C      1  0.5554730000000  0.5339960000000  0.5410160000000 1.0
C      1  0.5437100000000  0.5453590000000  0.5168780000000 1.0
C      1  0.5511610000000  0.5373520000000  0.4818120000000 1.0
C      1  0.5627430000000  0.5128460000000  0.4719150000000 1.0
C      1  0.5487930000000  0.4950620000000  0.4511820000000 1.0
C      1  0.5554830000000  0.4660210000000  0.4589850000000 1.0
C      1  0.5437230000000  0.4546540000000  0.4831230000000 1.0
C      1  0.5511710000000  0.4626630000000  0.5181880000000 1.0
C      1  0.4503720000000  0.4771490000000  0.4577040000000 1.0
C      1  0.4586790000000  0.4570390000000  0.4809250000000 1.0
C      1  0.4629890000000  0.4556760000000  0.5138180000000 1.0
C      1  0.4575440000000  0.4697880000000  0.5424800000000 1.0
C      1  0.4658570000000  0.4973520000000  0.5540690000000 1.0
C      1  0.4503650000000  0.5228360000000  0.5422960000000 1.0
C      1  0.4586670000000  0.5429490000000  0.5190750000000 1.0
C      1  0.4629760000000  0.5443140000000  0.4861820000000 1.0
C      1  0.4575360000000  0.5302000000000  0.4575200000000 1.0
C      1  0.4658560000000  0.5026380000000  0.4459300000000 1.0
C      1  0.4292880000000  0.4694710000000  0.5302810000000 1.0
C      1  0.4139580000000  0.4904350000000  0.5374730000000 1.0
C      1  0.4213630000000  0.5174200000000  0.5362760000000 1.0
C      1  0.4114530000000  0.5362860000000  0.5191700000000 1.0
C      1  0.4306840000000  0.5462180000000  0.4967100000000 1.0
C      1  0.4292800000000  0.5305090000000  0.4697190000000 1.0
C      1  0.4139560000000  0.5095400000000  0.4625260000000 1.0
C      1  0.4213680000000  0.4825580000000  0.4637240000000 1.0
C      1  0.4114640000000  0.4636880000000  0.4808300000000 1.0
C      1  0.4306980000000  0.4537610000000  0.5032900000000 1.0
C      1  0.4788480000000  0.4648670000000  0.4462740000000 1.0
C      1  0.4840630000000  0.4413380000000  0.4780160000000 1.0
C      1  0.4905390000000  0.4467590000000  0.5170290000000 1.0
C      1  0.4865520000000  0.4612310000000  0.5540490000000 1.0
C      1  0.4907810000000  0.4990940000000  0.5659510000000 1.0
C      1  0.4788380000000  0.5351270000000  0.5537260000000 1.0
C      1  0.4840460000000  0.5586570000000  0.5219830000000 1.0
C      1  0.4905230000000  0.5532390000000  0.4829710000000 1.0
C      1  0.4865410000000  0.5387650000000  0.4459510000000 1.0
C      1  0.4907810000000  0.5009030000000  0.4340490000000 1.0
END
