TITL C-1154829-9094-571 -0.00230936475579328 125000 -317.454041643155 0 0 60 (C1) n - 1
REM
REM in /home/nfs/bkarasulu/CARBON/AIRSS/Generating-Clusters/AIREBO/Higher-Symm/Only-C60
REM
REM
REM
REM
REM
REM ./C.cell (28575a23ae977d3b5fae324c64b13b57)
REM
REM compiler GCC version 9.2.1 20190827 (Red Hat 9.2.1-1)
REM options -cpp -mtune=generic -march=x86-64 -g -O0 -fpre-include=/usr/include/finclude/math-vector-fortran.h
REM seed 792224131 -1347123249 1215968028 155924599 1735162628 -1041886426 339947556 491978435 630074489 -97188671 -1496336209 2142373123 1409015002 1842145085 -1485396522 -623387145 903591266 758245424 1048161393 -736912074 77889780 165112414 1043301153 1072032673 -439431546 -1102270734 -583214980 -393353840 727895699 -560480764 -1425952586 -729980190 -2062685407
REM
CELL 1.54180   50.00000   50.00000   50.00000   90.00000   90.00000   90.00000
LATT -1
SFAC C  
C      1  0.4846250000000  0.5170460000000  0.5428990000000 1.0
C      1  0.4503300000000  0.5134160000000  0.4674220000000 1.0
C      1  0.5242050000000  0.5155740000000  0.4590540000000 1.0
C      1  0.5567730000000  0.5114770000000  0.5196310000000 1.0
C      1  0.4919380000000  0.4868220000000  0.5403840000000 1.0
C      1  0.4481830000000  0.4810810000000  0.4784710000000 1.0
C      1  0.5165190000000  0.4839960000000  0.4483310000000 1.0
C      1  0.5471640000000  0.4811310000000  0.5168160000000 1.0
C      1  0.5186170000000  0.4371810000000  0.4804880000000 1.0
C      1  0.5241870000000  0.4474410000000  0.5496650000000 1.0
C      1  0.4748340000000  0.4397730000000  0.5100800000000 1.0
C      1  0.4847570000000  0.4374800000000  0.4773920000000 1.0
C      1  0.5081800000000  0.5562960000000  0.5019470000000 1.0
C      1  0.5159540000000  0.5602190000000  0.5312240000000 1.0
C      1  0.4598920000000  0.5585510000000  0.5086620000000 1.0
C      1  0.4809650000000  0.5608080000000  0.4820690000000 1.0
C      1  0.4727570000000  0.4696090000000  0.5196810000000 1.0
C      1  0.4742580000000  0.4669890000000  0.4673820000000 1.0
C      1  0.5300270000000  0.4642150000000  0.4695030000000 1.0
C      1  0.5243300000000  0.4776910000000  0.5418190000000 1.0
C      1  0.4610000000000  0.5288300000000  0.5241490000000 1.0
C      1  0.4788790000000  0.5316630000000  0.4702930000000 1.0
C      1  0.5184440000000  0.5290200000000  0.4897560000000 1.0
C      1  0.5106470000000  0.5345960000000  0.5485810000000 1.0
C      1  0.5279070000000  0.4301590000000  0.4488020000000 1.0
C      1  0.5412750000000  0.4324470000000  0.5337130000000 1.0
C      1  0.4750760000000  0.4355600000000  0.5407330000000 1.0
C      1  0.4562870000000  0.4237210000000  0.4648470000000 1.0
C      1  0.5349650000000  0.5647170000000  0.4827730000000 1.0
C      1  0.5458240000000  0.5658220000000  0.5312910000000 1.0
C      1  0.4634470000000  0.5680320000000  0.5375570000000 1.0
C      1  0.4580350000000  0.5726630000000  0.4589560000000 1.0
C      1  0.4950860000000  0.4319810000000  0.4452270000000 1.0
C      1  0.5354330000000  0.4283450000000  0.5026530000000 1.0
C      1  0.4997860000000  0.4394720000000  0.5604570000000 1.0
C      1  0.4492910000000  0.4309770000000  0.4950020000000 1.0
C      1  0.5077470000000  0.5709330000000  0.4633660000000 1.0
C      1  0.5575740000000  0.5660050000000  0.5015490000000 1.0
C      1  0.4926130000000  0.5701490000000  0.5493750000000 1.0
C      1  0.4411520000000  0.5636690000000  0.4845600000000 1.0
C      1  0.4737530000000  0.5455150000000  0.5580050000000 1.0
C      1  0.4397070000000  0.5444160000000  0.4583310000000 1.0
C      1  0.5314020000000  0.5483970000000  0.4538390000000 1.0
C      1  0.5655160000000  0.5424160000000  0.5217250000000 1.0
C      1  0.4779700000000  0.4627680000000  0.5582530000000 1.0
C      1  0.4381380000000  0.4509510000000  0.4723770000000 1.0
C      1  0.5150780000000  0.4551830000000  0.4335280000000 1.0
C      1  0.5565170000000  0.4507250000000  0.5127120000000 1.0
C      1  0.5310060000000  0.5249540000000  0.5644470000000 1.0
C      1  0.4396420000000  0.5260890000000  0.4971090000000 1.0
C      1  0.4952020000000  0.5260690000000  0.4447410000000 1.0
C      1  0.5472900000000  0.5225500000000  0.4919040000000 1.0
C      1  0.5384960000000  0.4942580000000  0.5637090000000 1.0
C      1  0.4503450000000  0.4821200000000  0.5090130000000 1.0
C      1  0.4857770000000  0.4809580000000  0.4469580000000 1.0
C      1  0.5497480000000  0.4779180000000  0.4837410000000 1.0
C      1  0.5545970000000  0.5032880000000  0.4708490000000 1.0
C      1  0.5584720000000  0.5159010000000  0.5508080000000 1.0
C      1  0.4392940000000  0.5048290000000  0.5197800000000 1.0
C      1  0.4730920000000  0.5050680000000  0.4416150000000 1.0
END
