TITL C-1154825-9328-154 -1.41307412169033e-05 125000 -366.634174319299 0 0 60 (C1) n - 1
REM
REM in /home/nfs/bkarasulu/CARBON/AIRSS/Generating-Clusters/AIREBO/Higher-Symm/Only-C60
REM
REM
REM
REM
REM
REM ./C.cell (28575a23ae977d3b5fae324c64b13b57)
REM
REM compiler GCC version 9.2.1 20190827 (Red Hat 9.2.1-1)
REM options -cpp -mtune=generic -march=x86-64 -g -O0 -fpre-include=/usr/include/finclude/math-vector-fortran.h
REM seed 190049143 962291312 -899978197 -385354582 -2041492795 -2060303750 -1072408806 -1075619190 1778525271 1666408003 -1255892585 902642261 1796827107 -1160697729 2124218453 -1535370620 -327603379 624279209 -720928755 -1290207620 1047685788 31543813 -1614587156 1205801016 -2119305046 -375346246 -100956936 912623418 1933394818 731531543 386868317 -1628292145 1446836884
REM
CELL 1.54180   50.00000   50.00000   50.00000   90.00000   90.00000   90.00000
LATT -1
SFAC C  
C      1  0.4916510000000  0.4844470000000  0.5247670000000 1.0
C      1  0.4910710000000  0.4679560000000  0.4950270000000 1.0
C      1  0.4906420000000  0.4871030000000  0.4672730000000 1.0
C      1  0.4881970000000  0.5195900000000  0.4658710000000 1.0
C      1  0.4819050000000  0.5413510000000  0.5153780000000 1.0
C      1  0.4992390000000  0.5161950000000  0.5260660000000 1.0
C      1  0.5111240000000  0.4668250000000  0.5424800000000 1.0
C      1  0.5111450000000  0.4448610000000  0.4891820000000 1.0
C      1  0.5130640000000  0.4833180000000  0.4465930000000 1.0
C      1  0.5164130000000  0.5329150000000  0.4732860000000 1.0
C      1  0.5126310000000  0.5472820000000  0.5032800000000 1.0
C      1  0.5194780000000  0.5237660000000  0.5443890000000 1.0
C      1  0.4716930000000  0.4975050000000  0.5723900000000 1.0
C      1  0.4679880000000  0.4306380000000  0.5209350000000 1.0
C      1  0.4681290000000  0.4469570000000  0.4467830000000 1.0
C      1  0.4632090000000  0.5181300000000  0.4248390000000 1.0
C      1  0.4626440000000  0.5622030000000  0.4759300000000 1.0
C      1  0.4599460000000  0.5480490000000  0.5568050000000 1.0
C      1  0.5375990000000  0.4922240000000  0.5723060000000 1.0
C      1  0.5319580000000  0.4288290000000  0.5279700000000 1.0
C      1  0.5342280000000  0.4414990000000  0.4500490000000 1.0
C      1  0.5344030000000  0.5200670000000  0.4304900000000 1.0
C      1  0.5347130000000  0.5738230000000  0.4832360000000 1.0
C      1  0.5344660000000  0.5607590000000  0.5450320000000 1.0
C      1  0.5099150000000  0.4387080000000  0.5430230000000 1.0
C      1  0.5114340000000  0.4320190000000  0.4641240000000 1.0
C      1  0.5126820000000  0.5023880000000  0.4256500000000 1.0
C      1  0.5124780000000  0.5654750000000  0.4677350000000 1.0
C      1  0.5099080000000  0.5634870000000  0.5326430000000 1.0
C      1  0.5186450000000  0.5132150000000  0.5707930000000 1.0
C      1  0.4845780000000  0.4265760000000  0.5424120000000 1.0
C      1  0.4865000000000  0.4271050000000  0.4519440000000 1.0
C      1  0.4873530000000  0.5087190000000  0.4145950000000 1.0
C      1  0.4847720000000  0.5532270000000  0.4612060000000 1.0
C      1  0.4813030000000  0.5598070000000  0.5422420000000 1.0
C      1  0.4931270000000  0.5110820000000  0.5825340000000 1.0
C      1  0.5567890000000  0.5088720000000  0.4753290000000 1.0
C      1  0.5621090000000  0.5239600000000  0.4985730000000 1.0
C      1  0.5645100000000  0.5094180000000  0.5241140000000 1.0
C      1  0.5538850000000  0.4833460000000  0.5259550000000 1.0
C      1  0.5510100000000  0.4678060000000  0.5021470000000 1.0
C      1  0.5521430000000  0.4806990000000  0.4764310000000 1.0
C      1  0.4406030000000  0.5097500000000  0.4730710000000 1.0
C      1  0.4399490000000  0.5249780000000  0.4973780000000 1.0
C      1  0.4347340000000  0.5134750000000  0.5227160000000 1.0
C      1  0.4365870000000  0.4840200000000  0.5239650000000 1.0
C      1  0.4421250000000  0.4690570000000  0.5012920000000 1.0
C      1  0.4423820000000  0.4812960000000  0.4756160000000 1.0
C      1  0.4646100000000  0.4527180000000  0.5044430000000 1.0
C      1  0.4639870000000  0.4712300000000  0.4599720000000 1.0
C      1  0.4591720000000  0.5192560000000  0.4530090000000 1.0
C      1  0.4581830000000  0.5459570000000  0.4982020000000 1.0
C      1  0.4496970000000  0.5243970000000  0.5463800000000 1.0
C      1  0.4640920000000  0.4938780000000  0.5413500000000 1.0
C      1  0.5351150000000  0.4441710000000  0.5042300000000 1.0
C      1  0.5369330000000  0.4695360000000  0.4543040000000 1.0
C      1  0.5397190000000  0.5228130000000  0.4580890000000 1.0
C      1  0.5464620000000  0.5501690000000  0.5014410000000 1.0
C      1  0.5478840000000  0.5337760000000  0.5345600000000 1.0
C      1  0.5370910000000  0.4773210000000  0.5481770000000 1.0
END
