TITL C-1154826-9507-544 0.000639982146267596 125000 -344.728479867372 0 0 60 (C1) n - 1
REM
REM in /home/nfs/bkarasulu/CARBON/AIRSS/Generating-Clusters/AIREBO/Higher-Symm/Only-C60
REM
REM
REM
REM
REM
REM ./C.cell (28575a23ae977d3b5fae324c64b13b57)
REM
REM compiler GCC version 9.2.1 20190827 (Red Hat 9.2.1-1)
REM options -cpp -mtune=generic -march=x86-64 -g -O0 -fpre-include=/usr/include/finclude/math-vector-fortran.h
REM seed -279161914 -1053315753 -45910230 -1503682735 -2085768344 589081460 1928148810 268622754 1465758172 2033149714 1685590507 1400726516 -994976087 1609810034 578112899 -549592222 -98982692 -1265053757 2067416200 -282207437 -1875230034 105994120 448668314 1931293607 -441798018 1651759391 1848249300 854402328 -98118650 1641600784 844374075 -796214576 -1356341827
REM
CELL 1.54180   50.00000   50.00000   50.00000   90.00000   90.00000   90.00000
LATT -1
SFAC C  
C      1  0.5124570000000  0.5206550000000  0.5657880000000 1.0
C      1  0.5188390000000  0.4911130000000  0.4385120000000 1.0
C      1  0.4935930000000  0.4814410000000  0.5618950000000 1.0
C      1  0.4827460000000  0.5076170000000  0.4374540000000 1.0
C      1  0.4961640000000  0.5386600000000  0.5297170000000 1.0
C      1  0.5288590000000  0.4994490000000  0.4696860000000 1.0
C      1  0.4994110000000  0.4694490000000  0.5327020000000 1.0
C      1  0.4702570000000  0.4999320000000  0.4676510000000 1.0
C      1  0.4345410000000  0.4835470000000  0.4873440000000 1.0
C      1  0.4772220000000  0.5670820000000  0.5065460000000 1.0
C      1  0.5614820000000  0.5152470000000  0.4932010000000 1.0
C      1  0.5163800000000  0.4347310000000  0.5102540000000 1.0
C      1  0.5182810000000  0.4431920000000  0.5432570000000 1.0
C      1  0.4446500000000  0.4811840000000  0.4554880000000 1.0
C      1  0.4853400000000  0.5593060000000  0.5545090000000 1.0
C      1  0.5567710000000  0.5144950000000  0.4592550000000 1.0
C      1  0.4870710000000  0.4251790000000  0.5056710000000 1.0
C      1  0.4260490000000  0.5115220000000  0.4948260000000 1.0
C      1  0.5062290000000  0.5617060000000  0.5091580000000 1.0
C      1  0.5677620000000  0.4890790000000  0.5056310000000 1.0
C      1  0.4897240000000  0.5352950000000  0.4371390000000 1.0
C      1  0.5419920000000  0.5101200000000  0.5650260000000 1.0
C      1  0.5123380000000  0.4634410000000  0.4371030000000 1.0
C      1  0.4664580000000  0.4897280000000  0.5598540000000 1.0
C      1  0.4527530000000  0.5324460000000  0.5326180000000 1.0
C      1  0.5269830000000  0.5450210000000  0.4679280000000 1.0
C      1  0.5491990000000  0.4766690000000  0.5283310000000 1.0
C      1  0.4750600000000  0.4534740000000  0.4663070000000 1.0
C      1  0.5164190000000  0.5155140000000  0.5166310000000 1.0
C      1  0.5173760000000  0.4779680000000  0.4879650000000 1.0
C      1  0.4784640000000  0.4825300000000  0.5143230000000 1.0
C      1  0.4800580000000  0.5216210000000  0.4868860000000 1.0
C      1  0.5184550000000  0.5398290000000  0.4392740000000 1.0
C      1  0.5437470000000  0.4829480000000  0.5585520000000 1.0
C      1  0.4839710000000  0.4590380000000  0.4381610000000 1.0
C      1  0.4646540000000  0.5176860000000  0.5585330000000 1.0
C      1  0.5602790000000  0.5437910000000  0.4747600000000 1.0
C      1  0.5457860000000  0.4445300000000  0.5242390000000 1.0
C      1  0.4419760000000  0.4528770000000  0.4741350000000 1.0
C      1  0.4643030000000  0.5625190000000  0.5318250000000 1.0
C      1  0.5354620000000  0.5162310000000  0.4343300000000 1.0
C      1  0.5207500000000  0.4667190000000  0.5660460000000 1.0
C      1  0.4671040000000  0.4820430000000  0.4323060000000 1.0
C      1  0.4874600000000  0.5325730000000  0.5681600000000 1.0
C      1  0.4720690000000  0.5524670000000  0.4522060000000 1.0
C      1  0.5338550000000  0.5311930000000  0.5406380000000 1.0
C      1  0.5281360000000  0.4454390000000  0.4531490000000 1.0
C      1  0.4499100000000  0.4740390000000  0.5425960000000 1.0
C      1  0.5115280000000  0.5227140000000  0.4863630000000 1.0
C      1  0.5211210000000  0.4859510000000  0.5172060000000 1.0
C      1  0.4869700000000  0.4773530000000  0.4842640000000 1.0
C      1  0.4764940000000  0.5135500000000  0.5172780000000 1.0
C      1  0.4505660000000  0.4670620000000  0.5104480000000 1.0
C      1  0.4651830000000  0.5496270000000  0.4835340000000 1.0
C      1  0.5481360000000  0.5392060000000  0.5124610000000 1.0
C      1  0.5311660000000  0.4501560000000  0.4845150000000 1.0
C      1  0.5302750000000  0.5564580000000  0.4974890000000 1.0
C      1  0.5597690000000  0.4637590000000  0.4920070000000 1.0
C      1  0.4658860000000  0.4407060000000  0.4953820000000 1.0
C      1  0.4440640000000  0.5311240000000  0.5014890000000 1.0
END
