TITL C-1154810-7815-509 0.00196422882912761 125000 -323.630809471672 0 0 60 (C1) n - 1
REM
REM in /home/nfs/bkarasulu/CARBON/AIRSS/Generating-Clusters/AIREBO/Higher-Symm/Only-C60
REM
REM
REM
REM
REM
REM ./C.cell (28575a23ae977d3b5fae324c64b13b57)
REM
REM compiler GCC version 9.2.1 20190827 (Red Hat 9.2.1-1)
REM options -cpp -mtune=generic -march=x86-64 -g -O0 -fpre-include=/usr/include/finclude/math-vector-fortran.h
REM seed -617813363 -1111248207 -1562020893 -480540401 1285157180 -594750152 567721903 -1258645360 -550715166 -1183564764 -779813585 -862029811 -848854910 2111963421 -1284840403 428184241 -468400318 1855000037 -2143342583 2056091924 724804497 -411538876 1189612457 -1577209938 263837718 1905392209 -1817035582 78470701 269760873 -1733486553 -649085056 -1364328156 1064783887
REM
CELL 1.54180   50.00000   50.00000   50.00000   90.00000   90.00000   90.00000
LATT -1
SFAC C  
C      1  0.5531550000000  0.4680880000000  0.5584980000000 1.0
C      1  0.5258960000000  0.5455270000000  0.4627460000000 1.0
C      1  0.4668000000000  0.4375310000000  0.5245920000000 1.0
C      1  0.5497730000000  0.5415070000000  0.4764800000000 1.0
C      1  0.4650210000000  0.5558990000000  0.5498960000000 1.0
C      1  0.5313210000000  0.4553480000000  0.4493230000000 1.0
C      1  0.5261150000000  0.5174030000000  0.5166520000000 1.0
C      1  0.4489050000000  0.5404890000000  0.4971260000000 1.0
C      1  0.5046900000000  0.5595240000000  0.4811880000000 1.0
C      1  0.5640200000000  0.4863680000000  0.5383360000000 1.0
C      1  0.5373310000000  0.4843830000000  0.4342230000000 1.0
C      1  0.5730040000000  0.5292820000000  0.4646570000000 1.0
C      1  0.4771120000000  0.5680770000000  0.4660370000000 1.0
C      1  0.4623800000000  0.5651220000000  0.5169520000000 1.0
C      1  0.4998580000000  0.4860720000000  0.5653230000000 1.0
C      1  0.4739810000000  0.4704800000000  0.4909490000000 1.0
C      1  0.4556710000000  0.4896800000000  0.4762390000000 1.0
C      1  0.5250080000000  0.5063100000000  0.4774170000000 1.0
C      1  0.4954350000000  0.4353280000000  0.5301400000000 1.0
C      1  0.4571110000000  0.5494990000000  0.4667530000000 1.0
C      1  0.4883650000000  0.5790350000000  0.5023670000000 1.0
C      1  0.4526410000000  0.4896930000000  0.5545930000000 1.0
C      1  0.4501430000000  0.4321290000000  0.4728560000000 1.0
C      1  0.4594250000000  0.5295390000000  0.4481460000000 1.0
C      1  0.4716960000000  0.5019660000000  0.5150160000000 1.0
C      1  0.4773770000000  0.5267720000000  0.5054580000000 1.0
C      1  0.4321430000000  0.5294350000000  0.5245760000000 1.0
C      1  0.4421280000000  0.4450500000000  0.4498100000000 1.0
C      1  0.5722480000000  0.4918040000000  0.5057390000000 1.0
C      1  0.5610610000000  0.4810490000000  0.4533730000000 1.0
C      1  0.4570190000000  0.4623490000000  0.5424080000000 1.0
C      1  0.5486080000000  0.5659020000000  0.5192100000000 1.0
C      1  0.5024730000000  0.4807290000000  0.4854970000000 1.0
C      1  0.4859250000000  0.5109760000000  0.4430970000000 1.0
C      1  0.5098180000000  0.4642720000000  0.5334130000000 1.0
C      1  0.5449900000000  0.5120580000000  0.5437440000000 1.0
C      1  0.4754930000000  0.5012790000000  0.5685760000000 1.0
C      1  0.5696020000000  0.5195100000000  0.5226820000000 1.0
C      1  0.5582300000000  0.5024450000000  0.4766390000000 1.0
C      1  0.5496390000000  0.4599050000000  0.4746910000000 1.0
C      1  0.4613100000000  0.4426010000000  0.4963540000000 1.0
C      1  0.5054840000000  0.5294140000000  0.4929600000000 1.0
C      1  0.4352150000000  0.5079720000000  0.5413450000000 1.0
C      1  0.5258970000000  0.4683330000000  0.5607900000000 1.0
C      1  0.4832840000000  0.4369370000000  0.4396260000000 1.0
C      1  0.4490860000000  0.4678620000000  0.4355450000000 1.0
C      1  0.5219460000000  0.5078530000000  0.5648570000000 1.0
C      1  0.5101420000000  0.5313780000000  0.5432340000000 1.0
C      1  0.5013570000000  0.4558460000000  0.4455590000000 1.0
C      1  0.5140610000000  0.5288330000000  0.4442160000000 1.0
C      1  0.5219820000000  0.4840290000000  0.5104420000000 1.0
C      1  0.4405000000000  0.5093150000000  0.4864560000000 1.0
C      1  0.4804120000000  0.5290270000000  0.5630710000000 1.0
C      1  0.5093330000000  0.4884340000000  0.4530940000000 1.0
C      1  0.4878150000000  0.5456440000000  0.5281190000000 1.0
C      1  0.4614910000000  0.4896420000000  0.4484810000000 1.0
C      1  0.5101810000000  0.4123230000000  0.5297630000000 1.0
C      1  0.5481120000000  0.4716650000000  0.4999390000000 1.0
C      1  0.4813660000000  0.4745030000000  0.5237340000000 1.0
C      1  0.5494160000000  0.5405730000000  0.5070010000000 1.0
END
