TITL C-1154804-8633-520 0.00532272210179045 125000 -352.432721000655 0 0 60 (C1) n - 1
REM
REM in /home/nfs/bkarasulu/CARBON/AIRSS/Generating-Clusters/AIREBO/Higher-Symm/Only-C60
REM
REM
REM
REM
REM
REM ./C.cell (28575a23ae977d3b5fae324c64b13b57)
REM
REM compiler GCC version 9.2.1 20190827 (Red Hat 9.2.1-1)
REM options -cpp -mtune=generic -march=x86-64 -g -O0 -fpre-include=/usr/include/finclude/math-vector-fortran.h
REM seed 2127256812 161839296 638616477 -2042710737 -1660910785 -2042288808 641936930 -1901277820 1676171325 -2088052791 1802535099 1670880934 1017782357 -1097845244 879158765 914273242 -1894352600 1796674312 -850629185 1624052968 -37114464 438641148 346051691 146259919 -778010883 197646913 313474097 -1757059988 -517699424 69114787 -1549817975 1653879222 -1713344256
REM
CELL 1.54180   50.00000   50.00000   50.00000   90.00000   90.00000   90.00000
LATT -1
SFAC C  
C      1  0.5041210000000  0.4709300000000  0.5194450000000 1.0
C      1  0.4757440000000  0.4740140000000  0.4915530000000 1.0
C      1  0.5153560000000  0.4711270000000  0.4881910000000 1.0
C      1  0.5030100000000  0.5290370000000  0.5198980000000 1.0
C      1  0.4815410000000  0.5282090000000  0.4947440000000 1.0
C      1  0.5199070000000  0.5265970000000  0.4838610000000 1.0
C      1  0.5425810000000  0.4859580000000  0.5483510000000 1.0
C      1  0.4375270000000  0.4844830000000  0.5122770000000 1.0
C      1  0.5202790000000  0.4855430000000  0.4407380000000 1.0
C      1  0.5418780000000  0.5154610000000  0.5478160000000 1.0
C      1  0.4377890000000  0.5137110000000  0.5125040000000 1.0
C      1  0.5205530000000  0.5147510000000  0.4401230000000 1.0
C      1  0.5571590000000  0.4475580000000  0.4976420000000 1.0
C      1  0.4752910000000  0.4461940000000  0.5508310000000 1.0
C      1  0.4681100000000  0.4471130000000  0.4520940000000 1.0
C      1  0.5575960000000  0.5537300000000  0.4961360000000 1.0
C      1  0.4735520000000  0.5527120000000  0.5506630000000 1.0
C      1  0.4687110000000  0.5527030000000  0.4533210000000 1.0
C      1  0.5332000000000  0.5533460000000  0.4752490000000 1.0
C      1  0.5030920000000  0.5535520000000  0.5385580000000 1.0
C      1  0.4655920000000  0.5526910000000  0.4849250000000 1.0
C      1  0.5317160000000  0.4469120000000  0.4784890000000 1.0
C      1  0.5044880000000  0.4465050000000  0.5381490000000 1.0
C      1  0.4623600000000  0.4469670000000  0.4835750000000 1.0
C      1  0.5299770000000  0.4874320000000  0.5106530000000 1.0
C      1  0.4766910000000  0.4841700000000  0.5198900000000 1.0
C      1  0.4946450000000  0.4854960000000  0.4712530000000 1.0
C      1  0.5285800000000  0.5158930000000  0.5102750000000 1.0
C      1  0.4763970000000  0.5125400000000  0.5222060000000 1.0
C      1  0.4955420000000  0.5143470000000  0.4712090000000 1.0
C      1  0.4806400000000  0.4254030000000  0.4953020000000 1.0
C      1  0.5121540000000  0.4248320000000  0.4862730000000 1.0
C      1  0.5043470000000  0.4238300000000  0.5175910000000 1.0
C      1  0.4828280000000  0.5757920000000  0.4947440000000 1.0
C      1  0.5138810000000  0.5749430000000  0.4852990000000 1.0
C      1  0.5060320000000  0.5752890000000  0.5172270000000 1.0
C      1  0.4889020000000  0.4726750000000  0.4431960000000 1.0
C      1  0.5565040000000  0.4733920000000  0.5199880000000 1.0
C      1  0.4547370000000  0.4701710000000  0.5378830000000 1.0
C      1  0.4893440000000  0.5275640000000  0.4434050000000 1.0
C      1  0.5554620000000  0.5291630000000  0.5198020000000 1.0
C      1  0.4540050000000  0.5270470000000  0.5392480000000 1.0
C      1  0.5183470000000  0.5291390000000  0.5567280000000 1.0
C      1  0.4421590000000  0.5282160000000  0.4882790000000 1.0
C      1  0.5425400000000  0.5304750000000  0.4517540000000 1.0
C      1  0.5190710000000  0.4712640000000  0.5564290000000 1.0
C      1  0.4368130000000  0.4692490000000  0.4871770000000 1.0
C      1  0.5395920000000  0.4716430000000  0.4564740000000 1.0
C      1  0.4976880000000  0.5139990000000  0.5700150000000 1.0
C      1  0.4399870000000  0.5139350000000  0.4633230000000 1.0
C      1  0.5630960000000  0.5144630000000  0.4662150000000 1.0
C      1  0.4978500000000  0.4858150000000  0.5696260000000 1.0
C      1  0.4387160000000  0.4856700000000  0.4624250000000 1.0
C      1  0.5622100000000  0.4861750000000  0.4668740000000 1.0
C      1  0.5724470000000  0.5265530000000  0.4904580000000 1.0
C      1  0.4719360000000  0.5262610000000  0.5681280000000 1.0
C      1  0.4552040000000  0.5263470000000  0.4424230000000 1.0
C      1  0.5732420000000  0.4739390000000  0.4903940000000 1.0
C      1  0.4723430000000  0.4732400000000  0.5668120000000 1.0
C      1  0.4549410000000  0.4738310000000  0.4418920000000 1.0
END
