TITL C-1154810-7815-378 -97.1295325811085 125000 -318.669309035964 0 0 60 (C1) n - 1
REM
REM in /home/nfs/bkarasulu/CARBON/AIRSS/Generating-Clusters/AIREBO/Higher-Symm/Only-C60
REM
REM
REM
REM
REM
REM ./C.cell (28575a23ae977d3b5fae324c64b13b57)
REM
REM compiler GCC version 9.2.1 20190827 (Red Hat 9.2.1-1)
REM options -cpp -mtune=generic -march=x86-64 -g -O0 -fpre-include=/usr/include/finclude/math-vector-fortran.h
REM seed -1699699587 1914935524 596842679 -1522962271 565318268 -2144231871 -1899441396 -943846868 -447028523 1812041774 -666362906 -1967553527 1617513611 -141982992 -1444786545 988881454 -1045034458 2004459475 12901374 272633427 1698589826 -163747744 735385817 2068463438 256215558 -1343843982 -132640280 -449001153 1493460659 -980716414 -1761625889 453206232 -923598377
REM
CELL 1.54180   50.00000   50.00000   50.00000   90.00000   90.00000   90.00000
LATT -1
SFAC C  
C      1  0.4440680000000  0.5005960000000  0.4572210000000 1.0
C      1  0.4637480000000  0.5432650000000  0.4975500000000 1.0
C      1  0.4801900000000  0.5022460000000  0.5671190000000 1.0
C      1  0.4839240000000  0.5507540000000  0.5239650000000 1.0
C      1  0.5059380000000  0.5426760000000  0.4377050000000 1.0
C      1  0.5189960000000  0.5199950000000  0.5570330000000 1.0
C      1  0.4638210000000  0.5761860000000  0.4700920000000 1.0
C      1  0.4718240000000  0.4474300000000  0.5191320000000 1.0
C      1  0.5317390000000  0.4479120000000  0.4713560000000 1.0
C      1  0.4912210000000  0.4592320000000  0.4938170000000 1.0
C      1  0.4546050000000  0.4771360000000  0.4450900000000 1.0
C      1  0.5434690000000  0.5274770000000  0.4640340000000 1.0
C      1  0.5330380000000  0.4818260000000  0.4282210000000 1.0
C      1  0.4759360000000  0.5039740000000  0.4862760000000 1.0
C      1  0.5176620000000  0.4923310000000  0.5767670000000 1.0
C      1  0.5409440000000  0.5426490000000  0.5119880000000 1.0
C      1  0.4564710000000  0.4335880000000  0.4676680000000 1.0
C      1  0.5402130000000  0.5701890000000  0.4950350000000 1.0
C      1  0.5004960000000  0.4564180000000  0.4633760000000 1.0
C      1  0.5297100000000  0.5454320000000  0.5417800000000 1.0
C      1  0.4417650000000  0.4724900000000  0.4980150000000 1.0
C      1  0.4995360000000  0.5045270000000  0.5257830000000 1.0
C      1  0.5342650000000  0.4192190000000  0.5116370000000 1.0
C      1  0.4932690000000  0.4284610000000  0.5320510000000 1.0
C      1  0.5084480000000  0.5641900000000  0.5412640000000 1.0
C      1  0.4478810000000  0.4900910000000  0.5332210000000 1.0
C      1  0.4649650000000  0.5768800000000  0.5025400000000 1.0
C      1  0.5521590000000  0.4522150000000  0.5444390000000 1.0
C      1  0.4931190000000  0.5681390000000  0.4855970000000 1.0
C      1  0.5744530000000  0.4891580000000  0.5255160000000 1.0
C      1  0.5897370000000  0.5166860000000  0.4847180000000 1.0
C      1  0.5227690000000  0.4440510000000  0.5318180000000 1.0
C      1  0.5084410000000  0.5425280000000  0.5018890000000 1.0
C      1  0.4678400000000  0.4788470000000  0.4947090000000 1.0
C      1  0.5347670000000  0.4227740000000  0.4843090000000 1.0
C      1  0.5151680000000  0.4888040000000  0.4815230000000 1.0
C      1  0.5577540000000  0.5263080000000  0.4910860000000 1.0
C      1  0.4680840000000  0.5147770000000  0.5312150000000 1.0
C      1  0.5074170000000  0.4845610000000  0.4486050000000 1.0
C      1  0.5033290000000  0.5127760000000  0.4963830000000 1.0
C      1  0.5550070000000  0.4793040000000  0.5411400000000 1.0
C      1  0.5271780000000  0.5486240000000  0.4555350000000 1.0
C      1  0.4875660000000  0.5318180000000  0.5520240000000 1.0
C      1  0.4826610000000  0.4761900000000  0.5584420000000 1.0
C      1  0.4542850000000  0.4346370000000  0.4950630000000 1.0
C      1  0.5495280000000  0.4705540000000  0.4866320000000 1.0
C      1  0.4279350000000  0.5059860000000  0.4813930000000 1.0
C      1  0.4451390000000  0.5193120000000  0.5065280000000 1.0
C      1  0.5669710000000  0.4939380000000  0.4959190000000 1.0
C      1  0.4700020000000  0.4537970000000  0.4526140000000 1.0
C      1  0.5216800000000  0.4656670000000  0.5055710000000 1.0
C      1  0.5356300000000  0.5001640000000  0.4568590000000 1.0
C      1  0.4219060000000  0.4954390000000  0.5133440000000 1.0
C      1  0.5272950000000  0.4932160000000  0.5393270000000 1.0
C      1  0.4493410000000  0.5561290000000  0.4581120000000 1.0
C      1  0.5219690000000  0.5685340000000  0.4746950000000 1.0
C      1  0.4632860000000  0.4677470000000  0.5402690000000 1.0
C      1  0.4625390000000  0.5272050000000  0.4675760000000 1.0
C      1  0.5121090000000  0.4669200000000  0.5546270000000 1.0
C      1  0.4847950000000  0.5260260000000  0.4427870000000 1.0
END
