TITL C-1154801-8518-360 0.0020949168008954 125000 -351.473180873779 0 0 60 (C1) n - 1
REM
REM in /home/nfs/bkarasulu/CARBON/AIRSS/Generating-Clusters/AIREBO/Higher-Symm/Only-C60
REM
REM
REM
REM
REM
REM ./C.cell (28575a23ae977d3b5fae324c64b13b57)
REM
REM compiler GCC version 9.2.1 20190827 (Red Hat 9.2.1-1)
REM options -cpp -mtune=generic -march=x86-64 -g -O0 -fpre-include=/usr/include/finclude/math-vector-fortran.h
REM seed 273048388 -1547522411 -856666978 -20073479 675524727 -1618399586 704685872 -1020388819 -715315924 -2096182300 213598753 1027779714 1843217201 -396100386 216539900 1216793555 -2014976335 1505538834 -415578351 -1480749862 864122233 68902562 106995251 1150462684 -889463715 927492317 705976327 453436093 832496578 -1629025750 150432230 1191893724 -653263593
REM
CELL 1.54180   50.00000   50.00000   50.00000   90.00000   90.00000   90.00000
LATT -1
SFAC C  
C      1  0.5240110000000  0.4806020000000  0.4885470000000 1.0
C      1  0.4817170000000  0.5085410000000  0.5201890000000 1.0
C      1  0.4741410000000  0.4829730000000  0.5162100000000 1.0
C      1  0.5172910000000  0.5058840000000  0.4824520000000 1.0
C      1  0.5088510000000  0.5280170000000  0.5145030000000 1.0
C      1  0.5096930000000  0.4586290000000  0.4957440000000 1.0
C      1  0.4870530000000  0.4592570000000  0.5114920000000 1.0
C      1  0.4906540000000  0.5267480000000  0.4858000000000 1.0
C      1  0.4906950000000  0.5901980000000  0.5072810000000 1.0
C      1  0.5103460000000  0.4229050000000  0.5136680000000 1.0
C      1  0.5099710000000  0.5894720000000  0.4881140000000 1.0
C      1  0.4911990000000  0.4232020000000  0.4946860000000 1.0
C      1  0.5761310000000  0.4865770000000  0.4951240000000 1.0
C      1  0.4248640000000  0.4986880000000  0.5210680000000 1.0
C      1  0.5722970000000  0.5137820000000  0.4884780000000 1.0
C      1  0.4216920000000  0.4750950000000  0.5063450000000 1.0
C      1  0.5360180000000  0.5146800000000  0.4298130000000 1.0
C      1  0.4557320000000  0.4932280000000  0.4448700000000 1.0
C      1  0.4669780000000  0.5217590000000  0.5747570000000 1.0
C      1  0.5463860000000  0.4985600000000  0.5570070000000 1.0
C      1  0.5168720000000  0.5342430000000  0.4432990000000 1.0
C      1  0.4882800000000  0.4563770000000  0.4316070000000 1.0
C      1  0.5151010000000  0.4619450000000  0.5723150000000 1.0
C      1  0.4857280000000  0.5397040000000  0.5582440000000 1.0
C      1  0.5341810000000  0.5705350000000  0.5179750000000 1.0
C      1  0.3735400000000  0.4160050000000  0.5321110000000 1.0
C      1  0.4687050000000  0.5706140000000  0.4802140000000 1.0
C      1  0.6102370000000  0.4376510000000  0.4411880000000 1.0
C      1  0.5574560000000  0.5295680000000  0.5062410000000 1.0
C      1  0.4040700000000  0.4555810000000  0.5151470000000 1.0
C      1  0.5889390000000  0.4694980000000  0.4774920000000 1.0
C      1  0.4418630000000  0.5320010000000  0.4907700000000 1.0
C      1  0.5199310000000  0.5070270000000  0.5611930000000 1.0
C      1  0.4796970000000  0.4989560000000  0.5854780000000 1.0
C      1  0.4820130000000  0.5021370000000  0.4401540000000 1.0
C      1  0.5232770000000  0.4930200000000  0.4173300000000 1.0
C      1  0.5064660000000  0.5259890000000  0.5461930000000 1.0
C      1  0.5038220000000  0.4879640000000  0.5751360000000 1.0
C      1  0.4988160000000  0.4825520000000  0.4275930000000 1.0
C      1  0.4945080000000  0.5224460000000  0.4542960000000 1.0
C      1  0.5226280000000  0.5794380000000  0.4661500000000 1.0
C      1  0.4787950000000  0.4298560000000  0.4717130000000 1.0
C      1  0.4777910000000  0.5814710000000  0.5296710000000 1.0
C      1  0.5243000000000  0.4326430000000  0.5345830000000 1.0
C      1  0.5751250000000  0.5250620000000  0.4627710000000 1.0
C      1  0.4350010000000  0.4718810000000  0.4820470000000 1.0
C      1  0.5677310000000  0.4776210000000  0.5203950000000 1.0
C      1  0.4303340000000  0.5184470000000  0.5385330000000 1.0
C      1  0.4465580000000  0.5356470000000  0.5532890000000 1.0
C      1  0.5508320000000  0.4744630000000  0.5424520000000 1.0
C      1  0.5565820000000  0.5350840000000  0.4439660000000 1.0
C      1  0.4517290000000  0.4694660000000  0.4599800000000 1.0
C      1  0.5325120000000  0.4540190000000  0.5506650000000 1.0
C      1  0.4676890000000  0.5598780000000  0.5437970000000 1.0
C      1  0.5338110000000  0.5574980000000  0.4534720000000 1.0
C      1  0.4706370000000  0.4491920000000  0.4531880000000 1.0
C      1  0.5988690000000  0.4525040000000  0.4595480000000 1.0
C      1  0.3891870000000  0.4357500000000  0.5248780000000 1.0
C      1  0.4661160000000  0.5438790000000  0.4858580000000 1.0
C      1  0.5345470000000  0.5435890000000  0.5129160000000 1.0
END
