TITL C-1154828-9214-404 0.00128549998617436 125000 -311.85147814109 0 0 60 (C1) n - 1
REM
REM in /home/nfs/bkarasulu/CARBON/AIRSS/Generating-Clusters/AIREBO/Higher-Symm/Only-C60
REM
REM
REM
REM
REM
REM ./C.cell (28575a23ae977d3b5fae324c64b13b57)
REM
REM compiler GCC version 9.2.1 20190827 (Red Hat 9.2.1-1)
REM options -cpp -mtune=generic -march=x86-64 -g -O0 -fpre-include=/usr/include/finclude/math-vector-fortran.h
REM seed 1651740321 68739348 -1517763710 -1548984477 -1089695759 1569486048 -128338167 765944166 -1333358870 -1283476282 2082754686 -717123148 127885017 -1106018651 -103411593 -1235920254 -851299188 -1203809928 386987815 -1865737343 -1410837053 741067884 2051470199 608199701 -1664606543 348836307 63432148 235700351 -121377955 1412503151 -1880140490 -698337815 408185365
REM
CELL 1.54180   50.00000   50.00000   50.00000   90.00000   90.00000   90.00000
LATT -1
SFAC C  
C      1  0.3987990000000  0.4438930000000  0.4991030000000 1.0
C      1  0.5007810000000  0.4199930000000  0.4603100000000 1.0
C      1  0.4468490000000  0.5001420000000  0.4217830000000 1.0
C      1  0.4213050000000  0.5533630000000  0.4991100000000 1.0
C      1  0.5918970000000  0.5285090000000  0.5008190000000 1.0
C      1  0.6015320000000  0.4454630000000  0.5011040000000 1.0
C      1  0.4986470000000  0.5786860000000  0.5534280000000 1.0
C      1  0.4992690000000  0.5928820000000  0.4728220000000 1.0
C      1  0.4999090000000  0.4228570000000  0.5537020000000 1.0
C      1  0.4719470000000  0.5008550000000  0.5921890000000 1.0
C      1  0.5540370000000  0.5010890000000  0.4227570000000 1.0
C      1  0.5389850000000  0.5013960000000  0.5809760000000 1.0
C      1  0.5806940000000  0.4613550000000  0.5008880000000 1.0
C      1  0.5010960000000  0.3992470000000  0.4443000000000 1.0
C      1  0.5277040000000  0.5007330000000  0.4080990000000 1.0
C      1  0.5771920000000  0.5548180000000  0.5005970000000 1.0
C      1  0.4071300000000  0.5267660000000  0.4990000000000 1.0
C      1  0.4194150000000  0.4600710000000  0.4993480000000 1.0
C      1  0.4987710000000  0.5930130000000  0.5269120000000 1.0
C      1  0.4996020000000  0.5784630000000  0.4463590000000 1.0
C      1  0.5002660000000  0.4083460000000  0.5272860000000 1.0
C      1  0.5548700000000  0.5016820000000  0.6018180000000 1.0
C      1  0.4734360000000  0.5003000000000  0.4075870000000 1.0
C      1  0.4456190000000  0.5005700000000  0.5775200000000 1.0
C      1  0.4840160000000  0.5259770000000  0.5422900000000 1.0
C      1  0.5419950000000  0.4862240000000  0.5256330000000 1.0
C      1  0.5248000000000  0.5433650000000  0.4851340000000 1.0
C      1  0.4853390000000  0.4751300000000  0.4573830000000 1.0
C      1  0.5144290000000  0.4756930000000  0.5426910000000 1.0
C      1  0.5148910000000  0.5261080000000  0.4575640000000 1.0
C      1  0.5424200000000  0.5160700000000  0.4751020000000 1.0
C      1  0.4567470000000  0.5153930000000  0.5249560000000 1.0
C      1  0.4578710000000  0.4854210000000  0.4745800000000 1.0
C      1  0.5252740000000  0.4584090000000  0.5154940000000 1.0
C      1  0.4750880000000  0.4580750000000  0.4851520000000 1.0
C      1  0.4738390000000  0.5431520000000  0.5147660000000 1.0
C      1  0.5139230000000  0.5260770000000  0.5423970000000 1.0
C      1  0.4572150000000  0.4854870000000  0.5249230000000 1.0
C      1  0.4741450000000  0.5430800000000  0.4847520000000 1.0
C      1  0.5154190000000  0.4753890000000  0.4577290000000 1.0
C      1  0.4845090000000  0.4752790000000  0.5426490000000 1.0
C      1  0.4848830000000  0.5258390000000  0.4572880000000 1.0
C      1  0.4574270000000  0.5153480000000  0.4743810000000 1.0
C      1  0.5419340000000  0.5161810000000  0.5256500000000 1.0
C      1  0.5424700000000  0.4861570000000  0.4752900000000 1.0
C      1  0.4746230000000  0.4579840000000  0.5150940000000 1.0
C      1  0.5253650000000  0.4585390000000  0.4855360000000 1.0
C      1  0.5245480000000  0.5434610000000  0.5151770000000 1.0
C      1  0.4999660000000  0.4424610000000  0.5259200000000 1.0
C      1  0.5259210000000  0.5008550000000  0.4420540000000 1.0
C      1  0.4412590000000  0.5258350000000  0.4994610000000 1.0
C      1  0.4994460000000  0.5589130000000  0.4743010000000 1.0
C      1  0.4989510000000  0.5590390000000  0.5255550000000 1.0
C      1  0.5004680000000  0.4422270000000  0.4742080000000 1.0
C      1  0.5252190000000  0.5011240000000  0.5586550000000 1.0
C      1  0.4735160000000  0.5006520000000  0.5580810000000 1.0
C      1  0.4415360000000  0.4741490000000  0.4996150000000 1.0
C      1  0.5583790000000  0.4751260000000  0.5006620000000 1.0
C      1  0.5577940000000  0.5268930000000  0.5004910000000 1.0
C      1  0.4746240000000  0.5003980000000  0.4415680000000 1.0
END
