TITL C-1154824-75-300 0.00372055147857937 125000 -339.763500464258 0 0 60 (C1) n - 1
REM
REM in /home/nfs/bkarasulu/CARBON/AIRSS/Generating-Clusters/AIREBO/Higher-Symm/Only-C60
REM
REM
REM
REM
REM
REM ./C.cell (28575a23ae977d3b5fae324c64b13b57)
REM
REM compiler GCC version 9.2.1 20190827 (Red Hat 9.2.1-1)
REM options -cpp -mtune=generic -march=x86-64 -g -O0 -fpre-include=/usr/include/finclude/math-vector-fortran.h
REM seed -2147091994 -706915456 -191963666 1845532067 -928476229 -2139185623 -2088123150 -1580430349 1922297580 841709177 43819278 -1993785236 -506091095 569499963 69015870 996392908 105019202 -505064069 1917193246 -439232674 -1319800755 934074239 -1043015097 -1378814115 -1381063805 984818049 1131203293 -1912779430 -1148290453 -80490538 -2013831394 -1485399757 -845283519
REM
CELL 1.54180   50.00000   50.00000   50.00000   90.00000   90.00000   90.00000
LATT -1
SFAC C  
C      1  0.4848240000000  0.5369790000000  0.4366190000000 1.0
C      1  0.4342380000000  0.5296210000000  0.5035000000000 1.0
C      1  0.4736100000000  0.5357000000000  0.5635920000000 1.0
C      1  0.5535660000000  0.5350030000000  0.5475780000000 1.0
C      1  0.5622690000000  0.5342740000000  0.4678000000000 1.0
C      1  0.4815610000000  0.4811770000000  0.5672940000000 1.0
C      1  0.4328550000000  0.4748470000000  0.5014690000000 1.0
C      1  0.4761320000000  0.4869270000000  0.4406100000000 1.0
C      1  0.5497020000000  0.4853430000000  0.4618650000000 1.0
C      1  0.5564240000000  0.4841880000000  0.5368050000000 1.0
C      1  0.5176760000000  0.4870820000000  0.4169550000000 1.0
C      1  0.4367360000000  0.4667490000000  0.4555740000000 1.0
C      1  0.4385210000000  0.4778080000000  0.5416300000000 1.0
C      1  0.5240150000000  0.4817220000000  0.5716280000000 1.0
C      1  0.5738700000000  0.4762080000000  0.4963810000000 1.0
C      1  0.5220580000000  0.5066230000000  0.5764900000000 1.0
C      1  0.4127110000000  0.5459210000000  0.5101820000000 1.0
C      1  0.4268710000000  0.5144120000000  0.4640770000000 1.0
C      1  0.5194990000000  0.5127290000000  0.4174750000000 1.0
C      1  0.5797390000000  0.5008390000000  0.5001200000000 1.0
C      1  0.4644280000000  0.4738100000000  0.5258950000000 1.0
C      1  0.5146900000000  0.4746910000000  0.5430420000000 1.0
C      1  0.5435640000000  0.4711830000000  0.4994590000000 1.0
C      1  0.5145410000000  0.4772820000000  0.4450900000000 1.0
C      1  0.4608480000000  0.4699730000000  0.4733470000000 1.0
C      1  0.4539670000000  0.5186130000000  0.4694540000000 1.0
C      1  0.5201570000000  0.5217830000000  0.4474830000000 1.0
C      1  0.5528320000000  0.5187010000000  0.5033680000000 1.0
C      1  0.5089540000000  0.5221500000000  0.5507620000000 1.0
C      1  0.4603960000000  0.5240140000000  0.5205330000000 1.0
C      1  0.5257160000000  0.4222950000000  0.4961000000000 1.0
C      1  0.5038660000000  0.4378230000000  0.4764470000000 1.0
C      1  0.4816980000000  0.4342240000000  0.5011770000000 1.0
C      1  0.4949230000000  0.4340920000000  0.5268430000000 1.0
C      1  0.5228230000000  0.4317300000000  0.5221350000000 1.0
C      1  0.5278400000000  0.5616650000000  0.4970880000000 1.0
C      1  0.5167380000000  0.5615820000000  0.5241180000000 1.0
C      1  0.4876800000000  0.5617020000000  0.5214810000000 1.0
C      1  0.4810610000000  0.5600870000000  0.4931890000000 1.0
C      1  0.5057150000000  0.5608030000000  0.4781730000000 1.0
C      1  0.5272000000000  0.4623340000000  0.4728800000000 1.0
C      1  0.4894760000000  0.4625210000000  0.4601900000000 1.0
C      1  0.4596560000000  0.4544200000000  0.5007270000000 1.0
C      1  0.4869300000000  0.4587720000000  0.5431840000000 1.0
C      1  0.5366410000000  0.4581570000000  0.5273990000000 1.0
C      1  0.5270150000000  0.5447460000000  0.5440320000000 1.0
C      1  0.4720150000000  0.5437760000000  0.5367210000000 1.0
C      1  0.4594800000000  0.5446850000000  0.4864060000000 1.0
C      1  0.5065670000000  0.5492450000000  0.4531250000000 1.0
C      1  0.5509770000000  0.5472810000000  0.4919410000000 1.0
C      1  0.4769650000000  0.4995270000000  0.5132690000000 1.0
C      1  0.5067400000000  0.5010960000000  0.5241210000000 1.0
C      1  0.5083490000000  0.4993340000000  0.4702540000000 1.0
C      1  0.4778330000000  0.4973060000000  0.4809810000000 1.0
C      1  0.5263310000000  0.4999610000000  0.4977740000000 1.0
C      1  0.5475380000000  0.5123380000000  0.4580960000000 1.0
C      1  0.5591720000000  0.5111100000000  0.5328240000000 1.0
C      1  0.4718240000000  0.5134210000000  0.4449380000000 1.0
C      1  0.4267600000000  0.4986960000000  0.5006820000000 1.0
C      1  0.4832170000000  0.5077820000000  0.5676270000000 1.0
END
