TITL C-1154827-9204-45 -0.00156512629943433 125000 -315.170568244993 0 0 60 (C1) n - 1
REM
REM in /home/nfs/bkarasulu/CARBON/AIRSS/Generating-Clusters/AIREBO/Higher-Symm/Only-C60
REM
REM
REM
REM
REM
REM ./C.cell (28575a23ae977d3b5fae324c64b13b57)
REM
REM compiler GCC version 9.2.1 20190827 (Red Hat 9.2.1-1)
REM options -cpp -mtune=generic -march=x86-64 -g -O0 -fpre-include=/usr/include/finclude/math-vector-fortran.h
REM seed -60761397 1170957500 -350374171 -1898046429 -362975011 778413351 -1110469478 938967804 -614176175 -1586142931 1837102027 1024897437 -409265826 497379696 -209563766 1176901227 1830422415 229727170 -187168419 1269005313 1572385097 1856783655 -1751366732 416953901 -1927033830 1780108048 -19134084 -1292273996 -1669111981 1331390683 -1727805740 -330337887 18624616
REM
CELL 1.54180   50.00000   50.00000   50.00000   90.00000   90.00000   90.00000
LATT -1
SFAC C  
C      1  0.5482440000000  0.4521280000000  0.5292740000000 1.0
C      1  0.5384150000000  0.4511920000000  0.4708990000000 1.0
C      1  0.5405210000000  0.5341660000000  0.5669510000000 1.0
C      1  0.5581970000000  0.4891620000000  0.4263340000000 1.0
C      1  0.4671130000000  0.5467900000000  0.5515520000000 1.0
C      1  0.4754820000000  0.5498140000000  0.4576850000000 1.0
C      1  0.4625090000000  0.5047800000000  0.5146010000000 1.0
C      1  0.4651020000000  0.5026390000000  0.4818840000000 1.0
C      1  0.4999690000000  0.5450260000000  0.4417820000000 1.0
C      1  0.4909530000000  0.5471160000000  0.5686460000000 1.0
C      1  0.5249750000000  0.4713820000000  0.4392140000000 1.0
C      1  0.5293170000000  0.4901940000000  0.5445600000000 1.0
C      1  0.5226720000000  0.4526590000000  0.5171990000000 1.0
C      1  0.5227430000000  0.4608360000000  0.4908080000000 1.0
C      1  0.4903980000000  0.5001800000000  0.5324200000000 1.0
C      1  0.4914130000000  0.4983680000000  0.4662970000000 1.0
C      1  0.4345650000000  0.5080030000000  0.5337320000000 1.0
C      1  0.4349360000000  0.5063680000000  0.4658720000000 1.0
C      1  0.5713750000000  0.4882670000000  0.5059100000000 1.0
C      1  0.5624430000000  0.4937410000000  0.4801960000000 1.0
C      1  0.4958120000000  0.4683340000000  0.4521240000000 1.0
C      1  0.5018360000000  0.4684330000000  0.5366700000000 1.0
C      1  0.5019650000000  0.4462400000000  0.5909130000000 1.0
C      1  0.5286220000000  0.4505070000000  0.4169640000000 1.0
C      1  0.4746110000000  0.4619740000000  0.4285700000000 1.0
C      1  0.5019090000000  0.4560600000000  0.5673570000000 1.0
C      1  0.4817860000000  0.4276730000000  0.5102840000000 1.0
C      1  0.4806980000000  0.4267380000000  0.4828480000000 1.0
C      1  0.5174350000000  0.5627060000000  0.4962930000000 1.0
C      1  0.5261670000000  0.5663820000000  0.5229660000000 1.0
C      1  0.5390890000000  0.5151720000000  0.4821400000000 1.0
C      1  0.5446140000000  0.5232310000000  0.5147070000000 1.0
C      1  0.5541910000000  0.4749620000000  0.4564220000000 1.0
C      1  0.5581220000000  0.4796690000000  0.5298120000000 1.0
C      1  0.4766340000000  0.5030830000000  0.5620580000000 1.0
C      1  0.4794400000000  0.5108630000000  0.4385350000000 1.0
C      1  0.5019020000000  0.5285200000000  0.4780040000000 1.0
C      1  0.4992090000000  0.5330270000000  0.5323360000000 1.0
C      1  0.5193210000000  0.5032490000000  0.5148000000000 1.0
C      1  0.5159080000000  0.4897840000000  0.4873950000000 1.0
C      1  0.4476430000000  0.4579040000000  0.4690840000000 1.0
C      1  0.4501910000000  0.4570390000000  0.5291520000000 1.0
C      1  0.4341030000000  0.4776080000000  0.4819650000000 1.0
C      1  0.4384600000000  0.4807810000000  0.5131070000000 1.0
C      1  0.4547500000000  0.5210080000000  0.5551140000000 1.0
C      1  0.4576670000000  0.5268100000000  0.4509390000000 1.0
C      1  0.4737640000000  0.4478640000000  0.4658100000000 1.0
C      1  0.4760110000000  0.4491470000000  0.5274510000000 1.0
C      1  0.4863900000000  0.5549980000000  0.4896330000000 1.0
C      1  0.4765630000000  0.5511860000000  0.5191660000000 1.0
C      1  0.5360200000000  0.5490370000000  0.4812700000000 1.0
C      1  0.5489890000000  0.5469350000000  0.5262800000000 1.0
C      1  0.5252850000000  0.5097360000000  0.5682150000000 1.0
C      1  0.5280600000000  0.5031430000000  0.4286420000000 1.0
C      1  0.4981780000000  0.5174810000000  0.5756500000000 1.0
C      1  0.5012240000000  0.5195910000000  0.4207950000000 1.0
C      1  0.4445560000000  0.5289520000000  0.4883300000000 1.0
C      1  0.4487660000000  0.5357370000000  0.5179440000000 1.0
C      1  0.5242490000000  0.5238740000000  0.4528000000000 1.0
C      1  0.5185160000000  0.5517490000000  0.5516400000000 1.0
END
