TITL C-1154830-9999-503 0.000734744387358723 125000 -338.82584038218 0 0 60 (C1) n - 1
REM
REM in /home/nfs/bkarasulu/CARBON/AIRSS/Generating-Clusters/AIREBO/Higher-Symm/Only-C60
REM
REM
REM
REM
REM
REM ./C.cell (28575a23ae977d3b5fae324c64b13b57)
REM
REM compiler GCC version 9.2.1 20190827 (Red Hat 9.2.1-1)
REM options -cpp -mtune=generic -march=x86-64 -g -O0 -fpre-include=/usr/include/finclude/math-vector-fortran.h
REM seed -614083103 -307434912 -843755341 -1521231401 476169407 -1558061253 -851102167 -739333403 994658357 1260442683 1337841765 1292529188 978835220 -351479945 -804750039 1495540174 -1228030659 907610418 -1790986550 1867229682 -689478404 1559158255 409739788 1166468254 1380149047 -1550625209 -36836523 -1698869778 -1824084420 -1682597979 -1234153600 313841014 886096232
REM
CELL 1.54180   50.00000   50.00000   50.00000   90.00000   90.00000   90.00000
LATT -1
SFAC C  
C      1  0.4879430000000  0.4571950000000  0.5520400000000 1.0
C      1  0.4817550000000  0.4619680000000  0.4502820000000 1.0
C      1  0.5471970000000  0.5090850000000  0.5318270000000 1.0
C      1  0.5515300000000  0.5103980000000  0.4740030000000 1.0
C      1  0.5283440000000  0.5339860000000  0.5559410000000 1.0
C      1  0.5303550000000  0.5328750000000  0.4488770000000 1.0
C      1  0.4802240000000  0.5361800000000  0.4423290000000 1.0
C      1  0.4777420000000  0.5353130000000  0.5581250000000 1.0
C      1  0.5503170000000  0.5064070000000  0.4408010000000 1.0
C      1  0.5486470000000  0.5085680000000  0.5657970000000 1.0
C      1  0.5403680000000  0.4606630000000  0.4761530000000 1.0
C      1  0.5414330000000  0.4597550000000  0.5103130000000 1.0
C      1  0.4621940000000  0.4616420000000  0.5183260000000 1.0
C      1  0.4512170000000  0.4586290000000  0.4882180000000 1.0
C      1  0.4402580000000  0.4855460000000  0.5468210000000 1.0
C      1  0.4366630000000  0.4903420000000  0.4508540000000 1.0
C      1  0.4398550000000  0.5387780000000  0.4863250000000 1.0
C      1  0.4386420000000  0.5378150000000  0.5117500000000 1.0
C      1  0.5175880000000  0.5118580000000  0.4723650000000 1.0
C      1  0.5135380000000  0.5148520000000  0.5320370000000 1.0
C      1  0.4689230000000  0.4448380000000  0.4714960000000 1.0
C      1  0.4758930000000  0.4354370000000  0.5303500000000 1.0
C      1  0.4404870000000  0.4892420000000  0.4822080000000 1.0
C      1  0.4416960000000  0.4864850000000  0.5145300000000 1.0
C      1  0.5600510000000  0.4855340000000  0.4869960000000 1.0
C      1  0.5571170000000  0.4854850000000  0.5170300000000 1.0
C      1  0.5127800000000  0.5000630000000  0.4345200000000 1.0
C      1  0.5096270000000  0.5012730000000  0.5693290000000 1.0
C      1  0.5349800000000  0.4775420000000  0.4470390000000 1.0
C      1  0.5342910000000  0.4811020000000  0.5612890000000 1.0
C      1  0.4814580000000  0.4177750000000  0.5103040000000 1.0
C      1  0.4873110000000  0.4275740000000  0.4841470000000 1.0
C      1  0.5631120000000  0.5378630000000  0.4812940000000 1.0
C      1  0.5674920000000  0.5439000000000  0.5074210000000 1.0
C      1  0.4862340000000  0.5183280000000  0.5143250000000 1.0
C      1  0.4881020000000  0.5189320000000  0.4847070000000 1.0
C      1  0.4957690000000  0.5673430000000  0.4842860000000 1.0
C      1  0.4942680000000  0.5658830000000  0.5175820000000 1.0
C      1  0.4821810000000  0.5448560000000  0.5317290000000 1.0
C      1  0.4835090000000  0.5465440000000  0.4692270000000 1.0
C      1  0.4994650000000  0.4868480000000  0.4622320000000 1.0
C      1  0.5010210000000  0.4862200000000  0.5400800000000 1.0
C      1  0.5008450000000  0.5288900000000  0.5717300000000 1.0
C      1  0.5043290000000  0.5289530000000  0.4304160000000 1.0
C      1  0.4925680000000  0.4678200000000  0.5139310000000 1.0
C      1  0.5016700000000  0.4648740000000  0.4848070000000 1.0
C      1  0.5218510000000  0.4561360000000  0.5559600000000 1.0
C      1  0.5140050000000  0.4528970000000  0.4472060000000 1.0
C      1  0.4554970000000  0.5152270000000  0.5252220000000 1.0
C      1  0.4574210000000  0.5164680000000  0.4725470000000 1.0
C      1  0.4567990000000  0.5125460000000  0.5583250000000 1.0
C      1  0.4577130000000  0.5144100000000  0.4392840000000 1.0
C      1  0.5170850000000  0.4358770000000  0.4760020000000 1.0
C      1  0.5195460000000  0.4538670000000  0.5260710000000 1.0
C      1  0.4684050000000  0.4804870000000  0.5624450000000 1.0
C      1  0.4631410000000  0.4809350000000  0.4344630000000 1.0
C      1  0.5442890000000  0.5540010000000  0.4661850000000 1.0
C      1  0.5416480000000  0.5424540000000  0.5259780000000 1.0
C      1  0.5275160000000  0.5696580000000  0.4821670000000 1.0
C      1  0.5240940000000  0.5635810000000  0.5119560000000 1.0
END
