TITL C-1154824-75-484 0.000715560162080792 125000 -301.118434936258 0 0 60 (C1) n - 1
REM
REM in /home/nfs/bkarasulu/CARBON/AIRSS/Generating-Clusters/AIREBO/Higher-Symm/Only-C60
REM
REM
REM
REM
REM
REM ./C.cell (28575a23ae977d3b5fae324c64b13b57)
REM
REM compiler GCC version 9.2.1 20190827 (Red Hat 9.2.1-1)
REM options -cpp -mtune=generic -march=x86-64 -g -O0 -fpre-include=/usr/include/finclude/math-vector-fortran.h
REM seed -1821520085 -1082743179 1895840326 751684158 -944282363 1141734316 1793530064 -2104324806 -540815298 -930757309 1178300963 1359511093 179834586 1115659336 -1665975662 659973530 753830040 871427701 2079697964 -478345880 -842176349 -1394660711 -968869982 938542340 767635418 1915134554 1442257938 1349565913 -1667433212 -235366665 833574617 -836458907 -1645570697
REM
CELL 1.54180   50.00000   50.00000   50.00000   90.00000   90.00000   90.00000
LATT -1
SFAC C  
C      1  0.5168950000000  0.5346810000000  0.4372780000000 1.0
C      1  0.4621210000000  0.4945040000000  0.4375530000000 1.0
C      1  0.5242840000000  0.4671640000000  0.4358470000000 1.0
C      1  0.5045810000000  0.5375580000000  0.5556700000000 1.0
C      1  0.4664570000000  0.4824930000000  0.5567870000000 1.0
C      1  0.5316540000000  0.4783880000000  0.5563280000000 1.0
C      1  0.4293920000000  0.4906150000000  0.4906110000000 1.0
C      1  0.5446450000000  0.4425330000000  0.4908700000000 1.0
C      1  0.5224410000000  0.5671220000000  0.4892560000000 1.0
C      1  0.4927620000000  0.5497660000000  0.4651830000000 1.0
C      1  0.4575760000000  0.4661520000000  0.4647090000000 1.0
C      1  0.5465780000000  0.4815560000000  0.4655000000000 1.0
C      1  0.4591420000000  0.5082430000000  0.5145720000000 1.0
C      1  0.5142930000000  0.4601270000000  0.5128820000000 1.0
C      1  0.5230000000000  0.5375400000000  0.5205550000000 1.0
C      1  0.4444530000000  0.5411970000000  0.5514290000000 1.0
C      1  0.4939330000000  0.4296660000000  0.5509120000000 1.0
C      1  0.5653580000000  0.5269520000000  0.5484460000000 1.0
C      1  0.5559190000000  0.5524410000000  0.5372670000000 1.0
C      1  0.4288870000000  0.5201750000000  0.5376650000000 1.0
C      1  0.5192010000000  0.4278580000000  0.5358690000000 1.0
C      1  0.5267730000000  0.5580030000000  0.5474500000000 1.0
C      1  0.4436150000000  0.4934860000000  0.5409840000000 1.0
C      1  0.5342900000000  0.4539700000000  0.5396900000000 1.0
C      1  0.5175360000000  0.4928890000000  0.4905500000000 1.0
C      1  0.4998330000000  0.5198630000000  0.4933050000000 1.0
C      1  0.4853890000000  0.4916190000000  0.4897810000000 1.0
C      1  0.5434190000000  0.5339880000000  0.4963330000000 1.0
C      1  0.4459880000000  0.5265480000000  0.4920460000000 1.0
C      1  0.5049940000000  0.4397340000000  0.4903420000000 1.0
C      1  0.5326610000000  0.4883350000000  0.5177120000000 1.0
C      1  0.4891970000000  0.5342510000000  0.5189650000000 1.0
C      1  0.4757090000000  0.4786630000000  0.5172200000000 1.0
C      1  0.5534370000000  0.4640540000000  0.5061020000000 1.0
C      1  0.4981420000000  0.5627490000000  0.5026130000000 1.0
C      1  0.4446390000000  0.4723380000000  0.5049360000000 1.0
C      1  0.5497590000000  0.5132750000000  0.4701200000000 1.0
C      1  0.4635550000000  0.5348720000000  0.4662230000000 1.0
C      1  0.4862480000000  0.4508630000000  0.4658120000000 1.0
C      1  0.4656770000000  0.5668040000000  0.4606090000000 1.0
C      1  0.4576050000000  0.4342700000000  0.4658710000000 1.0
C      1  0.5761520000000  0.4949040000000  0.4687800000000 1.0
C      1  0.4893640000000  0.5148000000000  0.4390430000000 1.0
C      1  0.4931100000000  0.4805220000000  0.4383250000000 1.0
C      1  0.5209560000000  0.5009280000000  0.4381760000000 1.0
C      1  0.5480640000000  0.5040590000000  0.5514960000000 1.0
C      1  0.4735660000000  0.5387020000000  0.5556550000000 1.0
C      1  0.4809570000000  0.4556440000000  0.5539560000000 1.0
C      1  0.4339220000000  0.4892980000000  0.4569060000000 1.0
C      1  0.5439300000000  0.4486370000000  0.4574040000000 1.0
C      1  0.5222460000000  0.5635990000000  0.4554060000000 1.0
C      1  0.5495430000000  0.5642590000000  0.5075440000000 1.0
C      1  0.4206550000000  0.5167550000000  0.5084790000000 1.0
C      1  0.5257710000000  0.4223760000000  0.5070420000000 1.0
C      1  0.5158990000000  0.4672550000000  0.4688090000000 1.0
C      1  0.5209620000000  0.5316360000000  0.4709080000000 1.0
C      1  0.4625420000000  0.5011990000000  0.4708960000000 1.0
C      1  0.5013800000000  0.4762210000000  0.5394300000000 1.0
C      1  0.5193640000000  0.5115670000000  0.5387080000000 1.0
C      1  0.4795810000000  0.5103320000000  0.5411830000000 1.0
END
