TITL C-1154821-8623-4 -0.00364535709059198 125000 -333.850412933257 0 0 60 (C1) n - 1
REM
REM in /home/nfs/bkarasulu/CARBON/AIRSS/Generating-Clusters/AIREBO/Higher-Symm/Only-C60
REM
REM
REM
REM
REM
REM ./C.cell (28575a23ae977d3b5fae324c64b13b57)
REM
REM compiler GCC version 9.2.1 20190827 (Red Hat 9.2.1-1)
REM options -cpp -mtune=generic -march=x86-64 -g -O0 -fpre-include=/usr/include/finclude/math-vector-fortran.h
REM seed -661653016 1983369106 -747655344 409439507 990994718 -328303672 -1753975639 1135897973 -224050550 217038087 -1829826440 1421533478 500904183 427311472 -1015225538 123173846 1183094659 1447885424 -83027269 546940465 1894777036 -565814870 1847755603 -1913135128 -769518050 1291850181 -1727637393 134081768 1690853458 676935928 1759675293 -280484713 -665903466
REM
CELL 1.54180   50.00000   50.00000   50.00000   90.00000   90.00000   90.00000
LATT -1
SFAC C  
C      1  0.5142580000000  0.5444270000000  0.4675900000000 1.0
C      1  0.5320850000000  0.4713880000000  0.4714440000000 1.0
C      1  0.4590400000000  0.4836590000000  0.4713140000000 1.0
C      1  0.4747990000000  0.5533550000000  0.4388460000000 1.0
C      1  0.5500130000000  0.5058740000000  0.4412300000000 1.0
C      1  0.4651010000000  0.4402980000000  0.4450360000000 1.0
C      1  0.5365440000000  0.5566930000000  0.4138210000000 1.0
C      1  0.5202300000000  0.4536210000000  0.4267390000000 1.0
C      1  0.4510470000000  0.5006000000000  0.4255860000000 1.0
C      1  0.5467330000000  0.5360000000000  0.5038790000000 1.0
C      1  0.5072220000000  0.4454140000000  0.5071780000000 1.0
C      1  0.4541650000000  0.5206760000000  0.5048640000000 1.0
C      1  0.4908030000000  0.4464510000000  0.4380340000000 1.0
C      1  0.4642700000000  0.5288350000000  0.4341360000000 1.0
C      1  0.5454320000000  0.5340570000000  0.4271300000000 1.0
C      1  0.4678640000000  0.5334800000000  0.5489500000000 1.0
C      1  0.5501770000000  0.5179150000000  0.5485190000000 1.0
C      1  0.4847710000000  0.4419590000000  0.5513730000000 1.0
C      1  0.4850160000000  0.4560110000000  0.5255810000000 1.0
C      1  0.4753620000000  0.5337140000000  0.5221880000000 1.0
C      1  0.5470010000000  0.5112670000000  0.5210600000000 1.0
C      1  0.5300430000000  0.5362720000000  0.5624690000000 1.0
C      1  0.5138270000000  0.4409180000000  0.5664480000000 1.0
C      1  0.4587290000000  0.5094890000000  0.5649120000000 1.0
C      1  0.4342770000000  0.4778510000000  0.4296870000000 1.0
C      1  0.5198880000000  0.5738650000000  0.4273400000000 1.0
C      1  0.5487340000000  0.4570640000000  0.4293120000000 1.0
C      1  0.4411830000000  0.4628450000000  0.5660750000000 1.0
C      1  0.4952040000000  0.5714110000000  0.5616930000000 1.0
C      1  0.5445890000000  0.4713940000000  0.5460240000000 1.0
C      1  0.5697340000000  0.5403570000000  0.4886800000000 1.0
C      1  0.4973170000000  0.4262100000000  0.4890750000000 1.0
C      1  0.4404900000000  0.5382840000000  0.4880190000000 1.0
C      1  0.4656340000000  0.4755530000000  0.5213260000000 1.0
C      1  0.5002120000000  0.5443780000000  0.5171640000000 1.0
C      1  0.5412730000000  0.4833860000000  0.5191760000000 1.0
C      1  0.5313350000000  0.4326750000000  0.5244280000000 1.0
C      1  0.4337170000000  0.5021170000000  0.5239490000000 1.0
C      1  0.5375490000000  0.5626030000000  0.5219930000000 1.0
C      1  0.5564040000000  0.4792310000000  0.4523970000000 1.0
C      1  0.4436520000000  0.4603220000000  0.4556940000000 1.0
C      1  0.5001430000000  0.5664190000000  0.4510110000000 1.0
C      1  0.4733390000000  0.5556050000000  0.5693660000000 1.0
C      1  0.5490260000000  0.4918230000000  0.5657240000000 1.0
C      1  0.4608590000000  0.4464430000000  0.5730740000000 1.0
C      1  0.4598130000000  0.5325110000000  0.5877340000000 1.0
C      1  0.5321300000000  0.5124760000000  0.5834140000000 1.0
C      1  0.4887020000000  0.4358400000000  0.5855860000000 1.0
C      1  0.5818710000000  0.4762420000000  0.4636820000000 1.0
C      1  0.4224410000000  0.4486210000000  0.4699040000000 1.0
C      1  0.4939570000000  0.5892700000000  0.4666470000000 1.0
C      1  0.5166860000000  0.5423150000000  0.4948190000000 1.0
C      1  0.5288610000000  0.4684140000000  0.4985840000000 1.0
C      1  0.4612310000000  0.4899740000000  0.4978890000000 1.0
C      1  0.5104140000000  0.4652350000000  0.4547260000000 1.0
C      1  0.4672300000000  0.5029960000000  0.4527680000000 1.0
C      1  0.5281800000000  0.5261740000000  0.4525980000000 1.0
C      1  0.5156490000000  0.5556390000000  0.5445610000000 1.0
C      1  0.5350130000000  0.4453230000000  0.5494700000000 1.0
C      1  0.4487290000000  0.4867660000000  0.5480880000000 1.0
END
