TITL C-1154816-9297-653 0.000198567713982358 125000 -324.50963359294 0 0 60 (C1) n - 1
REM
REM in /home/nfs/bkarasulu/CARBON/AIRSS/Generating-Clusters/AIREBO/Higher-Symm/Only-C60
REM
REM
REM
REM
REM
REM ./C.cell (28575a23ae977d3b5fae324c64b13b57)
REM
REM compiler GCC version 9.2.1 20190827 (Red Hat 9.2.1-1)
REM options -cpp -mtune=generic -march=x86-64 -g -O0 -fpre-include=/usr/include/finclude/math-vector-fortran.h
REM seed -670616611 -1527015560 -579269910 1415894269 -165664454 -1501983736 1395024879 1946701462 -1529743750 -1721058171 1655825740 1903858070 -1225185955 617500657 -1845455353 -929983132 -1717178205 971986571 -794077898 1336383394 -2130344025 -465145457 1924051739 -1521544641 1640570969 1660070705 255264761 -543901422 -1038806884 -1537875190 -1081801179 -1315265478 272968552
REM
CELL 1.54180   50.00000   50.00000   50.00000   90.00000   90.00000   90.00000
LATT -1
SFAC C  
C      1  0.5139020000000  0.5287720000000  0.4743640000000 1.0
C      1  0.4826470000000  0.5349890000000  0.4757080000000 1.0
C      1  0.4741550000000  0.5297500000000  0.5065570000000 1.0
C      1  0.4998230000000  0.5219900000000  0.5258920000000 1.0
C      1  0.5252730000000  0.5275880000000  0.5054410000000 1.0
C      1  0.4592600000000  0.5045800000000  0.5557900000000 1.0
C      1  0.5502890000000  0.5117680000000  0.5604150000000 1.0
C      1  0.5751820000000  0.5058250000000  0.4854490000000 1.0
C      1  0.5050100000000  0.5040580000000  0.4263420000000 1.0
C      1  0.4281790000000  0.5046680000000  0.4795790000000 1.0
C      1  0.4925250000000  0.4640330000000  0.5470100000000 1.0
C      1  0.5483150000000  0.4758980000000  0.5149060000000 1.0
C      1  0.5313040000000  0.4757240000000  0.4635370000000 1.0
C      1  0.4730950000000  0.4772910000000  0.4609360000000 1.0
C      1  0.4489480000000  0.4772030000000  0.5053710000000 1.0
C      1  0.5698980000000  0.5337600000000  0.4868010000000 1.0
C      1  0.5080910000000  0.5313070000000  0.4343110000000 1.0
C      1  0.4334300000000  0.5352600000000  0.4724390000000 1.0
C      1  0.4562780000000  0.5360700000000  0.5509340000000 1.0
C      1  0.5356240000000  0.5411810000000  0.5567890000000 1.0
C      1  0.4159240000000  0.4855820000000  0.5048000000000 1.0
C      1  0.4782710000000  0.4801670000000  0.5698880000000 1.0
C      1  0.5633470000000  0.4849930000000  0.5440160000000 1.0
C      1  0.5621310000000  0.4914180000000  0.4658960000000 1.0
C      1  0.4803110000000  0.4927400000000  0.4309380000000 1.0
C      1  0.5279720000000  0.4888630000000  0.4323470000000 1.0
C      1  0.4412630000000  0.4888970000000  0.4580020000000 1.0
C      1  0.4412750000000  0.4915900000000  0.5352080000000 1.0
C      1  0.5220860000000  0.5095260000000  0.5767770000000 1.0
C      1  0.5783990000000  0.4918090000000  0.5133060000000 1.0
C      1  0.4966870000000  0.4174290000000  0.5211750000000 1.0
C      1  0.5240960000000  0.4316750000000  0.5079200000000 1.0
C      1  0.5174380000000  0.4360840000000  0.4764270000000 1.0
C      1  0.4841280000000  0.4358630000000  0.4733960000000 1.0
C      1  0.4715320000000  0.4307660000000  0.5029210000000 1.0
C      1  0.4593830000000  0.5351500000000  0.4543400000000 1.0
C      1  0.4484170000000  0.5409240000000  0.5209820000000 1.0
C      1  0.5061540000000  0.5379400000000  0.5536560000000 1.0
C      1  0.5533310000000  0.5407220000000  0.5118160000000 1.0
C      1  0.5353050000000  0.5344590000000  0.4516230000000 1.0
C      1  0.5395140000000  0.4569650000000  0.4916890000000 1.0
C      1  0.5021160000000  0.4592270000000  0.4578670000000 1.0
C      1  0.4611800000000  0.4575850000000  0.4859590000000 1.0
C      1  0.4749990000000  0.4396470000000  0.5350640000000 1.0
C      1  0.5138320000000  0.4407050000000  0.5390750000000 1.0
C      1  0.4338040000000  0.5135720000000  0.5120790000000 1.0
C      1  0.4923850000000  0.5085780000000  0.5627650000000 1.0
C      1  0.5566070000000  0.5136160000000  0.5269480000000 1.0
C      1  0.5485780000000  0.5061150000000  0.4442040000000 1.0
C      1  0.4564580000000  0.5070740000000  0.4401190000000 1.0
C      1  0.5161940000000  0.4967650000000  0.4821450000000 1.0
C      1  0.4853400000000  0.5015370000000  0.4806500000000 1.0
C      1  0.4730900000000  0.4968550000000  0.5101860000000 1.0
C      1  0.4973710000000  0.4881470000000  0.5287500000000 1.0
C      1  0.5240660000000  0.4936290000000  0.5122700000000 1.0
C      1  0.5492900000000  0.5571910000000  0.5382940000000 1.0
C      1  0.5616000000000  0.5463200000000  0.4638710000000 1.0
C      1  0.4853860000000  0.5461360000000  0.4373930000000 1.0
C      1  0.4318510000000  0.5516000000000  0.4950400000000 1.0
C      1  0.4776620000000  0.5504260000000  0.5616290000000 1.0
END
