TITL C-1154810-7815-140 -0.000776781390315191 125000 -342.402454392432 0 0 60 (C1) n - 1
REM
REM in /home/nfs/bkarasulu/CARBON/AIRSS/Generating-Clusters/AIREBO/Higher-Symm/Only-C60
REM
REM
REM
REM
REM
REM ./C.cell (28575a23ae977d3b5fae324c64b13b57)
REM
REM compiler GCC version 9.2.1 20190827 (Red Hat 9.2.1-1)
REM options -cpp -mtune=generic -march=x86-64 -g -O0 -fpre-include=/usr/include/finclude/math-vector-fortran.h
REM seed 711876607 722087624 -1259010002 -536203002 1408272452 -1686859440 631681271 -1430719151 1894524817 2146278515 701598110 1163921920 -809416057 -1664605080 -1628309797 -997322851 38850469 924975599 -736397634 382402407 575451163 -860282562 -147894088 -1970396682 -1330659925 -97962313 -1813980479 409863466 -1779415693 -1581361435 -650670735 632531031 -76046710
REM
CELL 1.54180   50.00000   50.00000   50.00000   90.00000   90.00000   90.00000
LATT -1
SFAC C  
C      1  0.4998440000000  0.5086250000000  0.5807990000000 1.0
C      1  0.5561920000000  0.5000580000000  0.5320710000000 1.0
C      1  0.5065770000000  0.4487510000000  0.5564140000000 1.0
C      1  0.5456020000000  0.5061250000000  0.5875290000000 1.0
C      1  0.5213490000000  0.4890640000000  0.5857020000000 1.0
C      1  0.4955170000000  0.4875980000000  0.4197630000000 1.0
C      1  0.5037850000000  0.5666580000000  0.4770070000000 1.0
C      1  0.5238550000000  0.5263790000000  0.4129390000000 1.0
C      1  0.5409550000000  0.4767420000000  0.4570930000000 1.0
C      1  0.5171430000000  0.5110520000000  0.4661550000000 1.0
C      1  0.4398670000000  0.5155930000000  0.4876630000000 1.0
C      1  0.4650270000000  0.4237100000000  0.5414730000000 1.0
C      1  0.5064900000000  0.5040780000000  0.4934630000000 1.0
C      1  0.4349390000000  0.5002330000000  0.4512390000000 1.0
C      1  0.4719240000000  0.4647860000000  0.4197220000000 1.0
C      1  0.4654500000000  0.4611640000000  0.4553840000000 1.0
C      1  0.5146290000000  0.5611880000000  0.5030670000000 1.0
C      1  0.5634840000000  0.4899550000000  0.5052060000000 1.0
C      1  0.4345650000000  0.5156620000000  0.5192530000000 1.0
C      1  0.4558760000000  0.5366110000000  0.5174790000000 1.0
C      1  0.4946530000000  0.5629680000000  0.5259610000000 1.0
C      1  0.5038330000000  0.5480470000000  0.4550770000000 1.0
C      1  0.5415820000000  0.5282170000000  0.5684080000000 1.0
C      1  0.4923440000000  0.4759340000000  0.4519590000000 1.0
C      1  0.4421210000000  0.4783660000000  0.4732770000000 1.0
C      1  0.5404190000000  0.4783470000000  0.5451770000000 1.0
C      1  0.5338750000000  0.5420130000000  0.5229000000000 1.0
C      1  0.5234520000000  0.4696830000000  0.5648430000000 1.0
C      1  0.5577010000000  0.5387840000000  0.4507380000000 1.0
C      1  0.5125690000000  0.4739080000000  0.4982620000000 1.0
C      1  0.4890320000000  0.4586940000000  0.5101120000000 1.0
C      1  0.5163240000000  0.4685110000000  0.4677530000000 1.0
C      1  0.5714360000000  0.4680470000000  0.4598670000000 1.0
C      1  0.4647040000000  0.4727920000000  0.5227360000000 1.0
C      1  0.4927590000000  0.4304440000000  0.5198780000000 1.0
C      1  0.5502750000000  0.5267540000000  0.5405930000000 1.0
C      1  0.4791660000000  0.5814850000000  0.4783510000000 1.0
C      1  0.5018680000000  0.5432160000000  0.5468600000000 1.0
C      1  0.4699200000000  0.4056210000000  0.5164440000000 1.0
C      1  0.5271940000000  0.5361990000000  0.4408600000000 1.0
C      1  0.5183960000000  0.4306420000000  0.5366750000000 1.0
C      1  0.4463680000000  0.5207400000000  0.4427070000000 1.0
C      1  0.5389480000000  0.4692430000000  0.5134000000000 1.0
C      1  0.5409820000000  0.4391730000000  0.5237500000000 1.0
C      1  0.5487800000000  0.5096470000000  0.4612990000000 1.0
C      1  0.4939200000000  0.5086640000000  0.4453470000000 1.0
C      1  0.5697750000000  0.4925920000000  0.4792360000000 1.0
C      1  0.4381500000000  0.4456630000000  0.4650680000000 1.0
C      1  0.4458840000000  0.4867980000000  0.5047140000000 1.0
C      1  0.4604340000000  0.5356150000000  0.4770900000000 1.0
C      1  0.4792920000000  0.5227110000000  0.5009310000000 1.0
C      1  0.5062190000000  0.5254280000000  0.5185990000000 1.0
C      1  0.4670880000000  0.4820900000000  0.5541020000000 1.0
C      1  0.5155350000000  0.5042740000000  0.4033940000000 1.0
C      1  0.4754790000000  0.5324980000000  0.4497650000000 1.0
C      1  0.5123900000000  0.5322640000000  0.5696100000000 1.0
C      1  0.4770260000000  0.4519170000000  0.5496720000000 1.0
C      1  0.4560250000000  0.5663630000000  0.4804120000000 1.0
C      1  0.4663110000000  0.5628250000000  0.5216710000000 1.0
C      1  0.4747030000000  0.4987950000000  0.5730810000000 1.0
END
