TITL C-1154829-9094-600 -0.000723953697872512 125000 -341.500139853101 0 0 60 (C5) n - 1
REM
REM in /home/nfs/bkarasulu/CARBON/AIRSS/Generating-Clusters/AIREBO/Higher-Symm/Only-C60
REM
REM
REM
REM
REM
REM ./C.cell (28575a23ae977d3b5fae324c64b13b57)
REM
REM compiler GCC version 9.2.1 20190827 (Red Hat 9.2.1-1)
REM options -cpp -mtune=generic -march=x86-64 -g -O0 -fpre-include=/usr/include/finclude/math-vector-fortran.h
REM seed 381399218 53732033 -39916180 2005464810 -68323481 -1460924274 335086387 -567725087 -145479928 1959069911 145256946 -995451581 1741909835 -733614178 -173943371 -335711084 1196017342 906320350 -982597977 -930644181 -589859410 -2084507978 -954232883 396304964 715709063 -2115875256 -1991808228 -412096253 1406430012 1922614963 1257330895 -2116926295 1850828910
REM
CELL 1.54180   50.00000   50.00000   50.00000   90.00000   90.00000   90.00000
LATT -1
SFAC C  
C      1  0.4028020000000  0.5053560000000  0.5374020000000 1.0
C      1  0.4750320000000  0.5940690000000  0.5374490000000 1.0
C      1  0.5817260000000  0.5527890000000  0.5375370000000 1.0
C      1  0.5754370000000  0.4385610000000  0.5375450000000 1.0
C      1  0.4648550000000  0.4092480000000  0.5374620000000 1.0
C      1  0.4757190000000  0.4995560000000  0.5572130000000 1.0
C      1  0.4920370000000  0.5229180000000  0.5572230000000 1.0
C      1  0.5192980000000  0.5146180000000  0.5572450000000 1.0
C      1  0.5198280000000  0.4861260000000  0.5572490000000 1.0
C      1  0.4928950000000  0.4768170000000  0.5572290000000 1.0
C      1  0.5524800000000  0.5578670000000  0.4991690000000 1.0
C      1  0.5712520000000  0.4679710000000  0.4991950000000 1.0
C      1  0.4915580000000  0.4223380000000  0.4991370000000 1.0
C      1  0.4235310000000  0.4840310000000  0.4990770000000 1.0
C      1  0.4611820000000  0.5677920000000  0.4990960000000 1.0
C      1  0.5414530000000  0.4295820000000  0.4835450000000 1.0
C      1  0.4458490000000  0.4388270000000  0.4834700000000 1.0
C      1  0.4250970000000  0.5326080000000  0.4834410000000 1.0
C      1  0.5078760000000  0.5813230000000  0.4835010000000 1.0
C      1  0.5797880000000  0.5176500000000  0.4835650000000 1.0
C      1  0.4813520000000  0.4269260000000  0.5245900000000 1.0
C      1  0.4247220000000  0.4951390000000  0.5245380000000 1.0
C      1  0.4720970000000  0.5700740000000  0.5245660000000 1.0
C      1  0.5580060000000  0.5481740000000  0.5246360000000 1.0
C      1  0.5637260000000  0.4597020000000  0.5246510000000 1.0
C      1  0.5194960000000  0.5147580000000  0.4545580000000 1.0
C      1  0.5200900000000  0.4860490000000  0.4545620000000 1.0
C      1  0.4929700000000  0.4766120000000  0.4545410000000 1.0
C      1  0.4756140000000  0.4994890000000  0.4545250000000 1.0
C      1  0.4920080000000  0.5230640000000  0.4545350000000 1.0
C      1  0.4841900000000  0.5460650000000  0.5351630000000 1.0
C      1  0.5389030000000  0.5292470000000  0.5352090000000 1.0
C      1  0.5398150000000  0.4720140000000  0.5352180000000 1.0
C      1  0.4856670000000  0.4534650000000  0.5351740000000 1.0
C      1  0.4512870000000  0.4992300000000  0.5351450000000 1.0
C      1  0.4217930000000  0.5025700000000  0.4751460000000 1.0
C      1  0.4782930000000  0.5751900000000  0.4751820000000 1.0
C      1  0.5648190000000  0.5438960000000  0.4752540000000 1.0
C      1  0.5617940000000  0.4519340000000  0.4752620000000 1.0
C      1  0.4733990000000  0.4263940000000  0.4751950000000 1.0
C      1  0.5090540000000  0.4736260000000  0.5208460000000 1.0
C      1  0.4777050000000  0.4832280000000  0.5208190000000 1.0
C      1  0.4771430000000  0.5160110000000  0.5208160000000 1.0
C      1  0.5081490000000  0.5266710000000  0.5208390000000 1.0
C      1  0.5278680000000  0.5004780000000  0.5208570000000 1.0
C      1  0.4669410000000  0.5961230000000  0.4599160000000 1.0
C      1  0.5812290000000  0.5611710000000  0.4600100000000 1.0
C      1  0.5833050000000  0.4416760000000  0.4600260000000 1.0
C      1  0.4702990000000  0.4027760000000  0.4599410000000 1.0
C      1  0.3983830000000  0.4982290000000  0.4598740000000 1.0
C      1  0.5315970000000  0.5752820000000  0.4939670000000 1.0
C      1  0.5813650000000  0.4932170000000  0.4940160000000 1.0
C      1  0.5186970000000  0.4205240000000  0.4939740000000 1.0
C      1  0.4301960000000  0.4576640000000  0.4939020000000 1.0
C      1  0.4381680000000  0.5533090000000  0.4938950000000 1.0
C      1  0.4482690000000  0.4994860000000  0.4583400000000 1.0
C      1  0.4835520000000  0.5490680000000  0.4583620000000 1.0
C      1  0.5416110000000  0.5308330000000  0.4584100000000 1.0
C      1  0.5422100000000  0.4699810000000  0.4584180000000 1.0
C      1  0.4845210000000  0.4506070000000  0.4583740000000 1.0
END
