TITL C-1154801-8518-189 0.00292932654038819 125000 -327.095061373446 0 0 60 (C1) n - 1
REM
REM in /home/nfs/bkarasulu/CARBON/AIRSS/Generating-Clusters/AIREBO/Higher-Symm/Only-C60
REM
REM
REM
REM
REM
REM ./C.cell (28575a23ae977d3b5fae324c64b13b57)
REM
REM compiler GCC version 9.2.1 20190827 (Red Hat 9.2.1-1)
REM options -cpp -mtune=generic -march=x86-64 -g -O0 -fpre-include=/usr/include/finclude/math-vector-fortran.h
REM seed -458488805 937774813 -787944533 -455614289 -512609834 -665033523 1291593390 193686866 1390903934 1206243797 -1039066834 278292030 -2109828276 -1179931105 1306820192 -956079399 773633549 -1700425923 528109553 272184605 70825491 1742338021 -785228216 -614537743 -1487531993 562843136 1533218249 -989659949 -1871958862 -312477573 1241003120 -801240889 793477110
REM
CELL 1.54180   50.00000   50.00000   50.00000   90.00000   90.00000   90.00000
LATT -1
SFAC C  
C      1  0.5022840000000  0.5582450000000  0.5228490000000 1.0
C      1  0.5426900000000  0.4664930000000  0.5289010000000 1.0
C      1  0.5281170000000  0.5614650000000  0.4663130000000 1.0
C      1  0.5033610000000  0.4980530000000  0.5142690000000 1.0
C      1  0.5606640000000  0.4883010000000  0.4700220000000 1.0
C      1  0.5512780000000  0.4418810000000  0.5447210000000 1.0
C      1  0.4885990000000  0.4666120000000  0.5600840000000 1.0
C      1  0.4997460000000  0.4390220000000  0.4397540000000 1.0
C      1  0.5419340000000  0.5466990000000  0.4904440000000 1.0
C      1  0.5068760000000  0.5565150000000  0.4920120000000 1.0
C      1  0.4611490000000  0.5589590000000  0.4965660000000 1.0
C      1  0.4413040000000  0.5465690000000  0.5179580000000 1.0
C      1  0.5113500000000  0.4346470000000  0.5044420000000 1.0
C      1  0.4750180000000  0.5460380000000  0.5317350000000 1.0
C      1  0.5704180000000  0.5497560000000  0.4948630000000 1.0
C      1  0.4287340000000  0.5260220000000  0.4773650000000 1.0
C      1  0.4614370000000  0.4976210000000  0.4536880000000 1.0
C      1  0.4918610000000  0.4357990000000  0.4678190000000 1.0
C      1  0.5127240000000  0.4612460000000  0.4335390000000 1.0
C      1  0.5039190000000  0.5116920000000  0.4768410000000 1.0
C      1  0.5383220000000  0.4754910000000  0.5824110000000 1.0
C      1  0.5234390000000  0.5486420000000  0.5392440000000 1.0
C      1  0.5188720000000  0.5426320000000  0.5664210000000 1.0
C      1  0.4815210000000  0.5370420000000  0.4803990000000 1.0
C      1  0.4240300000000  0.5265460000000  0.5048950000000 1.0
C      1  0.5392470000000  0.5295520000000  0.5262920000000 1.0
C      1  0.4448240000000  0.4604180000000  0.5364410000000 1.0
C      1  0.5962340000000  0.4772840000000  0.5297220000000 1.0
C      1  0.5147420000000  0.4881210000000  0.4548370000000 1.0
C      1  0.5114900000000  0.4598860000000  0.4734770000000 1.0
C      1  0.4194680000000  0.4775240000000  0.5255240000000 1.0
C      1  0.5237990000000  0.5213460000000  0.5000160000000 1.0
C      1  0.4427970000000  0.4881490000000  0.5560930000000 1.0
C      1  0.5365170000000  0.5246620000000  0.4352800000000 1.0
C      1  0.5313160000000  0.4868240000000  0.4251770000000 1.0
C      1  0.5341640000000  0.4496550000000  0.4919120000000 1.0
C      1  0.5092270000000  0.5121000000000  0.4224250000000 1.0
C      1  0.4531630000000  0.4561700000000  0.4844620000000 1.0
C      1  0.4660850000000  0.4768080000000  0.4727230000000 1.0
C      1  0.4660310000000  0.4561230000000  0.5605520000000 1.0
C      1  0.5117220000000  0.4765300000000  0.5372040000000 1.0
C      1  0.4773060000000  0.5035190000000  0.4308390000000 1.0
C      1  0.4408050000000  0.5147970000000  0.5577860000000 1.0
C      1  0.4856800000000  0.5341240000000  0.4284360000000 1.0
C      1  0.5353980000000  0.5518560000000  0.4420880000000 1.0
C      1  0.5222260000000  0.4908090000000  0.5662230000000 1.0
C      1  0.4944500000000  0.4511010000000  0.5226720000000 1.0
C      1  0.5139520000000  0.5164400000000  0.5729480000000 1.0
C      1  0.4485800000000  0.5384440000000  0.5481470000000 1.0
C      1  0.4844260000000  0.5509900000000  0.4495260000000 1.0
C      1  0.4922670000000  0.4819860000000  0.4868200000000 1.0
C      1  0.4626020000000  0.4482590000000  0.5146980000000 1.0
C      1  0.5534790000000  0.4735320000000  0.4968870000000 1.0
C      1  0.5619520000000  0.5160080000000  0.5300720000000 1.0
C      1  0.4802700000000  0.4282490000000  0.4935800000000 1.0
C      1  0.4169370000000  0.5035280000000  0.5186950000000 1.0
C      1  0.4846820000000  0.5241360000000  0.5117050000000 1.0
C      1  0.5682380000000  0.4867570000000  0.5235950000000 1.0
C      1  0.4543420000000  0.5212650000000  0.4674010000000 1.0
C      1  0.5519310000000  0.5010550000000  0.4481920000000 1.0
END
