TITL C-1154828-9214-429 -0.102449476711354 125000 -304.224347631943 0 0 60 (C1) n - 1
REM
REM in /home/nfs/bkarasulu/CARBON/AIRSS/Generating-Clusters/AIREBO/Higher-Symm/Only-C60
REM
REM
REM
REM
REM
REM ./C.cell (28575a23ae977d3b5fae324c64b13b57)
REM
REM compiler GCC version 9.2.1 20190827 (Red Hat 9.2.1-1)
REM options -cpp -mtune=generic -march=x86-64 -g -O0 -fpre-include=/usr/include/finclude/math-vector-fortran.h
REM seed 1955284561 120291455 571319382 809244309 -292099446 1170545178 1876483703 1516552664 1324476792 1403539799 158519660 -1289631173 557669931 1098803071 -67527590 -334399982 1170141534 -1094549290 -1595952897 5190521 -1070467793 -1421904792 342474809 846962325 -1529294586 -874441220 1568871704 -742200855 1189631399 -2050563912 1053155601 -747985425 -1549256452
REM
CELL 1.54180   50.00000   50.00000   50.00000   90.00000   90.00000   90.00000
LATT -1
SFAC C  
C      1  0.5337910000000  0.4841220000000  0.4284350000000 1.0
C      1  0.4664630000000  0.5696980000000  0.4805000000000 1.0
C      1  0.5344570000000  0.5205920000000  0.5699880000000 1.0
C      1  0.4807940000000  0.4286380000000  0.5143110000000 1.0
C      1  0.5633510000000  0.4754750000000  0.4623630000000 1.0
C      1  0.4212730000000  0.5334990000000  0.4792820000000 1.0
C      1  0.5658520000000  0.5154290000000  0.5367940000000 1.0
C      1  0.4295490000000  0.4611560000000  0.5198280000000 1.0
C      1  0.5495780000000  0.4568000000000  0.5129510000000 1.0
C      1  0.4567160000000  0.4881350000000  0.4619750000000 1.0
C      1  0.5418030000000  0.5314580000000  0.4862570000000 1.0
C      1  0.4582620000000  0.5124790000000  0.5327840000000 1.0
C      1  0.5464650000000  0.4535970000000  0.5400030000000 1.0
C      1  0.4585380000000  0.4655780000000  0.4409280000000 1.0
C      1  0.5427250000000  0.5517370000000  0.4631190000000 1.0
C      1  0.4580310000000  0.5379310000000  0.5503150000000 1.0
C      1  0.4977670000000  0.4464020000000  0.4712650000000 1.0
C      1  0.5004230000000  0.5219610000000  0.4440180000000 1.0
C      1  0.4999490000000  0.5540620000000  0.5186530000000 1.0
C      1  0.4987620000000  0.4836200000000  0.5602230000000 1.0
C      1  0.5205700000000  0.5487600000000  0.4404680000000 1.0
C      1  0.4799850000000  0.5602840000000  0.5449680000000 1.0
C      1  0.5254530000000  0.4633360000000  0.5628570000000 1.0
C      1  0.4826130000000  0.4446680000000  0.4439850000000 1.0
C      1  0.4609000000000  0.4737430000000  0.5237190000000 1.0
C      1  0.5353170000000  0.4726130000000  0.4797420000000 1.0
C      1  0.4595860000000  0.5240410000000  0.4786640000000 1.0
C      1  0.5372180000000  0.5172090000000  0.5229920000000 1.0
C      1  0.5059650000000  0.4893900000000  0.4409850000000 1.0
C      1  0.4949240000000  0.5567570000000  0.4851670000000 1.0
C      1  0.5058600000000  0.5161020000000  0.5566690000000 1.0
C      1  0.5062920000000  0.4439040000000  0.5234170000000 1.0
C      1  0.5221460000000  0.4341190000000  0.5490890000000 1.0
C      1  0.4861320000000  0.4702460000000  0.4262010000000 1.0
C      1  0.5158770000000  0.5684430000000  0.4649240000000 1.0
C      1  0.4852030000000  0.5377210000000  0.5666240000000 1.0
C      1  0.5053010000000  0.5857030000000  0.5208730000000 1.0
C      1  0.4922220000000  0.4818090000000  0.5903870000000 1.0
C      1  0.4844020000000  0.4223070000000  0.4879600000000 1.0
C      1  0.4963970000000  0.5258400000000  0.4124510000000 1.0
C      1  0.5607230000000  0.5147580000000  0.5633890000000 1.0
C      1  0.4568350000000  0.4403880000000  0.5215190000000 1.0
C      1  0.5594410000000  0.4812900000000  0.4367950000000 1.0
C      1  0.4458970000000  0.5521410000000  0.4810770000000 1.0
C      1  0.5095090000000  0.5273040000000  0.4763770000000 1.0
C      1  0.4902640000000  0.5225500000000  0.5271200000000 1.0
C      1  0.5006680000000  0.4741560000000  0.5276100000000 1.0
C      1  0.4888630000000  0.4791760000000  0.4685680000000 1.0
C      1  0.4669560000000  0.4859900000000  0.5522540000000 1.0
C      1  0.5232130000000  0.4455380000000  0.4939690000000 1.0
C      1  0.4683230000000  0.5174690000000  0.4492640000000 1.0
C      1  0.5311610000000  0.5467030000000  0.5147400000000 1.0
C      1  0.5639680000000  0.4809190000000  0.4950010000000 1.0
C      1  0.4354990000000  0.5028690000000  0.4844970000000 1.0
C      1  0.5623620000000  0.5097130000000  0.5033080000000 1.0
C      1  0.4361540000000  0.4946440000000  0.5133820000000 1.0
C      1  0.4831340000000  0.5158720000000  0.4945490000000 1.0
C      1  0.5138730000000  0.5010870000000  0.5153280000000 1.0
C      1  0.4811170000000  0.4834900000000  0.5014030000000 1.0
C      1  0.5151280000000  0.4945780000000  0.4837150000000 1.0
END
