TITL C-1154823-9327-139 -0.390046920646464 125000 -346.4036226694 0 0 60 (C1) n - 1
REM
REM in /home/nfs/bkarasulu/CARBON/AIRSS/Generating-Clusters/AIREBO/Higher-Symm/Only-C60
REM
REM
REM
REM
REM
REM ./C.cell (28575a23ae977d3b5fae324c64b13b57)
REM
REM compiler GCC version 9.2.1 20190827 (Red Hat 9.2.1-1)
REM options -cpp -mtune=generic -march=x86-64 -g -O0 -fpre-include=/usr/include/finclude/math-vector-fortran.h
REM seed 1914515403 -1323933234 -1712968166 899933746 855327394 -1948676523 -385739953 -42318563 -1949414732 913569396 202600937 -249080653 1308949939 501768048 -1570803951 -871652143 1657853220 1006980008 -1816259033 -285051589 204953989 -1025793658 939339074 -1670337842 1745250548 831625825 -1785935899 910004594 1201642244 -1283430984 -507105573 1076844222 265752539
REM
CELL 1.54180   50.00000   50.00000   50.00000   90.00000   90.00000   90.00000
LATT -1
SFAC C  
C      1  0.5394750000000  0.5599860000000  0.4919260000000 1.0
C      1  0.5366940000000  0.4514550000000  0.5028150000000 1.0
C      1  0.4273450000000  0.5004130000000  0.4856210000000 1.0
C      1  0.5479590000000  0.5828230000000  0.4807590000000 1.0
C      1  0.5612850000000  0.4441230000000  0.4953640000000 1.0
C      1  0.4021520000000  0.4960850000000  0.4777020000000 1.0
C      1  0.5122310000000  0.5073770000000  0.4430140000000 1.0
C      1  0.4939120000000  0.4807060000000  0.4454630000000 1.0
C      1  0.4802290000000  0.5102180000000  0.4448930000000 1.0
C      1  0.5235260000000  0.4977340000000  0.5962120000000 1.0
C      1  0.5047700000000  0.4714070000000  0.5995910000000 1.0
C      1  0.4917880000000  0.5014400000000  0.6004980000000 1.0
C      1  0.4664400000000  0.4856280000000  0.5483270000000 1.0
C      1  0.5235600000000  0.5521380000000  0.5574410000000 1.0
C      1  0.4912550000000  0.4725930000000  0.5517360000000 1.0
C      1  0.4757480000000  0.5054040000000  0.4958160000000 1.0
C      1  0.5046380000000  0.5212840000000  0.4953670000000 1.0
C      1  0.5032390000000  0.4886180000000  0.4961430000000 1.0
C      1  0.5095890000000  0.5560960000000  0.5341490000000 1.0
C      1  0.5156050000000  0.4824320000000  0.5415390000000 1.0
C      1  0.4491590000000  0.4775280000000  0.5276750000000 1.0
C      1  0.5131900000000  0.5487020000000  0.5086970000000 1.0
C      1  0.5228770000000  0.4769530000000  0.5164820000000 1.0
C      1  0.4490460000000  0.4894590000000  0.5025860000000 1.0
C      1  0.4316110000000  0.6167540000000  0.4742230000000 1.0
C      1  0.6259080000000  0.4994510000000  0.4803940000000 1.0
C      1  0.4522980000000  0.3761060000000  0.4890400000000 1.0
C      1  0.4480370000000  0.5465170000000  0.4376260000000 1.0
C      1  0.5590180000000  0.5203710000000  0.4400260000000 1.0
C      1  0.4926130000000  0.4317540000000  0.4463700000000 1.0
C      1  0.5334960000000  0.5280200000000  0.4815340000000 1.0
C      1  0.5051310000000  0.4580290000000  0.4863710000000 1.0
C      1  0.4513030000000  0.5231200000000  0.4815950000000 1.0
C      1  0.5422590000000  0.5307690000000  0.5595770000000 1.0
C      1  0.4939120000000  0.4453800000000  0.5605140000000 1.0
C      1  0.4639430000000  0.5121300000000  0.5585380000000 1.0
C      1  0.4409980000000  0.5704130000000  0.4498230000000 1.0
C      1  0.5824910000000  0.5145670000000  0.4536140000000 1.0
C      1  0.4799250000000  0.4118160000000  0.4608890000000 1.0
C      1  0.4366610000000  0.5942300000000  0.4609310000000 1.0
C      1  0.6046960000000  0.5064850000000  0.4659010000000 1.0
C      1  0.4654610000000  0.3936050000000  0.4738740000000 1.0
C      1  0.5595290000000  0.5280320000000  0.4141300000000 1.0
C      1  0.5011090000000  0.4272030000000  0.4211330000000 1.0
C      1  0.4431730000000  0.5424950000000  0.4113590000000 1.0
C      1  0.6464670000000  0.4901630000000  0.4937390000000 1.0
C      1  0.4371890000000  0.3598440000000  0.5029780000000 1.0
C      1  0.4289160000000  0.6397600000000  0.4864910000000 1.0
C      1  0.5501640000000  0.5336490000000  0.5105930000000 1.0
C      1  0.5077300000000  0.4385040000000  0.5139510000000 1.0
C      1  0.4559630000000  0.5360210000000  0.5121760000000 1.0
C      1  0.5566630000000  0.5275560000000  0.5353450000000 1.0
C      1  0.4983440000000  0.4293870000000  0.5372600000000 1.0
C      1  0.4557300000000  0.5308640000000  0.5389720000000 1.0
C      1  0.4996620000000  0.4461660000000  0.5884880000000 1.0
C      1  0.4721780000000  0.5142170000000  0.5854460000000 1.0
C      1  0.5401810000000  0.5144300000000  0.5821870000000 1.0
C      1  0.4967900000000  0.4564600000000  0.4584070000000 1.0
C      1  0.4598230000000  0.5267020000000  0.4529720000000 1.0
C      1  0.5349110000000  0.5184260000000  0.4537190000000 1.0
END
