TITL C-1154830-9999-689 0.00122626254199813 125000 -317.42368774048 0 0 60 (C1) n - 1
REM
REM in /home/nfs/bkarasulu/CARBON/AIRSS/Generating-Clusters/AIREBO/Higher-Symm/Only-C60
REM
REM
REM
REM
REM
REM ./C.cell (28575a23ae977d3b5fae324c64b13b57)
REM
REM compiler GCC version 9.2.1 20190827 (Red Hat 9.2.1-1)
REM options -cpp -mtune=generic -march=x86-64 -g -O0 -fpre-include=/usr/include/finclude/math-vector-fortran.h
REM seed 2024953032 -677689070 256156891 2063304172 -2113409799 1837203411 -1160868718 667145249 1999627656 520172322 -1971465159 760513637 2082394215 41915783 -1884006301 1706406307 1842987704 1616736848 -1166077262 -1486106657 -2595930 1671062070 -951300937 1614521013 14909854 -1375857580 -1067313322 -194374694 1324613315 272823434 1950581014 1808627953 -1023357522
REM
CELL 1.54180   50.00000   50.00000   50.00000   90.00000   90.00000   90.00000
LATT -1
SFAC C  
C      1  0.4591860000000  0.5460790000000  0.4609220000000 1.0
C      1  0.4822220000000  0.4426520000000  0.4645640000000 1.0
C      1  0.5591440000000  0.5125200000000  0.4600370000000 1.0
C      1  0.4441670000000  0.4876510000000  0.4637310000000 1.0
C      1  0.5417360000000  0.4585660000000  0.4585620000000 1.0
C      1  0.5176450000000  0.5559250000000  0.4578340000000 1.0
C      1  0.4420640000000  0.4790980000000  0.4940360000000 1.0
C      1  0.5525460000000  0.4585570000000  0.4887210000000 1.0
C      1  0.5115690000000  0.5671900000000  0.4870270000000 1.0
C      1  0.4801290000000  0.5211970000000  0.4658870000000 1.0
C      1  0.4935620000000  0.4726400000000  0.4664920000000 1.0
C      1  0.5270470000000  0.5072110000000  0.4647250000000 1.0
C      1  0.5349770000000  0.4336780000000  0.4766530000000 1.0
C      1  0.5416600000000  0.5583610000000  0.4785270000000 1.0
C      1  0.4305650000000  0.5075550000000  0.4847120000000 1.0
C      1  0.4881280000000  0.4829940000000  0.4283760000000 1.0
C      1  0.5183590000000  0.4984790000000  0.4267630000000 1.0
C      1  0.4899510000000  0.5171510000000  0.4274660000000 1.0
C      1  0.4682870000000  0.5446450000000  0.5463370000000 1.0
C      1  0.4698240000000  0.4546690000000  0.5473000000000 1.0
C      1  0.5483100000000  0.5015710000000  0.5412190000000 1.0
C      1  0.4426280000000  0.5150290000000  0.5388640000000 1.0
C      1  0.5139830000000  0.4416880000000  0.5400140000000 1.0
C      1  0.5402310000000  0.5403090000000  0.5373770000000 1.0
C      1  0.4743550000000  0.4327230000000  0.4963040000000 1.0
C      1  0.5777170000000  0.5018050000000  0.4852030000000 1.0
C      1  0.4624890000000  0.5689960000000  0.4858220000000 1.0
C      1  0.4914230000000  0.4953340000000  0.5350470000000 1.0
C      1  0.5187620000000  0.4850150000000  0.5387920000000 1.0
C      1  0.4921020000000  0.5251520000000  0.5326810000000 1.0
C      1  0.5364190000000  0.4794130000000  0.5102090000000 1.0
C      1  0.5001360000000  0.5467100000000  0.5076430000000 1.0
C      1  0.4711080000000  0.4815980000000  0.5114910000000 1.0
C      1  0.4992350000000  0.4785570000000  0.4956900000000 1.0
C      1  0.5194350000000  0.5047410000000  0.4951670000000 1.0
C      1  0.4842330000000  0.5190640000000  0.4958580000000 1.0
C      1  0.5365860000000  0.4835950000000  0.5677130000000 1.0
C      1  0.4962450000000  0.5349640000000  0.5642590000000 1.0
C      1  0.4669860000000  0.4847190000000  0.5541020000000 1.0
C      1  0.4677200000000  0.4491960000000  0.5185190000000 1.0
C      1  0.5603490000000  0.5035720000000  0.5102860000000 1.0
C      1  0.4668060000000  0.5512750000000  0.5130140000000 1.0
C      1  0.5064240000000  0.4346370000000  0.4865350000000 1.0
C      1  0.5503290000000  0.5300190000000  0.4878290000000 1.0
C      1  0.4478450000000  0.5330420000000  0.4902080000000 1.0
C      1  0.5149000000000  0.4530320000000  0.5112070000000 1.0
C      1  0.5296150000000  0.5323490000000  0.5122050000000 1.0
C      1  0.4570210000000  0.5124180000000  0.5142930000000 1.0
C      1  0.5457710000000  0.5088800000000  0.4294410000000 1.0
C      1  0.4673050000000  0.5352100000000  0.4304270000000 1.0
C      1  0.4831740000000  0.4541340000000  0.4326460000000 1.0
C      1  0.4718750000000  0.4939740000000  0.4554380000000 1.0
C      1  0.5202710000000  0.4780130000000  0.4524830000000 1.0
C      1  0.5086820000000  0.5280930000000  0.4525410000000 1.0
C      1  0.4964440000000  0.4523620000000  0.5579720000000 1.0
C      1  0.5276720000000  0.5228300000000  0.5579540000000 1.0
C      1  0.4600360000000  0.5168700000000  0.5641650000000 1.0
C      1  0.4784600000000  0.4967650000000  0.5836380000000 1.0
C      1  0.5045320000000  0.4763090000000  0.5750840000000 1.0
C      1  0.5096140000000  0.5092160000000  0.5819890000000 1.0
END
