TITL C-1154821-8623-49 -0.000623387117113714 125000 -311.893882704494 0 0 60 (C1) n - 1
REM
REM in /home/nfs/bkarasulu/CARBON/AIRSS/Generating-Clusters/AIREBO/Higher-Symm/Only-C60
REM
REM
REM
REM
REM
REM ./C.cell (28575a23ae977d3b5fae324c64b13b57)
REM
REM compiler GCC version 9.2.1 20190827 (Red Hat 9.2.1-1)
REM options -cpp -mtune=generic -march=x86-64 -g -O0 -fpre-include=/usr/include/finclude/math-vector-fortran.h
REM seed 1511897068 -459032894 -1081974772 1614089652 1204920896 -1497820019 -1476178881 -671559341 923931479 -411999717 1678005737 1565598047 24490157 252918210 -1832149337 2107583894 274807165 1588654507 1991186718 962674492 1173589994 1510545069 2026501140 2018029781 453724019 478218169 -765054101 1627592368 1779336038 -1373791720 370667014 6551819 148400372
REM
CELL 1.54180   50.00000   50.00000   50.00000   90.00000   90.00000   90.00000
LATT -1
SFAC C  
C      1  0.4941940000000  0.5527710000000  0.5274430000000 1.0
C      1  0.5182920000000  0.5640820000000  0.5178340000000 1.0
C      1  0.5262730000000  0.5561070000000  0.4918590000000 1.0
C      1  0.5032020000000  0.5537090000000  0.4730510000000 1.0
C      1  0.4782220000000  0.5628800000000  0.4827680000000 1.0
C      1  0.4709190000000  0.5547550000000  0.5088860000000 1.0
C      1  0.5691990000000  0.5455010000000  0.4561790000000 1.0
C      1  0.5216890000000  0.5372590000000  0.4382140000000 1.0
C      1  0.4672420000000  0.5347630000000  0.4238360000000 1.0
C      1  0.4316000000000  0.5451460000000  0.5456260000000 1.0
C      1  0.4802350000000  0.5358240000000  0.5630450000000 1.0
C      1  0.5445590000000  0.5328860000000  0.5526950000000 1.0
C      1  0.4893320000000  0.4668120000000  0.4705270000000 1.0
C      1  0.4709040000000  0.4635590000000  0.4954640000000 1.0
C      1  0.4776740000000  0.4626580000000  0.5257370000000 1.0
C      1  0.5089400000000  0.4633580000000  0.5311590000000 1.0
C      1  0.5276030000000  0.4672470000000  0.5057070000000 1.0
C      1  0.5210970000000  0.4639230000000  0.4758980000000 1.0
C      1  0.4318770000000  0.4770340000000  0.5343790000000 1.0
C      1  0.4931360000000  0.4713000000000  0.5781180000000 1.0
C      1  0.5586070000000  0.4763560000000  0.5434580000000 1.0
C      1  0.5674770000000  0.4775060000000  0.4665100000000 1.0
C      1  0.5063770000000  0.4721940000000  0.4230260000000 1.0
C      1  0.4415210000000  0.4759750000000  0.4566480000000 1.0
C      1  0.5478130000000  0.4549120000000  0.5277060000000 1.0
C      1  0.5502270000000  0.4545490000000  0.4669480000000 1.0
C      1  0.5010730000000  0.4523910000000  0.4435300000000 1.0
C      1  0.4516910000000  0.4534430000000  0.4713660000000 1.0
C      1  0.4483870000000  0.4535880000000  0.5341190000000 1.0
C      1  0.4971700000000  0.4504840000000  0.5583530000000 1.0
C      1  0.5552930000000  0.5213470000000  0.5276500000000 1.0
C      1  0.5541080000000  0.5232090000000  0.4608350000000 1.0
C      1  0.4795250000000  0.5204150000000  0.4409010000000 1.0
C      1  0.4473620000000  0.5202400000000  0.4743030000000 1.0
C      1  0.4457470000000  0.5224660000000  0.5401130000000 1.0
C      1  0.5213460000000  0.5190980000000  0.5579210000000 1.0
C      1  0.5182020000000  0.4904770000000  0.4565740000000 1.0
C      1  0.4769730000000  0.4936770000000  0.4617500000000 1.0
C      1  0.4569000000000  0.4907660000000  0.5064350000000 1.0
C      1  0.4816150000000  0.4894500000000  0.5440140000000 1.0
C      1  0.5217160000000  0.4910240000000  0.5387390000000 1.0
C      1  0.5429000000000  0.4924710000000  0.4941890000000 1.0
C      1  0.4666870000000  0.4869560000000  0.5716910000000 1.0
C      1  0.5388270000000  0.4843460000000  0.5661170000000 1.0
C      1  0.5743860000000  0.4880900000000  0.4954510000000 1.0
C      1  0.5333130000000  0.4872760000000  0.4291390000000 1.0
C      1  0.4609920000000  0.4857040000000  0.4342610000000 1.0
C      1  0.4251750000000  0.4874320000000  0.5052560000000 1.0
C      1  0.5567650000000  0.4974330000000  0.4486790000000 1.0
C      1  0.4805110000000  0.4819380000000  0.4136030000000 1.0
C      1  0.4321550000000  0.4962100000000  0.4755150000000 1.0
C      1  0.4431480000000  0.4967760000000  0.5521780000000 1.0
C      1  0.5194070000000  0.4806490000000  0.5870370000000 1.0
C      1  0.5692250000000  0.4969690000000  0.5252870000000 1.0
C      1  0.4944680000000  0.5201750000000  0.5371190000000 1.0
C      1  0.5229330000000  0.5177520000000  0.5177540000000 1.0
C      1  0.5312320000000  0.5231290000000  0.4852180000000 1.0
C      1  0.5056680000000  0.5214390000000  0.4626230000000 1.0
C      1  0.4790560000000  0.5185230000000  0.4838060000000 1.0
C      1  0.4678360000000  0.5215950000000  0.5157540000000 1.0
END
