TITL C-1154803-8277-582 0.00240988012714663 125000 -321.595102241756 0 0 60 (C1) n - 1
REM
REM in /home/nfs/bkarasulu/CARBON/AIRSS/Generating-Clusters/AIREBO/Higher-Symm/Only-C60
REM
REM
REM
REM
REM
REM ./C.cell (28575a23ae977d3b5fae324c64b13b57)
REM
REM compiler GCC version 9.2.1 20190827 (Red Hat 9.2.1-1)
REM options -cpp -mtune=generic -march=x86-64 -g -O0 -fpre-include=/usr/include/finclude/math-vector-fortran.h
REM seed -839833633 1458950087 1249653677 -97695174 -156106173 1831407873 1920517201 -1114886884 -219142444 278577741 1755319607 -1832284354 464485374 -1114770886 -2132034201 -127683624 2068544667 2111445651 -668770832 1794784446 1485453863 -2027539560 273364266 -902736210 1557041281 -2082196916 -2039645136 -1704560100 1088151669 -1457312143 1410407935 -1914824375 77651435
REM
CELL 1.54180   50.00000   50.00000   50.00000   90.00000   90.00000   90.00000
LATT -1
SFAC C  
C      1  0.4999040000000  0.4526870000000  0.5227600000000 1.0
C      1  0.4948050000000  0.4400520000000  0.4622500000000 1.0
C      1  0.5072650000000  0.5572870000000  0.5283550000000 1.0
C      1  0.5009810000000  0.5577170000000  0.4606620000000 1.0
C      1  0.5304420000000  0.4817660000000  0.4410650000000 1.0
C      1  0.4751030000000  0.4823000000000  0.5584960000000 1.0
C      1  0.5311590000000  0.5153370000000  0.4473100000000 1.0
C      1  0.4745310000000  0.5154190000000  0.5486050000000 1.0
C      1  0.5132860000000  0.4299460000000  0.4803280000000 1.0
C      1  0.4772910000000  0.4349240000000  0.5171200000000 1.0
C      1  0.5202760000000  0.5657710000000  0.4785210000000 1.0
C      1  0.4816150000000  0.5669890000000  0.5177820000000 1.0
C      1  0.5247220000000  0.5477890000000  0.5050800000000 1.0
C      1  0.4677820000000  0.5485400000000  0.4973520000000 1.0
C      1  0.5269920000000  0.4498780000000  0.5036150000000 1.0
C      1  0.4610530000000  0.4512410000000  0.4957530000000 1.0
C      1  0.5671740000000  0.5299610000000  0.4878830000000 1.0
C      1  0.4299970000000  0.5257540000000  0.5141650000000 1.0
C      1  0.5667460000000  0.4719550000000  0.4829630000000 1.0
C      1  0.4345010000000  0.4705620000000  0.5184500000000 1.0
C      1  0.5330980000000  0.4833290000000  0.5024260000000 1.0
C      1  0.4666310000000  0.4847240000000  0.4983180000000 1.0
C      1  0.5277810000000  0.5149380000000  0.5127700000000 1.0
C      1  0.4702510000000  0.5163250000000  0.4849010000000 1.0
C      1  0.4508820000000  0.4845670000000  0.4684660000000 1.0
C      1  0.5493650000000  0.4874720000000  0.5320080000000 1.0
C      1  0.4456900000000  0.5171890000000  0.4613980000000 1.0
C      1  0.5498800000000  0.5206870000000  0.5372240000000 1.0
C      1  0.4667510000000  0.4651200000000  0.4486760000000 1.0
C      1  0.5367180000000  0.4648810000000  0.5491670000000 1.0
C      1  0.4694190000000  0.5357690000000  0.4499930000000 1.0
C      1  0.5354130000000  0.5358330000000  0.5588890000000 1.0
C      1  0.4903850000000  0.4850190000000  0.5282400000000 1.0
C      1  0.5097560000000  0.4884170000000  0.4675390000000 1.0
C      1  0.5025230000000  0.5143400000000  0.5293340000000 1.0
C      1  0.4962680000000  0.5130340000000  0.4686810000000 1.0
C      1  0.5027170000000  0.5309400000000  0.4424140000000 1.0
C      1  0.5017210000000  0.5353870000000  0.5542730000000 1.0
C      1  0.5006900000000  0.4662800000000  0.4466340000000 1.0
C      1  0.5056330000000  0.4679430000000  0.5525030000000 1.0
C      1  0.5548770000000  0.5544880000000  0.4946580000000 1.0
C      1  0.4385060000000  0.5518080000000  0.5079250000000 1.0
C      1  0.5560230000000  0.4455820000000  0.4866010000000 1.0
C      1  0.4378250000000  0.4407570000000  0.5182650000000 1.0
C      1  0.4722900000000  0.4109440000000  0.5255650000000 1.0
C      1  0.5216750000000  0.4037580000000  0.4799810000000 1.0
C      1  0.4727110000000  0.5912300000000  0.5220390000000 1.0
C      1  0.5340820000000  0.5894260000000  0.4766850000000 1.0
C      1  0.5417510000000  0.4411620000000  0.5329850000000 1.0
C      1  0.4662970000000  0.4411470000000  0.4686580000000 1.0
C      1  0.5274190000000  0.5654930000000  0.5542860000000 1.0
C      1  0.4729440000000  0.5589220000000  0.4690290000000 1.0
C      1  0.4294950000000  0.5100580000000  0.4904330000000 1.0
C      1  0.5704520000000  0.5139480000000  0.5110030000000 1.0
C      1  0.4273730000000  0.4810580000000  0.4929130000000 1.0
C      1  0.5727190000000  0.4847900000000  0.5073900000000 1.0
C      1  0.4509280000000  0.4864960000000  0.5349270000000 1.0
C      1  0.5548610000000  0.4877710000000  0.4632400000000 1.0
C      1  0.4423310000000  0.5150200000000  0.5376580000000 1.0
C      1  0.5582400000000  0.5180710000000  0.4633920000000 1.0
END
