TITL C-1154802-8274-687 22.6878165817418 125000 -324.011031255836 0 0 60 (C1) n - 1
REM
REM in /home/nfs/bkarasulu/CARBON/AIRSS/Generating-Clusters/AIREBO/Higher-Symm/Only-C60
REM
REM
REM
REM
REM
REM ./C.cell (28575a23ae977d3b5fae324c64b13b57)
REM
REM compiler GCC version 9.2.1 20190827 (Red Hat 9.2.1-1)
REM options -cpp -mtune=generic -march=x86-64 -g -O0 -fpre-include=/usr/include/finclude/math-vector-fortran.h
REM seed -562491698 1543004465 -1577049835 618465469 200322462 -735417879 568399161 1632088909 -770451719 1263685569 193779295 1548703613 592768137 -1169173944 -1218732919 1111253593 -1038159582 -109727691 -389350767 -2109990934 1113697791 112343584 -2127610461 163876754 870492411 362609632 1575479733 425445429 837016204 1098390576 807187257 -1326669353 1121250022
REM
CELL 1.54180   50.00000   50.00000   50.00000   90.00000   90.00000   90.00000
LATT -1
SFAC C  
C      1  0.5409200000000  0.4847560000000  0.4568090000000 1.0
C      1  0.5055760000000  0.4871240000000  0.4385200000000 1.0
C      1  0.4506150000000  0.4711710000000  0.4670290000000 1.0
C      1  0.4430250000000  0.4841600000000  0.5209070000000 1.0
C      1  0.4762010000000  0.4816520000000  0.5592080000000 1.0
C      1  0.5347050000000  0.4782660000000  0.5545580000000 1.0
C      1  0.5563070000000  0.4733010000000  0.5068740000000 1.0
C      1  0.5485170000000  0.4613080000000  0.4790840000000 1.0
C      1  0.5280860000000  0.4634020000000  0.4345840000000 1.0
C      1  0.4770130000000  0.4696780000000  0.4446690000000 1.0
C      1  0.4347980000000  0.4667320000000  0.4928830000000 1.0
C      1  0.4544080000000  0.4615060000000  0.5433180000000 1.0
C      1  0.5053380000000  0.4663500000000  0.5677690000000 1.0
C      1  0.5449730000000  0.4584850000000  0.5330320000000 1.0
C      1  0.5333260000000  0.5034170000000  0.4293600000000 1.0
C      1  0.4530170000000  0.4930250000000  0.4411230000000 1.0
C      1  0.4188480000000  0.4974390000000  0.5015120000000 1.0
C      1  0.4449840000000  0.4955330000000  0.5528940000000 1.0
C      1  0.4974930000000  0.4991080000000  0.5791580000000 1.0
C      1  0.5536000000000  0.5046230000000  0.5588690000000 1.0
C      1  0.5768310000000  0.4986970000000  0.4995560000000 1.0
C      1  0.4598900000000  0.5444480000000  0.5476870000000 1.0
C      1  0.4989680000000  0.5467310000000  0.5551960000000 1.0
C      1  0.5464000000000  0.5484790000000  0.5337810000000 1.0
C      1  0.5606400000000  0.5466930000000  0.4880310000000 1.0
C      1  0.5298960000000  0.5497520000000  0.4443360000000 1.0
C      1  0.4611480000000  0.5431630000000  0.4482570000000 1.0
C      1  0.4369190000000  0.5451520000000  0.5010730000000 1.0
C      1  0.5159240000000  0.5630080000000  0.5318200000000 1.0
C      1  0.5346090000000  0.5594500000000  0.5046950000000 1.0
C      1  0.5386070000000  0.5659400000000  0.4720010000000 1.0
C      1  0.5071620000000  0.5547050000000  0.4681260000000 1.0
C      1  0.4753370000000  0.5563750000000  0.4668680000000 1.0
C      1  0.4664680000000  0.5540950000000  0.4984160000000 1.0
C      1  0.4829980000000  0.5557730000000  0.5265720000000 1.0
C      1  0.4519050000000  0.5192280000000  0.4393410000000 1.0
C      1  0.4204530000000  0.5238550000000  0.4973070000000 1.0
C      1  0.4459060000000  0.5249020000000  0.5540070000000 1.0
C      1  0.5076630000000  0.5220920000000  0.5636190000000 1.0
C      1  0.5530470000000  0.5216880000000  0.5367170000000 1.0
C      1  0.5628160000000  0.5192770000000  0.4866580000000 1.0
C      1  0.5352490000000  0.5301040000000  0.4276410000000 1.0
C      1  0.4685030000000  0.4992130000000  0.5094360000000 1.0
C      1  0.4894040000000  0.4948900000000  0.5333710000000 1.0
C      1  0.5179340000000  0.5032480000000  0.5403300000000 1.0
C      1  0.5399530000000  0.5021700000000  0.5144350000000 1.0
C      1  0.5343700000000  0.5050030000000  0.4810070000000 1.0
C      1  0.5042520000000  0.4966450000000  0.4674880000000 1.0
C      1  0.4716480000000  0.4932880000000  0.4764420000000 1.0
C      1  0.5027010000000  0.4420960000000  0.5450290000000 1.0
C      1  0.5276110000000  0.4368190000000  0.5339080000000 1.0
C      1  0.5357390000000  0.4376750000000  0.4719060000000 1.0
C      1  0.5187440000000  0.4399980000000  0.4485890000000 1.0
C      1  0.4901110000000  0.4401360000000  0.4457860000000 1.0
C      1  0.4449440000000  0.4408480000000  0.5107210000000 1.0
C      1  0.4746770000000  0.4425120000000  0.5271290000000 1.0
C      1  0.4970470000000  0.4515860000000  0.5066020000000 1.0
C      1  0.4985720000000  0.4754010000000  0.4997280000000 1.0
C      1  0.4969240000000  0.5393370000000  0.4950030000000 1.0
C      1  0.4990650000000  0.5094200000000  0.4985670000000 1.0
END
