TITL C-1154816-9297-55 -0.00158561463438743 125000 -346.443350380785 0 0 60 (C1) n - 1
REM
REM in /home/nfs/bkarasulu/CARBON/AIRSS/Generating-Clusters/AIREBO/Higher-Symm/Only-C60
REM
REM
REM
REM
REM
REM ./C.cell (28575a23ae977d3b5fae324c64b13b57)
REM
REM compiler GCC version 9.2.1 20190827 (Red Hat 9.2.1-1)
REM options -cpp -mtune=generic -march=x86-64 -g -O0 -fpre-include=/usr/include/finclude/math-vector-fortran.h
REM seed -1113510506 -184400318 -275021382 1118046802 1898329969 1998186400 -1516574056 253500055 2010485083 -1300106094 1675476028 1793973487 469215694 572594471 -146952936 -1776272038 -651138729 -983562541 1147441053 -118745105 -1705651594 -2141567190 336294818 629798193 -1409414861 -322947099 -865674309 -709388516 -1085616967 1751914393 1614870313 -958172429 -961365597
REM
CELL 1.54180   50.00000   50.00000   50.00000   90.00000   90.00000   90.00000
LATT -1
SFAC C  
C      1  0.4676930000000  0.5319570000000  0.4797920000000 1.0
C      1  0.4712650000000  0.5240090000000  0.4481690000000 1.0
C      1  0.4997800000000  0.5314420000000  0.4364300000000 1.0
C      1  0.5319230000000  0.5348590000000  0.4473210000000 1.0
C      1  0.5591020000000  0.5267530000000  0.4626990000000 1.0
C      1  0.5589570000000  0.5349770000000  0.4917690000000 1.0
C      1  0.5363240000000  0.5325550000000  0.5170280000000 1.0
C      1  0.5342170000000  0.5236490000000  0.5470090000000 1.0
C      1  0.5061100000000  0.5288450000000  0.5608410000000 1.0
C      1  0.4738410000000  0.5307430000000  0.5498790000000 1.0
C      1  0.4471010000000  0.5200670000000  0.5352710000000 1.0
C      1  0.4447040000000  0.5285770000000  0.5047070000000 1.0
C      1  0.4476990000000  0.4757930000000  0.5057390000000 1.0
C      1  0.4642730000000  0.4659350000000  0.4785480000000 1.0
C      1  0.4754690000000  0.4770660000000  0.4489310000000 1.0
C      1  0.5010940000000  0.4803200000000  0.4388310000000 1.0
C      1  0.5291890000000  0.4699340000000  0.4526580000000 1.0
C      1  0.5552540000000  0.4813390000000  0.4701440000000 1.0
C      1  0.5548430000000  0.4838330000000  0.4977070000000 1.0
C      1  0.5344640000000  0.4692190000000  0.5163440000000 1.0
C      1  0.5313660000000  0.4773160000000  0.5463420000000 1.0
C      1  0.5080390000000  0.4775910000000  0.5611360000000 1.0
C      1  0.4785570000000  0.4647730000000  0.5515160000000 1.0
C      1  0.4521290000000  0.4734780000000  0.5331620000000 1.0
C      1  0.5270680000000  0.4406710000000  0.4592020000000 1.0
C      1  0.5374370000000  0.4335620000000  0.4841300000000 1.0
C      1  0.5330430000000  0.4403680000000  0.5106780000000 1.0
C      1  0.5241580000000  0.4239970000000  0.5310980000000 1.0
C      1  0.5051510000000  0.4236990000000  0.5504190000000 1.0
C      1  0.4798920000000  0.4349960000000  0.5532570000000 1.0
C      1  0.4575960000000  0.4203550000000  0.5451050000000 1.0
C      1  0.4493380000000  0.4123740000000  0.5204430000000 1.0
C      1  0.4484040000000  0.4222590000000  0.4953020000000 1.0
C      1  0.4621480000000  0.4361180000000  0.4757320000000 1.0
C      1  0.4792880000000  0.4248580000000  0.4569190000000 1.0
C      1  0.5054850000000  0.4258830000000  0.4495350000000 1.0
C      1  0.5320100000000  0.5675400000000  0.4492030000000 1.0
C      1  0.5452290000000  0.5782180000000  0.4713610000000 1.0
C      1  0.5481300000000  0.5639980000000  0.4953710000000 1.0
C      1  0.5323390000000  0.5653350000000  0.5196380000000 1.0
C      1  0.5197760000000  0.5743960000000  0.5423790000000 1.0
C      1  0.4997900000000  0.5602430000000  0.5558340000000 1.0
C      1  0.4711510000000  0.5629700000000  0.5488980000000 1.0
C      1  0.4554610000000  0.5727130000000  0.5280590000000 1.0
C      1  0.4521660000000  0.5600980000000  0.5031850000000 1.0
C      1  0.4682940000000  0.5644180000000  0.4786760000000 1.0
C      1  0.4820670000000  0.5746430000000  0.4569640000000 1.0
C      1  0.5035150000000  0.5625120000000  0.4435210000000 1.0
C      1  0.5657020000000  0.5071950000000  0.5073570000000 1.0
C      1  0.5237860000000  0.5015070000000  0.5154010000000 1.0
C      1  0.5466690000000  0.5001510000000  0.5527000000000 1.0
C      1  0.5070380000000  0.5004840000000  0.5773830000000 1.0
C      1  0.4751850000000  0.4985410000000  0.5536590000000 1.0
C      1  0.4367830000000  0.4958910000000  0.5436670000000 1.0
C      1  0.4312780000000  0.4983300000000  0.5010410000000 1.0
C      1  0.4644640000000  0.4999450000000  0.4792140000000 1.0
C      1  0.4604220000000  0.5000180000000  0.4395980000000 1.0
C      1  0.5012100000000  0.5023110000000  0.4213360000000 1.0
C      1  0.5341630000000  0.5021690000000  0.4434050000000 1.0
C      1  0.5709730000000  0.5022070000000  0.4583600000000 1.0
END
