TITL C-1154816-9297-559 -0.00293480401911177 125000 -346.10867092644 0 0 60 (C1) n - 1
REM
REM in /home/nfs/bkarasulu/CARBON/AIRSS/Generating-Clusters/AIREBO/Higher-Symm/Only-C60
REM
REM
REM
REM
REM
REM ./C.cell (28575a23ae977d3b5fae324c64b13b57)
REM
REM compiler GCC version 9.2.1 20190827 (Red Hat 9.2.1-1)
REM options -cpp -mtune=generic -march=x86-64 -g -O0 -fpre-include=/usr/include/finclude/math-vector-fortran.h
REM seed 1529967540 255911916 1802812647 -1401958668 -1945393074 -1256046290 -419353738 1910815286 -1302291862 827964213 -1929262362 327336144 -589193627 1447533932 -688319815 -358305353 275128370 1284626846 -346366741 -794330827 1551808448 1727462398 -44292233 -482376032 1663975831 -309716361 -217636036 1361306089 1235523168 -701225022 -1245900667 969310102 1086291949
REM
CELL 1.54180   50.00000   50.00000   50.00000   90.00000   90.00000   90.00000
LATT -1
SFAC C  
C      1  0.5150600000000  0.5016940000000  0.4290830000000 1.0
C      1  0.5077780000000  0.5661050000000  0.4679460000000 1.0
C      1  0.5395500000000  0.5691830000000  0.5378600000000 1.0
C      1  0.5295160000000  0.4974350000000  0.5757870000000 1.0
C      1  0.5219920000000  0.4345020000000  0.5344410000000 1.0
C      1  0.5304680000000  0.4350820000000  0.4589280000000 1.0
C      1  0.4687130000000  0.5021240000000  0.4256930000000 1.0
C      1  0.4907540000000  0.4392430000000  0.4566390000000 1.0
C      1  0.4839450000000  0.4441500000000  0.5276120000000 1.0
C      1  0.4902950000000  0.5045010000000  0.5734650000000 1.0
C      1  0.4949880000000  0.5636860000000  0.5275320000000 1.0
C      1  0.4632250000000  0.5631410000000  0.4554950000000 1.0
C      1  0.5241920000000  0.5607360000000  0.4904960000000 1.0
C      1  0.5353750000000  0.5457150000000  0.5506910000000 1.0
C      1  0.5313940000000  0.4756800000000  0.5525930000000 1.0
C      1  0.5202160000000  0.4434210000000  0.5076910000000 1.0
C      1  0.5329900000000  0.4622680000000  0.4550140000000 1.0
C      1  0.5200010000000  0.5188220000000  0.4529840000000 1.0
C      1  0.4725120000000  0.4416040000000  0.4796980000000 1.0
C      1  0.4694480000000  0.4719040000000  0.5408700000000 1.0
C      1  0.4796310000000  0.5225790000000  0.5524310000000 1.0
C      1  0.4772290000000  0.5543660000000  0.5030000000000 1.0
C      1  0.4662700000000  0.5356290000000  0.4490870000000 1.0
C      1  0.4729380000000  0.4822810000000  0.4441090000000 1.0
C      1  0.5047180000000  0.4567520000000  0.5514910000000 1.0
C      1  0.5094050000000  0.4270700000000  0.4824620000000 1.0
C      1  0.5166230000000  0.4734500000000  0.4342980000000 1.0
C      1  0.5092310000000  0.5461480000000  0.4480570000000 1.0
C      1  0.5204250000000  0.5721110000000  0.5168210000000 1.0
C      1  0.5154340000000  0.5269730000000  0.5689430000000 1.0
C      1  0.4955080000000  0.5475740000000  0.5504420000000 1.0
C      1  0.4810700000000  0.5702800000000  0.4764870000000 1.0
C      1  0.4907470000000  0.5264730000000  0.4273210000000 1.0
C      1  0.4908790000000  0.4611690000000  0.4387540000000 1.0
C      1  0.4832970000000  0.4289420000000  0.5041920000000 1.0
C      1  0.4848230000000  0.4773630000000  0.5687890000000 1.0
C      1  0.4787520000000  0.4945030000000  0.4725090000000 1.0
C      1  0.4623320000000  0.5197610000000  0.4715890000000 1.0
C      1  0.4976370000000  0.5280040000000  0.5098970000000 1.0
C      1  0.4767730000000  0.5082930000000  0.5257310000000 1.0
C      1  0.4801140000000  0.4795160000000  0.5094960000000 1.0
C      1  0.4625590000000  0.4688760000000  0.4852240000000 1.0
C      1  0.5096720000000  0.5025240000000  0.4781300000000 1.0
C      1  0.5306560000000  0.4772130000000  0.4807770000000 1.0
C      1  0.5102220000000  0.4738910000000  0.5060430000000 1.0
C      1  0.5210880000000  0.4916050000000  0.5276400000000 1.0
C      1  0.5244550000000  0.5219470000000  0.5300700000000 1.0
C      1  0.5258930000000  0.5295060000000  0.4909920000000 1.0
C      1  0.5582090000000  0.5242810000000  0.5266910000000 1.0
C      1  0.5716150000000  0.5021900000000  0.5387080000000 1.0
C      1  0.5578930000000  0.4774330000000  0.5330630000000 1.0
C      1  0.5543990000000  0.4736910000000  0.5048820000000 1.0
C      1  0.5643100000000  0.4972170000000  0.4883440000000 1.0
C      1  0.5536700000000  0.5214220000000  0.4982310000000 1.0
C      1  0.4254440000000  0.4760220000000  0.5124910000000 1.0
C      1  0.4467090000000  0.4924310000000  0.5272840000000 1.0
C      1  0.4409320000000  0.5226210000000  0.5158490000000 1.0
C      1  0.4565550000000  0.5322500000000  0.4959730000000 1.0
C      1  0.4165890000000  0.4649190000000  0.4659220000000 1.0
C      1  0.4328850000000  0.4697290000000  0.4872630000000 1.0
END
