TITL C-1154827-9204-404 -0.00111465195418914 125000 -303.117423847753 0 0 60 (C1) n - 1
REM
REM in /home/nfs/bkarasulu/CARBON/AIRSS/Generating-Clusters/AIREBO/Higher-Symm/Only-C60
REM
REM
REM
REM
REM
REM ./C.cell (28575a23ae977d3b5fae324c64b13b57)
REM
REM compiler GCC version 9.2.1 20190827 (Red Hat 9.2.1-1)
REM options -cpp -mtune=generic -march=x86-64 -g -O0 -fpre-include=/usr/include/finclude/math-vector-fortran.h
REM seed -1543646045 140742783 -637360102 -859698626 866904426 1320994331 939069813 895548921 -16325998 -1193669531 -2067250056 1161083844 -1826295886 642087717 -102355422 -683962460 -680329013 -272464258 329103778 1352526730 -542569817 2031683441 -433362884 721617990 1411010609 582862761 2131877758 1574907173 -950388032 -1872928211 -279168891 616964120 1677583999
REM
CELL 1.54180   50.00000   50.00000   50.00000   90.00000   90.00000   90.00000
LATT -1
SFAC C  
C      1  0.4916780000000  0.4315970000000  0.4538950000000 1.0
C      1  0.4970550000000  0.5586490000000  0.5467360000000 1.0
C      1  0.5273760000000  0.5474700000000  0.5806250000000 1.0
C      1  0.5146830000000  0.4472230000000  0.4149370000000 1.0
C      1  0.5213870000000  0.5649060000000  0.5592720000000 1.0
C      1  0.5174070000000  0.4351890000000  0.4403240000000 1.0
C      1  0.5017830000000  0.4714810000000  0.4151090000000 1.0
C      1  0.5228440000000  0.5208390000000  0.5755860000000 1.0
C      1  0.4818280000000  0.4974270000000  0.5819590000000 1.0
C      1  0.5031670000000  0.5167560000000  0.4292290000000 1.0
C      1  0.5556230000000  0.5442840000000  0.4682710000000 1.0
C      1  0.5531400000000  0.4409080000000  0.5389430000000 1.0
C      1  0.5019210000000  0.5033000000000  0.4843360000000 1.0
C      1  0.5018140000000  0.4899790000000  0.5159840000000 1.0
C      1  0.5060870000000  0.4525120000000  0.5529770000000 1.0
C      1  0.5126710000000  0.5626760000000  0.4484250000000 1.0
C      1  0.4393430000000  0.4912200000000  0.4490660000000 1.0
C      1  0.4391100000000  0.5073800000000  0.5480730000000 1.0
C      1  0.5416410000000  0.4424790000000  0.5146650000000 1.0
C      1  0.5432550000000  0.5422190000000  0.4924290000000 1.0
C      1  0.5286590000000  0.4989260000000  0.4637900000000 1.0
C      1  0.5188580000000  0.4816690000000  0.5442170000000 1.0
C      1  0.5133570000000  0.5346720000000  0.4909720000000 1.0
C      1  0.5126280000000  0.4588020000000  0.5076500000000 1.0
C      1  0.4875900000000  0.5155610000000  0.5333430000000 1.0
C      1  0.4859180000000  0.4800030000000  0.4653910000000 1.0
C      1  0.4667310000000  0.4517130000000  0.5248210000000 1.0
C      1  0.4710940000000  0.5449900000000  0.4722240000000 1.0
C      1  0.5673290000000  0.4445430000000  0.5670310000000 1.0
C      1  0.5698570000000  0.5472300000000  0.4388990000000 1.0
C      1  0.4658790000000  0.4470320000000  0.4555060000000 1.0
C      1  0.4691030000000  0.5492600000000  0.5436410000000 1.0
C      1  0.4446480000000  0.4551610000000  0.5048890000000 1.0
C      1  0.4487260000000  0.5438740000000  0.4926080000000 1.0
C      1  0.4997390000000  0.5099030000000  0.5646030000000 1.0
C      1  0.4983850000000  0.4905150000000  0.4355400000000 1.0
C      1  0.4979520000000  0.5530250000000  0.4702140000000 1.0
C      1  0.4930680000000  0.4423980000000  0.5294000000000 1.0
C      1  0.5708660000000  0.5776460000000  0.5284650000000 1.0
C      1  0.5429590000000  0.4763150000000  0.4614350000000 1.0
C      1  0.4985180000000  0.4522190000000  0.4779800000000 1.0
C      1  0.5026940000000  0.5424330000000  0.5189960000000 1.0
C      1  0.4441550000000  0.4991840000000  0.5156060000000 1.0
C      1  0.4437930000000  0.5000340000000  0.4816040000000 1.0
C      1  0.5371580000000  0.4589070000000  0.5607750000000 1.0
C      1  0.5393440000000  0.5569280000000  0.4445100000000 1.0
C      1  0.4616570000000  0.4760540000000  0.4418580000000 1.0
C      1  0.4623660000000  0.5204410000000  0.5556660000000 1.0
C      1  0.4576110000000  0.4689670000000  0.4807410000000 1.0
C      1  0.4608790000000  0.5287750000000  0.5168830000000 1.0
C      1  0.5426710000000  0.5702590000000  0.5421270000000 1.0
C      1  0.5380490000000  0.4451990000000  0.4566260000000 1.0
C      1  0.5422480000000  0.4586660000000  0.4876030000000 1.0
C      1  0.5520810000000  0.5548470000000  0.5147170000000 1.0
C      1  0.4259290000000  0.5289670000000  0.4819730000000 1.0
C      1  0.4233840000000  0.4722580000000  0.5152850000000 1.0
C      1  0.4703540000000  0.4808890000000  0.5211860000000 1.0
C      1  0.4717750000000  0.5156630000000  0.4765650000000 1.0
C      1  0.4963940000000  0.5744990000000  0.5105230000000 1.0
C      1  0.5017770000000  0.4230780000000  0.4932980000000 1.0
END
