TITL C-1154816-9297-337 -0.0225945395914992 125000 -333.256069693665 0 0 60 (C1) n - 1
REM
REM in /home/nfs/bkarasulu/CARBON/AIRSS/Generating-Clusters/AIREBO/Higher-Symm/Only-C60
REM
REM
REM
REM
REM
REM ./C.cell (28575a23ae977d3b5fae324c64b13b57)
REM
REM compiler GCC version 9.2.1 20190827 (Red Hat 9.2.1-1)
REM options -cpp -mtune=generic -march=x86-64 -g -O0 -fpre-include=/usr/include/finclude/math-vector-fortran.h
REM seed 1295584164 -1148806715 1962773638 -1159812893 396987832 429967720 -468970590 -162129103 -1792847623 1390086900 1267410676 -1535806966 699389348 1101238515 -131478541 408985582 -889081613 -329202255 1657611472 -310798585 -2008232736 -672586732 -19870127 -1599385661 -1843274426 1718240666 -1838425023 -507559220 227557757 -1853987194 1910255682 1988955925 2087457736
REM
CELL 1.54180   50.00000   50.00000   50.00000   90.00000   90.00000   90.00000
LATT -1
SFAC C  
C      1  0.4577450000000  0.4779710000000  0.4866600000000 1.0
C      1  0.4469130000000  0.4968320000000  0.5087940000000 1.0
C      1  0.4518330000000  0.5265570000000  0.4990820000000 1.0
C      1  0.4765560000000  0.5429050000000  0.5130990000000 1.0
C      1  0.4966850000000  0.5527300000000  0.4916260000000 1.0
C      1  0.5263560000000  0.5457590000000  0.5014660000000 1.0
C      1  0.5415960000000  0.5221050000000  0.4859730000000 1.0
C      1  0.5532510000000  0.5033780000000  0.5071800000000 1.0
C      1  0.5485660000000  0.4737070000000  0.4979390000000 1.0
C      1  0.5248780000000  0.4576800000000  0.5138870000000 1.0
C      1  0.5050530000000  0.4469480000000  0.4920330000000 1.0
C      1  0.4747210000000  0.4543890000000  0.5004550000000 1.0
C      1  0.5386430000000  0.4742880000000  0.4659470000000 1.0
C      1  0.5068870000000  0.4584170000000  0.5427610000000 1.0
C      1  0.5073640000000  0.4643460000000  0.4629110000000 1.0
C      1  0.4754250000000  0.4618490000000  0.5328670000000 1.0
C      1  0.4554690000000  0.4944270000000  0.4575780000000 1.0
C      1  0.4643740000000  0.4924570000000  0.5375640000000 1.0
C      1  0.4610220000000  0.5260450000000  0.4667920000000 1.0
C      1  0.4929460000000  0.5421620000000  0.5427070000000 1.0
C      1  0.4922160000000  0.5352190000000  0.4628970000000 1.0
C      1  0.5249250000000  0.5372330000000  0.5343910000000 1.0
C      1  0.5438240000000  0.5059960000000  0.4567370000000 1.0
C      1  0.5388000000000  0.5067460000000  0.5402750000000 1.0
C      1  0.4811370000000  0.4259500000000  0.5162580000000 1.0
C      1  0.4581640000000  0.4543850000000  0.4640810000000 1.0
C      1  0.4289340000000  0.4767860000000  0.5280820000000 1.0
C      1  0.4238710000000  0.5237720000000  0.4812330000000 1.0
C      1  0.4535010000000  0.5415120000000  0.5361150000000 1.0
C      1  0.4783810000000  0.5716130000000  0.4716410000000 1.0
C      1  0.5219210000000  0.5737990000000  0.5185800000000 1.0
C      1  0.5409060000000  0.5463700000000  0.4642380000000 1.0
C      1  0.5715000000000  0.5230140000000  0.5241140000000 1.0
C      1  0.5761280000000  0.4767290000000  0.4794490000000 1.0
C      1  0.5465370000000  0.4563260000000  0.5384970000000 1.0
C      1  0.5227480000000  0.4285190000000  0.4714790000000 1.0
C      1  0.4849100000000  0.4805000000000  0.5800210000000 1.0
C      1  0.4735170000000  0.4893380000000  0.4338260000000 1.0
C      1  0.4722560000000  0.5022420000000  0.5661240000000 1.0
C      1  0.4801600000000  0.5142190000000  0.4208080000000 1.0
C      1  0.4874340000000  0.5259400000000  0.5672400000000 1.0
C      1  0.5022580000000  0.5266730000000  0.4344640000000 1.0
C      1  0.5121410000000  0.5204530000000  0.5807450000000 1.0
C      1  0.5255190000000  0.5108150000000  0.4331960000000 1.0
C      1  0.5256250000000  0.4987270000000  0.5681930000000 1.0
C      1  0.5186620000000  0.4858450000000  0.4205480000000 1.0
C      1  0.5104080000000  0.4749420000000  0.5678520000000 1.0
C      1  0.4968370000000  0.4734640000000  0.4346360000000 1.0
C      1  0.4448030000000  0.5186500000000  0.5422440000000 1.0
C      1  0.4598690000000  0.5583350000000  0.4596520000000 1.0
C      1  0.5056270000000  0.5720380000000  0.5380690000000 1.0
C      1  0.5180920000000  0.5549850000000  0.4577370000000 1.0
C      1  0.5583250000000  0.5413180000000  0.5364050000000 1.0
C      1  0.5735720000000  0.4926160000000  0.4595530000000 1.0
C      1  0.5536950000000  0.4778590000000  0.5495520000000 1.0
C      1  0.5402770000000  0.4422150000000  0.4585760000000 1.0
C      1  0.4964150000000  0.4280200000000  0.5364820000000 1.0
C      1  0.4808270000000  0.4452000000000  0.4577740000000 1.0
C      1  0.4431630000000  0.4587360000000  0.5396950000000 1.0
C      1  0.4258350000000  0.5079500000000  0.4612190000000 1.0
END
