TITL C-1154801-8518-212 -0.000898134786586866 125000 -313.97427759406 0 0 60 (C1) n - 1
REM
REM in /home/nfs/bkarasulu/CARBON/AIRSS/Generating-Clusters/AIREBO/Higher-Symm/Only-C60
REM
REM
REM
REM
REM
REM ./C.cell (28575a23ae977d3b5fae324c64b13b57)
REM
REM compiler GCC version 9.2.1 20190827 (Red Hat 9.2.1-1)
REM options -cpp -mtune=generic -march=x86-64 -g -O0 -fpre-include=/usr/include/finclude/math-vector-fortran.h
REM seed 1814741729 -259922706 -1277314175 402578527 -1709013899 268083338 1602549801 734399375 -1418576003 1939471957 -1565779854 1880540559 -636323470 924370437 951246464 1327553099 -1591719169 1072893 -166356109 1783047465 -1033917035 -787576351 567766546 1687301435 -1297173070 -683888493 -1909393871 -1970607582 57786073 814155043 1885815462 -1419125378 1777766125
REM
CELL 1.54180   50.00000   50.00000   50.00000   90.00000   90.00000   90.00000
LATT -1
SFAC C  
C      1  0.5284880000000  0.5070230000000  0.5479570000000 1.0
C      1  0.5470770000000  0.5228330000000  0.5051200000000 1.0
C      1  0.5020930000000  0.5429490000000  0.5197700000000 1.0
C      1  0.5194200000000  0.4927950000000  0.4518070000000 1.0
C      1  0.4777860000000  0.4944860000000  0.5423380000000 1.0
C      1  0.4658060000000  0.5095420000000  0.4450420000000 1.0
C      1  0.5477650000000  0.4739260000000  0.4952670000000 1.0
C      1  0.4556280000000  0.4663900000000  0.5065460000000 1.0
C      1  0.4592070000000  0.5196340000000  0.5008770000000 1.0
C      1  0.4976140000000  0.4496110000000  0.4725520000000 1.0
C      1  0.5025680000000  0.4513980000000  0.5248090000000 1.0
C      1  0.4915700000000  0.5422930000000  0.4681240000000 1.0
C      1  0.5304240000000  0.5498920000000  0.5114080000000 1.0
C      1  0.5441840000000  0.4981070000000  0.5191440000000 1.0
C      1  0.5012830000000  0.5190470000000  0.5441370000000 1.0
C      1  0.5189810000000  0.4559760000000  0.4956960000000 1.0
C      1  0.4857960000000  0.5339560000000  0.4956360000000 1.0
C      1  0.4811760000000  0.4460930000000  0.5021540000000 1.0
C      1  0.5487310000000  0.4908190000000  0.4689280000000 1.0
C      1  0.4474350000000  0.5139960000000  0.4733030000000 1.0
C      1  0.4644210000000  0.4930990000000  0.5150730000000 1.0
C      1  0.5090090000000  0.4663810000000  0.4461100000000 1.0
C      1  0.4946690000000  0.5159480000000  0.4484520000000 1.0
C      1  0.4881920000000  0.4675780000000  0.5500550000000 1.0
C      1  0.4588360000000  0.4785640000000  0.4328860000000 1.0
C      1  0.4368490000000  0.4644670000000  0.4784150000000 1.0
C      1  0.4739290000000  0.4304740000000  0.4545400000000 1.0
C      1  0.4615110000000  0.5316660000000  0.5724790000000 1.0
C      1  0.5412080000000  0.5180790000000  0.4412660000000 1.0
C      1  0.5354260000000  0.4802770000000  0.5680790000000 1.0
C      1  0.4443150000000  0.5391240000000  0.5202550000000 1.0
C      1  0.5601710000000  0.5446380000000  0.4854210000000 1.0
C      1  0.5658150000000  0.4641250000000  0.5223730000000 1.0
C      1  0.4865300000000  0.5673770000000  0.5307260000000 1.0
C      1  0.5171410000000  0.5633860000000  0.4627330000000 1.0
C      1  0.5246570000000  0.4324050000000  0.5429770000000 1.0
C      1  0.4578610000000  0.4371540000000  0.4798480000000 1.0
C      1  0.4379980000000  0.4850300000000  0.4592420000000 1.0
C      1  0.4780170000000  0.4584940000000  0.4357190000000 1.0
C      1  0.4611060000000  0.5684620000000  0.5213290000000 1.0
C      1  0.5405860000000  0.4415070000000  0.5174040000000 1.0
C      1  0.5356480000000  0.5681210000000  0.4831850000000 1.0
C      1  0.4395320000000  0.5289350000000  0.5481210000000 1.0
C      1  0.5603230000000  0.4836050000000  0.5451640000000 1.0
C      1  0.5633930000000  0.5214200000000  0.4667380000000 1.0
C      1  0.4882310000000  0.5391870000000  0.5668130000000 1.0
C      1  0.5177940000000  0.4590830000000  0.5629090000000 1.0
C      1  0.5187350000000  0.5379210000000  0.4395710000000 1.0
C      1  0.5651430000000  0.4447410000000  0.4935450000000 1.0
C      1  0.4926710000000  0.5600870000000  0.4391630000000 1.0
C      1  0.4318910000000  0.5692430000000  0.5101260000000 1.0
C      1  0.4944640000000  0.4345510000000  0.5597610000000 1.0
C      1  0.4917650000000  0.5663300000000  0.5588280000000 1.0
C      1  0.5562290000000  0.5074930000000  0.5690120000000 1.0
C      1  0.5688990000000  0.4978630000000  0.4424700000000 1.0
C      1  0.4547180000000  0.5036630000000  0.5601080000000 1.0
C      1  0.5581960000000  0.5693640000000  0.5089890000000 1.0
C      1  0.4329540000000  0.4412870000000  0.5030660000000 1.0
C      1  0.5024360000000  0.4345840000000  0.4360110000000 1.0
C      1  0.4356990000000  0.5035190000000  0.4304250000000 1.0
END
