TITL C-215601-6378-25 27161.8136023528 125000 -345.074944135891 0 0 60 (C1) n - 1
REM
REM in /home/bkarasulu/work/CARBON/AIRSS/Generating-Clusters/AIREBO/Higher-Symm/Only-C60
REM
REM
REM
REM
REM
REM ./C.cell (28575a23ae977d3b5fae324c64b13b57)
REM AIRSS Version 0.9.1 bugfix July 2018 build 013d7b7c2542+ Fri, 06 Jul 2018 19:26:36 +0100
REM compiler GCC version 9.2.1 20190827 (Red Hat 9.2.1-1)
REM options -cpp -mtune=generic -march=x86-64 -g -O0 -fpre-include=/usr/include/finclude/math-vector-fortran.h
REM seed 1138903681 -2074057490 -1793050797 -688620010 -57233950 -587147475 904453399 -653435706 -1057665244 1927158268 -1589569203 -848213958 -651847369 19624367 -718167651 1917611601 656058572 -1387690011 -874467869 2125565710 1336999667 -1606467792 1746556891 1789177178 -1013371336 -1518119715 -225005098 1315836814 1313609616 -1009015074 -834330140 158792634 -2105840348
REM
CELL 1.54180   50.00000   50.00000   50.00000   90.00000   90.00000   90.00000
LATT -1
SFAC C  
C      1  0.4500130000000  0.5023030000000  0.4976590000000 1.0
C      1  0.4713550000000  0.5238030000000  0.4949610000000 1.0
C      1  0.5057300000000  0.5636860000000  0.4941180000000 1.0
C      1  0.5394860000000  0.5272170000000  0.4708800000000 1.0
C      1  0.5463960000000  0.4726770000000  0.4931600000000 1.0
C      1  0.5195020000000  0.4458010000000  0.5050550000000 1.0
C      1  0.4758310000000  0.4655570000000  0.4793380000000 1.0
C      1  0.5036910000000  0.4612240000000  0.4603060000000 1.0
C      1  0.4506330000000  0.5020490000000  0.4581890000000 1.0
C      1  0.4782690000000  0.5213630000000  0.4628650000000 1.0
C      1  0.4943610000000  0.5463620000000  0.4565490000000 1.0
C      1  0.5225300000000  0.5478940000000  0.4614980000000 1.0
C      1  0.5531040000000  0.4818530000000  0.4656360000000 1.0
C      1  0.5361250000000  0.4581360000000  0.4574500000000 1.0
C      1  0.4751540000000  0.5743680000000  0.4960560000000 1.0
C      1  0.5403280000000  0.5809700000000  0.5035750000000 1.0
C      1  0.5795210000000  0.5128320000000  0.4922180000000 1.0
C      1  0.5490680000000  0.4340280000000  0.5023080000000 1.0
C      1  0.4863790000000  0.4178150000000  0.4921820000000 1.0
C      1  0.4297480000000  0.4610960000000  0.4841940000000 1.0
C      1  0.4163430000000  0.5225710000000  0.5037170000000 1.0
C      1  0.4226220000000  0.4754890000000  0.5085010000000 1.0
C      1  0.4383630000000  0.5330020000000  0.5203820000000 1.0
C      1  0.4940630000000  0.5969470000000  0.5125880000000 1.0
C      1  0.5532530000000  0.5561980000000  0.5158250000000 1.0
C      1  0.5755100000000  0.4914440000000  0.5125700000000 1.0
C      1  0.5298930000000  0.4079700000000  0.5124120000000 1.0
C      1  0.4636820000000  0.4319960000000  0.5022800000000 1.0
C      1  0.5256740000000  0.5204550000000  0.5563420000000 1.0
C      1  0.5333740000000  0.4948830000000  0.5465350000000 1.0
C      1  0.5164720000000  0.4721890000000  0.5490790000000 1.0
C      1  0.5123270000000  0.4565960000000  0.5710330000000 1.0
C      1  0.4526440000000  0.5124020000000  0.5360980000000 1.0
C      1  0.4795430000000  0.5190480000000  0.5423340000000 1.0
C      1  0.5334470000000  0.5412330000000  0.5390590000000 1.0
C      1  0.4580470000000  0.5513230000000  0.5057250000000 1.0
C      1  0.5215150000000  0.5980140000000  0.5167390000000 1.0
C      1  0.5790690000000  0.5393810000000  0.5033040000000 1.0
C      1  0.5695910000000  0.4587660000000  0.5110980000000 1.0
C      1  0.5041640000000  0.3994180000000  0.5057390000000 1.0
C      1  0.4379430000000  0.4339890000000  0.4901300000000 1.0
C      1  0.4047790000000  0.4973540000000  0.5123020000000 1.0
C      1  0.5036320000000  0.4660750000000  0.5215030000000 1.0
C      1  0.4737410000000  0.4616790000000  0.5120760000000 1.0
C      1  0.4511320000000  0.4815900000000  0.5226300000000 1.0
C      1  0.4937900000000  0.5196800000000  0.5152520000000 1.0
C      1  0.5139830000000  0.5422140000000  0.5127690000000 1.0
C      1  0.5409060000000  0.5275140000000  0.5023650000000 1.0
C      1  0.5416310000000  0.4975900000000  0.5158030000000 1.0
C      1  0.5041180000000  0.4377660000000  0.4821020000000 1.0
C      1  0.4510890000000  0.4745530000000  0.4683770000000 1.0
C      1  0.4281290000000  0.5158120000000  0.4754130000000 1.0
C      1  0.4806300000000  0.5695210000000  0.4636400000000 1.0
C      1  0.5296250000000  0.5742970000000  0.4756050000000 1.0
C      1  0.5623500000000  0.5089340000000  0.4680750000000 1.0
C      1  0.5465260000000  0.4349830000000  0.4690840000000 1.0
C      1  0.4978710000000  0.5216690000000  0.5636280000000 1.0
C      1  0.5088750000000  0.4940910000000  0.5079010000000 1.0
C      1  0.5061890000000  0.4969810000000  0.4774840000000 1.0
C      1  0.4895520000000  0.4911460000000  0.4524540000000 1.0
END
