TITL C-215597-6371-2 0.000894418498624969 125000 -307.790350125729 0 0 60 (C1) n - 1
REM
REM in /home/bkarasulu/work/CARBON/AIRSS/Generating-Clusters/AIREBO/Higher-Symm/Only-C60
REM
REM
REM
REM
REM
REM ./C.cell (28575a23ae977d3b5fae324c64b13b57)
REM AIRSS Version 0.9.1 bugfix July 2018 build 013d7b7c2542+ Fri, 06 Jul 2018 19:26:36 +0100
REM compiler GCC version 9.2.1 20190827 (Red Hat 9.2.1-1)
REM options -cpp -mtune=generic -march=x86-64 -g -O0 -fpre-include=/usr/include/finclude/math-vector-fortran.h
REM seed -44490403 -535547033 -1037782230 2136217559 1910349863 -615081582 1007816395 -1283433370 -1339607794 -1296471109 1114593802 1642497381 98036151 406834558 2069226269 -1535006380 1370286082 1757470994 777683559 1640316247 -116897761 1037151717 167558841 1208382329 1343768946 -1737684258 -1088717831 1222733401 5512316 -1366250436 1867578716 -1381535938 -1237037808
REM
CELL 1.54180   50.00000   50.00000   50.00000   90.00000   90.00000   90.00000
LATT -1
SFAC C  
C      1  0.5779750000000  0.5133250000000  0.5356450000000 1.0
C      1  0.5201090000000  0.5423160000000  0.5629240000000 1.0
C      1  0.5112650000000  0.5724840000000  0.5022660000000 1.0
C      1  0.5651570000000  0.4930560000000  0.4751380000000 1.0
C      1  0.4198540000000  0.4713560000000  0.4423910000000 1.0
C      1  0.4376260000000  0.4964950000000  0.5287540000000 1.0
C      1  0.4684880000000  0.4549560000000  0.4186700000000 1.0
C      1  0.5030270000000  0.5230410000000  0.4243700000000 1.0
C      1  0.4973810000000  0.4753100000000  0.5685780000000 1.0
C      1  0.5201350000000  0.4303040000000  0.4910030000000 1.0
C      1  0.4312140000000  0.5632930000000  0.5484780000000 1.0
C      1  0.4458190000000  0.4120890000000  0.4877930000000 1.0
C      1  0.4362870000000  0.5228520000000  0.5192190000000 1.0
C      1  0.4971430000000  0.5301570000000  0.5774960000000 1.0
C      1  0.4531820000000  0.5529400000000  0.5406250000000 1.0
C      1  0.4357320000000  0.4805480000000  0.4611080000000 1.0
C      1  0.5675400000000  0.5179420000000  0.4749260000000 1.0
C      1  0.6004470000000  0.4934460000000  0.5478860000000 1.0
C      1  0.4800220000000  0.4707530000000  0.4361400000000 1.0
C      1  0.5288090000000  0.5145860000000  0.4290610000000 1.0
C      1  0.5224420000000  0.4753300000000  0.5712300000000 1.0
C      1  0.4622860000000  0.4324780000000  0.4884130000000 1.0
C      1  0.5290770000000  0.5636460000000  0.4840330000000 1.0
C      1  0.5224450000000  0.4407220000000  0.5161890000000 1.0
C      1  0.4497820000000  0.4911740000000  0.4810610000000 1.0
C      1  0.4933130000000  0.4878190000000  0.4519990000000 1.0
C      1  0.4807020000000  0.4517900000000  0.4904810000000 1.0
C      1  0.4592140000000  0.5322310000000  0.5070210000000 1.0
C      1  0.5348550000000  0.4885770000000  0.5179030000000 1.0
C      1  0.5529310000000  0.5347230000000  0.4976490000000 1.0
C      1  0.4932830000000  0.5186510000000  0.5452810000000 1.0
C      1  0.5410450000000  0.4908770000000  0.5540710000000 1.0
C      1  0.5340840000000  0.5084390000000  0.4552250000000 1.0
C      1  0.4807010000000  0.5416670000000  0.5281750000000 1.0
C      1  0.5136910000000  0.4663110000000  0.5198080000000 1.0
C      1  0.5299510000000  0.5317940000000  0.4733120000000 1.0
C      1  0.5444660000000  0.4743900000000  0.4905560000000 1.0
C      1  0.5233620000000  0.4774060000000  0.4640560000000 1.0
C      1  0.5051360000000  0.4494740000000  0.4707020000000 1.0
C      1  0.5511590000000  0.5172550000000  0.5217600000000 1.0
C      1  0.4498990000000  0.4772820000000  0.5083060000000 1.0
C      1  0.4618070000000  0.5191100000000  0.4779490000000 1.0
C      1  0.5272380000000  0.5182470000000  0.5435320000000 1.0
C      1  0.4806910000000  0.4902580000000  0.5465050000000 1.0
C      1  0.4824250000000  0.5192180000000  0.4511540000000 1.0
C      1  0.5004360000000  0.5646000000000  0.5263060000000 1.0
C      1  0.4811660000000  0.4697200000000  0.5193740000000 1.0
C      1  0.5007420000000  0.5422360000000  0.4657970000000 1.0
C      1  0.4941750000000  0.5675180000000  0.4644520000000 1.0
C      1  0.4734940000000  0.4447140000000  0.5373340000000 1.0
C      1  0.5553340000000  0.4486940000000  0.4948830000000 1.0
C      1  0.4413870000000  0.5405720000000  0.4723380000000 1.0
C      1  0.5644230000000  0.5624340000000  0.5023770000000 1.0
C      1  0.5698090000000  0.4935330000000  0.5586690000000 1.0
C      1  0.5154930000000  0.5668220000000  0.5499950000000 1.0
C      1  0.4340660000000  0.4534730000000  0.5073580000000 1.0
C      1  0.5397230000000  0.4638400000000  0.4412440000000 1.0
C      1  0.4580000000000  0.5225610000000  0.4320200000000 1.0
C      1  0.4503070000000  0.4925030000000  0.5526900000000 1.0
C      1  0.4982480000000  0.4366590000000  0.4463220000000 1.0
END
