TITL C-215599-6397-12 -976597.69259015 125000 -299.876423016109 0 0 60 (C1) n - 1
REM
REM in /home/bkarasulu/work/CARBON/AIRSS/Generating-Clusters/AIREBO/Higher-Symm/Only-C60
REM
REM
REM
REM
REM
REM ./C.cell (28575a23ae977d3b5fae324c64b13b57)
REM AIRSS Version 0.9.1 bugfix July 2018 build 013d7b7c2542+ Fri, 06 Jul 2018 19:26:36 +0100
REM compiler GCC version 9.2.1 20190827 (Red Hat 9.2.1-1)
REM options -cpp -mtune=generic -march=x86-64 -g -O0 -fpre-include=/usr/include/finclude/math-vector-fortran.h
REM seed -81787453 1094840604 29957734 1978731232 -1831252210 -491278185 -1877081900 208465751 893971571 -1679503611 705280775 -1990641711 78460971 1747351928 -432434503 1734650630 601175133 1293125726 -1533746275 -877710043 170539672 1268179437 41161062 -1231975083 -1728586498 1572200378 -30488444 -464013543 -1219763724 -1410211968 -427235341 1901839364 -1719070845
REM
CELL 1.54180   50.00000   50.00000   50.00000   90.00000   90.00000   90.00000
LATT -1
SFAC C  
C      1  0.5300500000000  0.5761170000000  0.4672000000000 1.0
C      1  0.5863930000000  0.4943250000000  0.4827530000000 1.0
C      1  0.5112590000000  0.4218280000000  0.4729640000000 1.0
C      1  0.4285350000000  0.4568930000000  0.4784240000000 1.0
C      1  0.4380910000000  0.5589460000000  0.4751640000000 1.0
C      1  0.4436720000000  0.5495030000000  0.5047050000000 1.0
C      1  0.5279560000000  0.5720570000000  0.4981700000000 1.0
C      1  0.5772630000000  0.4988560000000  0.5094470000000 1.0
C      1  0.5170160000000  0.4285790000000  0.5035060000000 1.0
C      1  0.4370690000000  0.4587140000000  0.5057090000000 1.0
C      1  0.4433590000000  0.5132730000000  0.4530970000000 1.0
C      1  0.4902890000000  0.5536760000000  0.4489830000000 1.0
C      1  0.5557740000000  0.5220910000000  0.4522900000000 1.0
C      1  0.5359950000000  0.4613370000000  0.4510920000000 1.0
C      1  0.4730330000000  0.4565710000000  0.4491870000000 1.0
C      1  0.5170800000000  0.5560580000000  0.4537700000000 1.0
C      1  0.5670660000000  0.4979160000000  0.4622160000000 1.0
C      1  0.5141970000000  0.4424040000000  0.4559780000000 1.0
C      1  0.4478380000000  0.4658810000000  0.4594910000000 1.0
C      1  0.4485920000000  0.5418720000000  0.4567770000000 1.0
C      1  0.4993150000000  0.4714830000000  0.4633500000000 1.0
C      1  0.4546720000000  0.4923710000000  0.4672630000000 1.0
C      1  0.4775600000000  0.5292190000000  0.4661820000000 1.0
C      1  0.5269660000000  0.5284400000000  0.4636870000000 1.0
C      1  0.5445750000000  0.4818020000000  0.4674550000000 1.0
C      1  0.5117280000000  0.4698210000000  0.5394840000000 1.0
C      1  0.4736810000000  0.4803960000000  0.5365410000000 1.0
C      1  0.4737640000000  0.5195380000000  0.5418740000000 1.0
C      1  0.5096810000000  0.5336590000000  0.5334190000000 1.0
C      1  0.5337790000000  0.5025980000000  0.5380460000000 1.0
C      1  0.4552640000000  0.5124770000000  0.5142210000000 1.0
C      1  0.4973080000000  0.5484470000000  0.5077580000000 1.0
C      1  0.5425070000000  0.5185910000000  0.5099450000000 1.0
C      1  0.5323230000000  0.4641750000000  0.5130200000000 1.0
C      1  0.4771010000000  0.4616680000000  0.5090720000000 1.0
C      1  0.5061450000000  0.4585440000000  0.4916640000000 1.0
C      1  0.4708270000000  0.4909700000000  0.4929680000000 1.0
C      1  0.4731940000000  0.5352460000000  0.4964260000000 1.0
C      1  0.5264830000000  0.5382270000000  0.4936010000000 1.0
C      1  0.5316000000000  0.4910860000000  0.4930660000000 1.0
C      1  0.4733510000000  0.5126130000000  0.5726440000000 1.0
C      1  0.5101550000000  0.5257290000000  0.5626540000000 1.0
C      1  0.5337900000000  0.5048770000000  0.5700690000000 1.0
C      1  0.5025910000000  0.4714770000000  0.5691120000000 1.0
C      1  0.4726960000000  0.4814420000000  0.5684380000000 1.0
C      1  0.4969720000000  0.5795400000000  0.5099940000000 1.0
C      1  0.5741530000000  0.5283760000000  0.5150380000000 1.0
C      1  0.5484150000000  0.4342620000000  0.5114400000000 1.0
C      1  0.4551550000000  0.4358140000000  0.5116440000000 1.0
C      1  0.4234780000000  0.5250510000000  0.5139080000000 1.0
C      1  0.4998960000000  0.4420980000000  0.5269900000000 1.0
C      1  0.4442430000000  0.4810320000000  0.5210630000000 1.0
C      1  0.4612910000000  0.5479570000000  0.5323640000000 1.0
C      1  0.5305010000000  0.5580520000000  0.5279250000000 1.0
C      1  0.5577440000000  0.4842340000000  0.5234040000000 1.0
C      1  0.5018220000000  0.5054940000000  0.4637260000000 1.0
C      1  0.5031310000000  0.5013120000000  0.5845990000000 1.0
C      1  0.5003840000000  0.5009560000000  0.5315910000000 1.0
C      1  0.5021400000000  0.5046650000000  0.4300510000000 1.0
C      1  0.5011850000000  0.5024530000000  0.4976100000000 1.0
END
