TITL C-215602-6390-2 -957.940548756499 125000 -351.126932002748 0 0 60 (C1) n - 1
REM
REM in /home/bkarasulu/work/CARBON/AIRSS/Generating-Clusters/AIREBO/Higher-Symm/Only-C60
REM
REM
REM
REM
REM
REM ./C.cell (28575a23ae977d3b5fae324c64b13b57)
REM AIRSS Version 0.9.1 bugfix July 2018 build 013d7b7c2542+ Fri, 06 Jul 2018 19:26:36 +0100
REM compiler GCC version 9.2.1 20190827 (Red Hat 9.2.1-1)
REM options -cpp -mtune=generic -march=x86-64 -g -O0 -fpre-include=/usr/include/finclude/math-vector-fortran.h
REM seed -386251906 322374940 -2144465783 1644614545 1931069912 1602156005 -2058716647 1510164021 1441739055 859593269 -1691704528 -1284669590 -392947629 1208879808 101367716 -1152113794 2089062707 1948332508 733491557 1272483192 -1227187283 1827065558 249051388 49817371 107571310 362068557 -1072808208 -1785491555 -925950565 1709043126 1956716186 -1448863592 -14843859
REM
CELL 1.54180   50.00000   50.00000   50.00000   90.00000   90.00000   90.00000
LATT -1
SFAC C  
C      1  0.4508850000000  0.4593220000000  0.4516480000000 1.0
C      1  0.5533160000000  0.4620610000000  0.4497940000000 1.0
C      1  0.5479450000000  0.5449700000000  0.4570400000000 1.0
C      1  0.4595470000000  0.5411510000000  0.4520060000000 1.0
C      1  0.5714010000000  0.5229310000000  0.5072080000000 1.0
C      1  0.4671010000000  0.5596370000000  0.5202320000000 1.0
C      1  0.4258600000000  0.4764040000000  0.5132820000000 1.0
C      1  0.5359720000000  0.4405070000000  0.5196240000000 1.0
C      1  0.4931740000000  0.4488080000000  0.5405870000000 1.0
C      1  0.5487500000000  0.4888010000000  0.5387870000000 1.0
C      1  0.5083740000000  0.5529020000000  0.5412120000000 1.0
C      1  0.4484650000000  0.5110780000000  0.5439500000000 1.0
C      1  0.5009970000000  0.4681580000000  0.4577050000000 1.0
C      1  0.5166580000000  0.4961230000000  0.4628990000000 1.0
C      1  0.4940460000000  0.5191110000000  0.4652500000000 1.0
C      1  0.4787410000000  0.4898490000000  0.4733470000000 1.0
C      1  0.5520300000000  0.4430460000000  0.4970220000000 1.0
C      1  0.5490360000000  0.5401990000000  0.5074670000000 1.0
C      1  0.4514750000000  0.5588070000000  0.4969600000000 1.0
C      1  0.4496090000000  0.4616750000000  0.5100140000000 1.0
C      1  0.5345030000000  0.4905760000000  0.4871260000000 1.0
C      1  0.5063260000000  0.5392990000000  0.4839420000000 1.0
C      1  0.4573570000000  0.5104020000000  0.4898080000000 1.0
C      1  0.4916040000000  0.4543810000000  0.4853700000000 1.0
C      1  0.4810420000000  0.4911780000000  0.4251850000000 1.0
C      1  0.5097800000000  0.4797250000000  0.4272780000000 1.0
C      1  0.5320560000000  0.5039170000000  0.4360830000000 1.0
C      1  0.4797210000000  0.5187550000000  0.4361170000000 1.0
C      1  0.4650150000000  0.5455920000000  0.4213950000000 1.0
C      1  0.4608030000000  0.4740750000000  0.4308540000000 1.0
C      1  0.5394220000000  0.4658670000000  0.4265450000000 1.0
C      1  0.5485330000000  0.5247430000000  0.4381440000000 1.0
C      1  0.5654700000000  0.4957160000000  0.4918440000000 1.0
C      1  0.5067070000000  0.5693160000000  0.4962900000000 1.0
C      1  0.4288610000000  0.5036480000000  0.4977480000000 1.0
C      1  0.4952360000000  0.4266440000000  0.4979870000000 1.0
C      1  0.5116630000000  0.4614790000000  0.5598970000000 1.0
C      1  0.5382230000000  0.5114790000000  0.5512150000000 1.0
C      1  0.4892040000000  0.5396610000000  0.5581570000000 1.0
C      1  0.4618380000000  0.4887710000000  0.5544150000000 1.0
C      1  0.4943490000000  0.5687550000000  0.5217170000000 1.0
C      1  0.4254200000000  0.5050540000000  0.5291640000000 1.0
C      1  0.5077900000000  0.4314430000000  0.5229900000000 1.0
C      1  0.5711750000000  0.4939600000000  0.5227850000000 1.0
C      1  0.5488370000000  0.4627570000000  0.4773720000000 1.0
C      1  0.5369960000000  0.5454330000000  0.4829800000000 1.0
C      1  0.4547700000000  0.5383330000000  0.4779500000000 1.0
C      1  0.4606870000000  0.4622950000000  0.4817780000000 1.0
C      1  0.5065080000000  0.4819220000000  0.5775530000000 1.0
C      1  0.5239800000000  0.5078920000000  0.5750720000000 1.0
C      1  0.4953770000000  0.5200650000000  0.5766670000000 1.0
C      1  0.4779270000000  0.4937100000000  0.5768630000000 1.0
C      1  0.5181250000000  0.5053880000000  0.5129830000000 1.0
C      1  0.4925050000000  0.5277650000000  0.5128060000000 1.0
C      1  0.4790200000000  0.4970510000000  0.5124590000000 1.0
C      1  0.5042840000000  0.4747350000000  0.5080000000000 1.0
C      1  0.4678100000000  0.5321310000000  0.5358490000000 1.0
C      1  0.4721080000000  0.4694270000000  0.5310970000000 1.0
C      1  0.5271250000000  0.4682040000000  0.5323920000000 1.0
C      1  0.5284610000000  0.5329140000000  0.5300870000000 1.0
END
