TITL C-215600-6406-4 6.72629747621046e-06 125000 -297.756252184722 0 0 60 (C1) n - 1
REM
REM in /home/bkarasulu/work/CARBON/AIRSS/Generating-Clusters/AIREBO/Higher-Symm/Only-C60
REM
REM
REM
REM
REM
REM ./C.cell (28575a23ae977d3b5fae324c64b13b57)
REM AIRSS Version 0.9.1 bugfix July 2018 build 013d7b7c2542+ Fri, 06 Jul 2018 19:26:36 +0100
REM compiler GCC version 9.2.1 20190827 (Red Hat 9.2.1-1)
REM options -cpp -mtune=generic -march=x86-64 -g -O0 -fpre-include=/usr/include/finclude/math-vector-fortran.h
REM seed -1634398439 123681573 -306152835 -246381681 -1818750899 1997207345 525723371 86441106 -1743862418 -1289563053 -2102391617 -335619271 -1321026702 -292992187 660924058 -1949826586 -501237803 1579761296 -1735486918 1803515353 491332686 1940788804 -1197625860 -895367898 856463648 372069457 -1484176270 -669929799 -1048045046 -670466796 2037046461 343022702 1281960544
REM
CELL 1.54180   50.00000   50.00000   50.00000   90.00000   90.00000   90.00000
LATT -1
SFAC C  
C      1  0.5304410000000  0.4417930000000  0.5217290000000 1.0
C      1  0.5305090000000  0.4614280000000  0.4349600000000 1.0
C      1  0.5288940000000  0.5381270000000  0.4514730000000 1.0
C      1  0.5324860000000  0.5673470000000  0.5269470000000 1.0
C      1  0.5290810000000  0.4996100000000  0.5590630000000 1.0
C      1  0.4647880000000  0.5243610000000  0.4385490000000 1.0
C      1  0.4621250000000  0.5759930000000  0.4997160000000 1.0
C      1  0.4584020000000  0.5184170000000  0.5667180000000 1.0
C      1  0.4614300000000  0.4445450000000  0.5408270000000 1.0
C      1  0.4598340000000  0.4389940000000  0.4545020000000 1.0
C      1  0.4422700000000  0.5156690000000  0.4449230000000 1.0
C      1  0.4378410000000  0.5625440000000  0.5018560000000 1.0
C      1  0.4359120000000  0.5179700000000  0.5551950000000 1.0
C      1  0.4361510000000  0.4521870000000  0.5328520000000 1.0
C      1  0.4363040000000  0.4502460000000  0.4627840000000 1.0
C      1  0.4943150000000  0.4852700000000  0.5290630000000 1.0
C      1  0.4991600000000  0.4547080000000  0.4832260000000 1.0
C      1  0.5005650000000  0.4948340000000  0.4556300000000 1.0
C      1  0.4945310000000  0.5375590000000  0.4856610000000 1.0
C      1  0.4959910000000  0.5292980000000  0.5326020000000 1.0
C      1  0.4315670000000  0.4804400000000  0.5159150000000 1.0
C      1  0.4348630000000  0.4743440000000  0.4842560000000 1.0
C      1  0.4371690000000  0.5057480000000  0.4745460000000 1.0
C      1  0.4380640000000  0.5295450000000  0.4958270000000 1.0
C      1  0.4352080000000  0.5127060000000  0.5231650000000 1.0
C      1  0.5276960000000  0.5072370000000  0.4647370000000 1.0
C      1  0.5272400000000  0.5338180000000  0.4938630000000 1.0
C      1  0.5261790000000  0.5141940000000  0.5284820000000 1.0
C      1  0.5257140000000  0.4754420000000  0.5204320000000 1.0
C      1  0.5255710000000  0.4711870000000  0.4811270000000 1.0
C      1  0.4852750000000  0.4472040000000  0.4553260000000 1.0
C      1  0.4913780000000  0.5248990000000  0.4542490000000 1.0
C      1  0.4868420000000  0.5652730000000  0.5035070000000 1.0
C      1  0.4858460000000  0.5058220000000  0.5548330000000 1.0
C      1  0.4852980000000  0.4525080000000  0.5305630000000 1.0
C      1  0.4620920000000  0.5322040000000  0.5286860000000 1.0
C      1  0.4606040000000  0.4837470000000  0.5332970000000 1.0
C      1  0.4658940000000  0.4607900000000  0.4874890000000 1.0
C      1  0.4683720000000  0.4946850000000  0.4667930000000 1.0
C      1  0.4619780000000  0.5427250000000  0.4772920000000 1.0
C      1  0.4764720000000  0.5615210000000  0.4592640000000 1.0
C      1  0.4701740000000  0.5589680000000  0.5392290000000 1.0
C      1  0.4765160000000  0.4741260000000  0.5629040000000 1.0
C      1  0.4707970000000  0.4321020000000  0.4994610000000 1.0
C      1  0.4685020000000  0.4792910000000  0.4383950000000 1.0
C      1  0.5551410000000  0.5216170000000  0.4501250000000 1.0
C      1  0.5422000000000  0.5532250000000  0.5054030000000 1.0
C      1  0.5542850000000  0.5141900000000  0.5478560000000 1.0
C      1  0.5549170000000  0.4598870000000  0.5292610000000 1.0
C      1  0.5420850000000  0.4637910000000  0.4602290000000 1.0
C      1  0.5028280000000  0.4369940000000  0.5097660000000 1.0
C      1  0.5005810000000  0.4681050000000  0.4369440000000 1.0
C      1  0.5060000000000  0.5555010000000  0.4518440000000 1.0
C      1  0.5028880000000  0.5625740000000  0.5313900000000 1.0
C      1  0.5076410000000  0.4857740000000  0.5715450000000 1.0
C      1  0.4900020000000  0.5106800000000  0.5048960000000 1.0
C      1  0.5312880000000  0.5002720000000  0.4978470000000 1.0
C      1  0.5903910000000  0.4982240000000  0.4990160000000 1.0
C      1  0.5648960000000  0.4991550000000  0.4984600000000 1.0
C      1  0.4669080000000  0.4909530000000  0.5006650000000 1.0
END
