TITL C-215596-6355-11 -0.00076139928007917 125000 -369.02396133907 0 0 60 (C1) n - 1
REM
REM in /home/bkarasulu/work/CARBON/AIRSS/Generating-Clusters/AIREBO/Higher-Symm/Only-C60
REM
REM
REM
REM
REM
REM ./C.cell (28575a23ae977d3b5fae324c64b13b57)
REM AIRSS Version 0.9.1 bugfix July 2018 build 013d7b7c2542+ Fri, 06 Jul 2018 19:26:36 +0100
REM compiler GCC version 9.2.1 20190827 (Red Hat 9.2.1-1)
REM options -cpp -mtune=generic -march=x86-64 -g -O0 -fpre-include=/usr/include/finclude/math-vector-fortran.h
REM seed 1577446774 -86667785 775163194 1095323921 835101755 1398345994 -154500490 1679985961 1772573453 -443742388 -344877531 -887700545 -624147564 680594540 1056631919 -1686479694 669098413 -186149235 1883851282 -2110869661 1044298733 -1015762923 166587946 -1005693353 -294931577 990273289 -757773319 582879121 -1092779569 1508155575 -1684812339 -582244454 -128028262
REM
CELL 1.54180   50.00000   50.00000   50.00000   90.00000   90.00000   90.00000
LATT -1
SFAC C  
C      1  0.5328360000000  0.4330410000000  0.4913580000000 1.0
C      1  0.4364340000000  0.4310790000000  0.4924430000000 1.0
C      1  0.4260370000000  0.5358200000000  0.4967080000000 1.0
C      1  0.5192080000000  0.5718310000000  0.4848340000000 1.0
C      1  0.5721810000000  0.5090860000000  0.4866640000000 1.0
C      1  0.4653990000000  0.4287470000000  0.4871550000000 1.0
C      1  0.5592740000000  0.4395270000000  0.5026590000000 1.0
C      1  0.5798130000000  0.5369770000000  0.4855720000000 1.0
C      1  0.4894430000000  0.5680730000000  0.4912260000000 1.0
C      1  0.4276670000000  0.5086520000000  0.4880350000000 1.0
C      1  0.4822520000000  0.4291100000000  0.5110820000000 1.0
C      1  0.4220040000000  0.4875950000000  0.5069920000000 1.0
C      1  0.4651340000000  0.5726070000000  0.5136010000000 1.0
C      1  0.5634870000000  0.5557160000000  0.5005770000000 1.0
C      1  0.5697260000000  0.4666070000000  0.5140160000000 1.0
C      1  0.5108830000000  0.4270380000000  0.5111260000000 1.0
C      1  0.5728160000000  0.4966700000000  0.5127820000000 1.0
C      1  0.5368550000000  0.5727410000000  0.5071330000000 1.0
C      1  0.4451440000000  0.5532900000000  0.5127750000000 1.0
C      1  0.4292720000000  0.4579630000000  0.4997990000000 1.0
C      1  0.4567010000000  0.4700330000000  0.5148870000000 1.0
C      1  0.4563190000000  0.5239950000000  0.5199900000000 1.0
C      1  0.5237260000000  0.5553620000000  0.5333780000000 1.0
C      1  0.5578990000000  0.5128110000000  0.5311940000000 1.0
C      1  0.5230040000000  0.4457140000000  0.5297490000000 1.0
C      1  0.5382000000000  0.4707020000000  0.5161780000000 1.0
C      1  0.5433850000000  0.5348190000000  0.5167080000000 1.0
C      1  0.4949540000000  0.5625480000000  0.5229370000000 1.0
C      1  0.4434250000000  0.4946640000000  0.5307390000000 1.0
C      1  0.4723800000000  0.4490030000000  0.5292720000000 1.0
C      1  0.4870410000000  0.5360260000000  0.5603180000000 1.0
C      1  0.5327380000000  0.5236240000000  0.5701110000000 1.0
C      1  0.5301360000000  0.4804060000000  0.5472450000000 1.0
C      1  0.4826790000000  0.4561740000000  0.5543860000000 1.0
C      1  0.4551980000000  0.4955280000000  0.5607480000000 1.0
C      1  0.5142300000000  0.5418200000000  0.5590810000000 1.0
C      1  0.4668060000000  0.5203720000000  0.5501260000000 1.0
C      1  0.4660040000000  0.4719520000000  0.5708060000000 1.0
C      1  0.5107190000000  0.4573180000000  0.5547710000000 1.0
C      1  0.5435040000000  0.5034910000000  0.5534310000000 1.0
C      1  0.4615020000000  0.5010060000000  0.4424270000000 1.0
C      1  0.4865550000000  0.5412410000000  0.4488210000000 1.0
C      1  0.5291510000000  0.5239590000000  0.4302830000000 1.0
C      1  0.5295730000000  0.4750530000000  0.4317270000000 1.0
C      1  0.4854290000000  0.4578470000000  0.4464530000000 1.0
C      1  0.5373660000000  0.4999650000000  0.4422570000000 1.0
C      1  0.5143910000000  0.5423360000000  0.4455820000000 1.0
C      1  0.4691520000000  0.5261380000000  0.4328410000000 1.0
C      1  0.4707560000000  0.4768250000000  0.4312520000000 1.0
C      1  0.5135960000000  0.4579470000000  0.4475820000000 1.0
C      1  0.5276130000000  0.5499100000000  0.4692750000000 1.0
C      1  0.5444000000000  0.5011490000000  0.4722190000000 1.0
C      1  0.5252250000000  0.4540310000000  0.4730880000000 1.0
C      1  0.4639430000000  0.4747950000000  0.4845380000000 1.0
C      1  0.4643420000000  0.5249040000000  0.4889140000000 1.0
C      1  0.4779700000000  0.5450610000000  0.4752520000000 1.0
C      1  0.4536650000000  0.5003390000000  0.4717680000000 1.0
C      1  0.4719810000000  0.4517510000000  0.4706560000000 1.0
C      1  0.5307510000000  0.4779250000000  0.4872920000000 1.0
C      1  0.5377300000000  0.5292920000000  0.4851820000000 1.0
END
