TITL C-215602-6390-29 -0.000805843074051868 125000 -332.154557770183 0 0 60 (C2) n - 1
REM
REM in /home/bkarasulu/work/CARBON/AIRSS/Generating-Clusters/AIREBO/Higher-Symm/Only-C60
REM
REM
REM
REM
REM
REM ./C.cell (28575a23ae977d3b5fae324c64b13b57)
REM AIRSS Version 0.9.1 bugfix July 2018 build 013d7b7c2542+ Fri, 06 Jul 2018 19:26:36 +0100
REM compiler GCC version 9.2.1 20190827 (Red Hat 9.2.1-1)
REM options -cpp -mtune=generic -march=x86-64 -g -O0 -fpre-include=/usr/include/finclude/math-vector-fortran.h
REM seed 2132414144 -1370935276 -1425527465 647327074 -867253730 -478003647 -1575259709 -1357564678 1849313369 1308420244 615122397 833840235 465507578 317797746 1347892213 -2052962297 370205871 -716140663 -731390401 -984244848 -175790823 -1655393513 1464870956 -2091675934 1665765639 2131951789 968008972 -1494636636 92542162 -390212291 -141325521 -216963842 -1416494874
REM
CELL 1.54180   50.00000   50.00000   50.00000   90.00000   90.00000   90.00000
LATT -1
SFAC C  
C      1  0.5531400000000  0.4341400000000  0.5137570000000 1.0
C      1  0.5037230000000  0.4213720000000  0.5097400000000 1.0
C      1  0.4521820000000  0.4316190000000  0.5240040000000 1.0
C      1  0.4137490000000  0.4680320000000  0.5104380000000 1.0
C      1  0.4209910000000  0.5173470000000  0.5123610000000 1.0
C      1  0.4468600000000  0.5658600000000  0.5137540000000 1.0
C      1  0.4962770000000  0.5786280000000  0.5097380000000 1.0
C      1  0.5478170000000  0.5683820000000  0.5240050000000 1.0
C      1  0.5862500000000  0.5319680000000  0.5104410000000 1.0
C      1  0.5790080000000  0.4826530000000  0.5123640000000 1.0
C      1  0.5429610000000  0.4454330000000  0.4835290000000 1.0
C      1  0.5016150000000  0.4202060000000  0.4813980000000 1.0
C      1  0.4568730000000  0.4381540000000  0.4915720000000 1.0
C      1  0.4382750000000  0.4744730000000  0.5037280000000 1.0
C      1  0.4381290000000  0.5101190000000  0.4856910000000 1.0
C      1  0.4570390000000  0.5545670000000  0.4835260000000 1.0
C      1  0.4983860000000  0.5797940000000  0.4813960000000 1.0
C      1  0.5431270000000  0.5618450000000  0.4915720000000 1.0
C      1  0.5617240000000  0.5255270000000  0.5037300000000 1.0
C      1  0.5618720000000  0.4898810000000  0.4856930000000 1.0
C      1  0.4537890000000  0.5136590000000  0.5146570000000 1.0
C      1  0.4685870000000  0.5408970000000  0.5127950000000 1.0
C      1  0.4970310000000  0.5492290000000  0.5243710000000 1.0
C      1  0.5279010000000  0.5432220000000  0.5156590000000 1.0
C      1  0.5402020000000  0.5153620000000  0.5260420000000 1.0
C      1  0.5462110000000  0.4863420000000  0.5146590000000 1.0
C      1  0.5314130000000  0.4591030000000  0.5127970000000 1.0
C      1  0.5029680000000  0.4507710000000  0.5243720000000 1.0
C      1  0.4720990000000  0.4567790000000  0.5156590000000 1.0
C      1  0.4597970000000  0.4846390000000  0.5260410000000 1.0
C      1  0.4886780000000  0.5481840000000  0.4476870000000 1.0
C      1  0.5169440000000  0.5502840000000  0.4507440000000 1.0
C      1  0.5414620000000  0.5320830000000  0.4462320000000 1.0
C      1  0.5479220000000  0.4990880000000  0.4467580000000 1.0
C      1  0.5285100000000  0.4737270000000  0.4468650000000 1.0
C      1  0.5113240000000  0.4518150000000  0.4476880000000 1.0
C      1  0.4830580000000  0.4497160000000  0.4507440000000 1.0
C      1  0.4585400000000  0.4679160000000  0.4462310000000 1.0
C      1  0.4520800000000  0.5009110000000  0.4467570000000 1.0
C      1  0.4714920000000  0.5262720000000  0.4468630000000 1.0
C      1  0.4776410000000  0.4299660000000  0.4704330000000 1.0
C      1  0.4411420000000  0.4446100000000  0.4635880000000 1.0
C      1  0.4469930000000  0.4822380000000  0.4748110000000 1.0
C      1  0.4464280000000  0.5316990000000  0.4664200000000 1.0
C      1  0.4774720000000  0.5679140000000  0.4666330000000 1.0
C      1  0.5223600000000  0.5700330000000  0.4704330000000 1.0
C      1  0.5588590000000  0.5553890000000  0.4635890000000 1.0
C      1  0.5530080000000  0.5177610000000  0.4748120000000 1.0
C      1  0.5535730000000  0.4683010000000  0.4664230000000 1.0
C      1  0.5225290000000  0.4320850000000  0.4666350000000 1.0
C      1  0.5260950000000  0.4656630000000  0.5665960000000 1.0
C      1  0.5030020000000  0.4557620000000  0.5545890000000 1.0
C      1  0.4781120000000  0.4633200000000  0.5652420000000 1.0
C      1  0.4635740000000  0.4852700000000  0.5556530000000 1.0
C      1  0.4617370000000  0.5100550000000  0.5680030000000 1.0
C      1  0.4739030000000  0.5343380000000  0.5665940000000 1.0
C      1  0.4969960000000  0.5442390000000  0.5545880000000 1.0
C      1  0.5218850000000  0.5366810000000  0.5652420000000 1.0
C      1  0.5364240000000  0.5147310000000  0.5556550000000 1.0
C      1  0.5382610000000  0.4899460000000  0.5680040000000 1.0
END
