TITL C-215603-6394-3 0.000123438984792234 125000 -327.004216679386 0 0 60 (C1) n - 1
REM
REM in /home/bkarasulu/work/CARBON/AIRSS/Generating-Clusters/AIREBO/Higher-Symm/Only-C60
REM
REM
REM
REM
REM
REM ./C.cell (28575a23ae977d3b5fae324c64b13b57)
REM AIRSS Version 0.9.1 bugfix July 2018 build 013d7b7c2542+ Fri, 06 Jul 2018 19:26:36 +0100
REM compiler GCC version 9.2.1 20190827 (Red Hat 9.2.1-1)
REM options -cpp -mtune=generic -march=x86-64 -g -O0 -fpre-include=/usr/include/finclude/math-vector-fortran.h
REM seed 1374551976 -1548573587 388520336 2049423475 -1129740863 1661813027 -1248821486 -860478188 -1503103112 1992128761 1119438538 -915582822 746190554 1782837687 1862262088 2138154485 -1090229355 -2091846334 108008978 711838693 574800519 -949444328 -1887364893 -2065336385 -1426403517 -1480329510 331401568 -1734109359 231176804 -1729803458 1403383801 1840234455 -380928359
REM
CELL 1.54180   50.00000   50.00000   50.00000   90.00000   90.00000   90.00000
LATT -1
SFAC C  
C      1  0.5003350000000  0.5531690000000  0.5364160000000 1.0
C      1  0.5498490000000  0.5270040000000  0.5356450000000 1.0
C      1  0.5571830000000  0.4713360000000  0.5407420000000 1.0
C      1  0.5085850000000  0.4475630000000  0.5400760000000 1.0
C      1  0.4425300000000  0.4444470000000  0.5453980000000 1.0
C      1  0.4450930000000  0.5272870000000  0.5404590000000 1.0
C      1  0.4899760000000  0.5417290000000  0.4390210000000 1.0
C      1  0.5363150000000  0.5365740000000  0.4347900000000 1.0
C      1  0.5463190000000  0.4931670000000  0.4484940000000 1.0
C      1  0.5084590000000  0.4590050000000  0.4446060000000 1.0
C      1  0.4625120000000  0.4652140000000  0.4399150000000 1.0
C      1  0.4511460000000  0.5097670000000  0.4454510000000 1.0
C      1  0.5120500000000  0.5427100000000  0.4216440000000 1.0
C      1  0.5515200000000  0.5133770000000  0.4294420000000 1.0
C      1  0.5338000000000  0.4692810000000  0.4431550000000 1.0
C      1  0.4864270000000  0.4569730000000  0.4273150000000 1.0
C      1  0.4468290000000  0.4864410000000  0.4301540000000 1.0
C      1  0.4641040000000  0.5326990000000  0.4375230000000 1.0
C      1  0.4973430000000  0.4230450000000  0.4780850000000 1.0
C      1  0.4438040000000  0.4402840000000  0.4737260000000 1.0
C      1  0.4246140000000  0.5053280000000  0.4749150000000 1.0
C      1  0.4977340000000  0.5797320000000  0.4721890000000 1.0
C      1  0.5650950000000  0.5519400000000  0.4707830000000 1.0
C      1  0.5733020000000  0.5021130000000  0.4763040000000 1.0
C      1  0.4883270000000  0.5593520000000  0.5122760000000 1.0
C      1  0.5545220000000  0.5464000000000  0.5160160000000 1.0
C      1  0.5606880000000  0.4805730000000  0.5155250000000 1.0
C      1  0.5176530000000  0.4421700000000  0.5144430000000 1.0
C      1  0.4473450000000  0.4479890000000  0.5192500000000 1.0
C      1  0.4404460000000  0.5244750000000  0.5140000000000 1.0
C      1  0.4630900000000  0.4678120000000  0.5076470000000 1.0
C      1  0.4674460000000  0.5139220000000  0.5006710000000 1.0
C      1  0.4849920000000  0.5381020000000  0.4929660000000 1.0
C      1  0.5310960000000  0.5525230000000  0.5000270000000 1.0
C      1  0.5320410000000  0.4901850000000  0.5031450000000 1.0
C      1  0.5167110000000  0.4641370000000  0.4957090000000 1.0
C      1  0.5296010000000  0.4794140000000  0.5516650000000 1.0
C      1  0.4958810000000  0.4760220000000  0.5484090000000 1.0
C      1  0.4771280000000  0.4904510000000  0.5239650000000 1.0
C      1  0.4715940000000  0.5137570000000  0.5480040000000 1.0
C      1  0.5029880000000  0.5249400000000  0.5481690000000 1.0
C      1  0.5254780000000  0.5060290000000  0.5327470000000 1.0
C      1  0.4658430000000  0.4661790000000  0.4737560000000 1.0
C      1  0.4566890000000  0.4987960000000  0.4747030000000 1.0
C      1  0.5003940000000  0.5479150000000  0.4664440000000 1.0
C      1  0.5333730000000  0.5398850000000  0.4685390000000 1.0
C      1  0.5405230000000  0.5076660000000  0.4768330000000 1.0
C      1  0.4974380000000  0.4548180000000  0.4723430000000 1.0
C      1  0.4898560000000  0.4720760000000  0.5813790000000 1.0
C      1  0.4728170000000  0.4920960000000  0.5919760000000 1.0
C      1  0.4783310000000  0.5164340000000  0.5783790000000 1.0
C      1  0.5065950000000  0.5258910000000  0.5813210000000 1.0
C      1  0.5233870000000  0.5061000000000  0.5926570000000 1.0
C      1  0.5187880000000  0.4806610000000  0.5807640000000 1.0
C      1  0.5116230000000  0.4177100000000  0.5012800000000 1.0
C      1  0.4362760000000  0.4317950000000  0.4988870000000 1.0
C      1  0.4186060000000  0.5213900000000  0.4966800000000 1.0
C      1  0.4906440000000  0.5841840000000  0.4986740000000 1.0
C      1  0.5754570000000  0.5514260000000  0.4968540000000 1.0
C      1  0.5814080000000  0.4865370000000  0.4976460000000 1.0
END
