TITL C-215597-6371-16 0.000410443375914791 125000 -341.035255117261 0 0 60 (C1) n - 1
REM
REM in /home/bkarasulu/work/CARBON/AIRSS/Generating-Clusters/AIREBO/Higher-Symm/Only-C60
REM
REM
REM
REM
REM
REM ./C.cell (28575a23ae977d3b5fae324c64b13b57)
REM AIRSS Version 0.9.1 bugfix July 2018 build 013d7b7c2542+ Fri, 06 Jul 2018 19:26:36 +0100
REM compiler GCC version 9.2.1 20190827 (Red Hat 9.2.1-1)
REM options -cpp -mtune=generic -march=x86-64 -g -O0 -fpre-include=/usr/include/finclude/math-vector-fortran.h
REM seed -1297030063 486865372 -1756119135 -316496679 -220717371 -231518402 1655357137 1262956456 -1461720427 -1971054813 285059214 1038971034 -970738343 -1028419924 -1389977709 354292785 322867677 -2725182 -1947840760 -1932564884 -12623031 -1735430609 -709313583 -1425417930 -59652023 -1900397548 -206107501 1562574100 212676707 164301757 1168232261 297696791 -2055183947
REM
CELL 1.54180   50.00000   50.00000   50.00000   90.00000   90.00000   90.00000
LATT -1
SFAC C  
C      1  0.5140530000000  0.4288440000000  0.5202380000000 1.0
C      1  0.4877410000000  0.4168780000000  0.5215100000000 1.0
C      1  0.4741570000000  0.4193440000000  0.4969460000000 1.0
C      1  0.4902040000000  0.4332830000000  0.4772760000000 1.0
C      1  0.5158050000000  0.4201620000000  0.4739450000000 1.0
C      1  0.5293730000000  0.4174980000000  0.4984840000000 1.0
C      1  0.5087190000000  0.5680600000000  0.5235480000000 1.0
C      1  0.4824380000000  0.5799040000000  0.5214860000000 1.0
C      1  0.4728910000000  0.5802510000000  0.4949930000000 1.0
C      1  0.4917090000000  0.5686280000000  0.4763870000000 1.0
C      1  0.5175730000000  0.5812690000000  0.4788970000000 1.0
C      1  0.5271200000000  0.5809490000000  0.5053700000000 1.0
C      1  0.4189370000000  0.4792520000000  0.5007060000000 1.0
C      1  0.4653420000000  0.4693910000000  0.4437470000000 1.0
C      1  0.5407520000000  0.4706920000000  0.4352760000000 1.0
C      1  0.5747790000000  0.4760010000000  0.4973790000000 1.0
C      1  0.5364320000000  0.4731600000000  0.5645160000000 1.0
C      1  0.4594160000000  0.4713950000000  0.5619350000000 1.0
C      1  0.4258610000000  0.5341060000000  0.4998320000000 1.0
C      1  0.4639890000000  0.5233960000000  0.4384680000000 1.0
C      1  0.5409670000000  0.5269620000000  0.4344740000000 1.0
C      1  0.5720300000000  0.5291560000000  0.4981530000000 1.0
C      1  0.5358200000000  0.5259550000000  0.5648780000000 1.0
C      1  0.4595400000000  0.5259840000000  0.5653790000000 1.0
C      1  0.4861270000000  0.4709440000000  0.4301030000000 1.0
C      1  0.5570670000000  0.4723830000000  0.4546780000000 1.0
C      1  0.5756970000000  0.4732710000000  0.5226080000000 1.0
C      1  0.5118260000000  0.4717530000000  0.5685430000000 1.0
C      1  0.4404070000000  0.4754810000000  0.5460110000000 1.0
C      1  0.4245900000000  0.4736890000000  0.4765850000000 1.0
C      1  0.4858690000000  0.5242020000000  0.4266150000000 1.0
C      1  0.5565770000000  0.5270770000000  0.4544920000000 1.0
C      1  0.5731700000000  0.5297270000000  0.5235030000000 1.0
C      1  0.5113490000000  0.5239910000000  0.5690150000000 1.0
C      1  0.4425400000000  0.5318810000000  0.5474000000000 1.0
C      1  0.4270980000000  0.5288970000000  0.4749700000000 1.0
C      1  0.5500470000000  0.5150840000000  0.5398200000000 1.0
C      1  0.4863020000000  0.5127950000000  0.5548060000000 1.0
C      1  0.4501800000000  0.5208690000000  0.5175030000000 1.0
C      1  0.4533130000000  0.5136520000000  0.4656730000000 1.0
C      1  0.5122700000000  0.5136410000000  0.4381890000000 1.0
C      1  0.5431060000000  0.5178430000000  0.4843140000000 1.0
C      1  0.5516350000000  0.4850440000000  0.5402460000000 1.0
C      1  0.4867520000000  0.4823650000000  0.5531680000000 1.0
C      1  0.4437750000000  0.4887680000000  0.5181260000000 1.0
C      1  0.4532880000000  0.4832330000000  0.4683460000000 1.0
C      1  0.5123700000000  0.4835780000000  0.4400140000000 1.0
C      1  0.5444630000000  0.4838180000000  0.4841130000000 1.0
C      1  0.4704370000000  0.5255500000000  0.4905820000000 1.0
C      1  0.4923610000000  0.5404350000000  0.4762720000000 1.0
C      1  0.5144690000000  0.5257880000000  0.4676400000000 1.0
C      1  0.5318210000000  0.5252770000000  0.5155730000000 1.0
C      1  0.5091790000000  0.5398600000000  0.5227330000000 1.0
C      1  0.4830840000000  0.5249510000000  0.5250870000000 1.0
C      1  0.4674250000000  0.4747190000000  0.4981350000000 1.0
C      1  0.4919440000000  0.4614700000000  0.4812450000000 1.0
C      1  0.5142680000000  0.4754900000000  0.4707390000000 1.0
C      1  0.5363820000000  0.4728140000000  0.5151250000000 1.0
C      1  0.5137290000000  0.4574200000000  0.5203070000000 1.0
C      1  0.4894350000000  0.4717170000000  0.5239010000000 1.0
END
