TITL C-215597-6371-11 -0.00348847759149246 125000 -340.944982757517 0 0 60 (C1) n - 1
REM
REM in /home/bkarasulu/work/CARBON/AIRSS/Generating-Clusters/AIREBO/Higher-Symm/Only-C60
REM
REM
REM
REM
REM
REM ./C.cell (28575a23ae977d3b5fae324c64b13b57)
REM AIRSS Version 0.9.1 bugfix July 2018 build 013d7b7c2542+ Fri, 06 Jul 2018 19:26:36 +0100
REM compiler GCC version 9.2.1 20190827 (Red Hat 9.2.1-1)
REM options -cpp -mtune=generic -march=x86-64 -g -O0 -fpre-include=/usr/include/finclude/math-vector-fortran.h
REM seed -1010844333 1287779178 -1591497835 -2010103052 -243643689 1383236488 176853506 -2089089143 -1881124523 669809481 -1982176455 1212258334 -327467516 -1903639258 1732853826 889529884 -1058452611 1954331098 888121946 1867862488 1358931018 758265842 961407861 915076683 -329455124 406608260 -415958303 673816060 -1992208431 376464226 -770974432 -839082792 -48424525
REM
CELL 1.54180   50.00000   50.00000   50.00000   90.00000   90.00000   90.00000
LATT -1
SFAC C  
C      1  0.4466700000000  0.4847480000000  0.4857790000000 1.0
C      1  0.5551800000000  0.5191800000000  0.4860760000000 1.0
C      1  0.5576930000000  0.4890770000000  0.4833960000000 1.0
C      1  0.4460490000000  0.5145260000000  0.4933140000000 1.0
C      1  0.5307110000000  0.4391620000000  0.5199820000000 1.0
C      1  0.4660170000000  0.5577250000000  0.5222170000000 1.0
C      1  0.4659570000000  0.4421000000000  0.5212930000000 1.0
C      1  0.5314900000000  0.5604150000000  0.5177830000000 1.0
C      1  0.5150260000000  0.5699740000000  0.5394680000000 1.0
C      1  0.4812300000000  0.4362440000000  0.5441030000000 1.0
C      1  0.4830700000000  0.5635450000000  0.5440180000000 1.0
C      1  0.5129440000000  0.4310920000000  0.5412470000000 1.0
C      1  0.5131420000000  0.5139890000000  0.4349870000000 1.0
C      1  0.4851200000000  0.4859860000000  0.4323000000000 1.0
C      1  0.4819630000000  0.5182770000000  0.4249290000000 1.0
C      1  0.5158690000000  0.4831060000000  0.4224240000000 1.0
C      1  0.5153190000000  0.5484530000000  0.5617000000000 1.0
C      1  0.4811410000000  0.4605220000000  0.5640010000000 1.0
C      1  0.4858470000000  0.5407700000000  0.5658820000000 1.0
C      1  0.5115690000000  0.4546370000000  0.5618910000000 1.0
C      1  0.4800840000000  0.5155090000000  0.5562930000000 1.0
C      1  0.5269880000000  0.4751390000000  0.5515070000000 1.0
C      1  0.5301860000000  0.5271550000000  0.5515860000000 1.0
C      1  0.4708290000000  0.4853940000000  0.5486940000000 1.0
C      1  0.5200630000000  0.5552790000000  0.4578360000000 1.0
C      1  0.4888020000000  0.4458980000000  0.4626880000000 1.0
C      1  0.4882730000000  0.5548620000000  0.4626920000000 1.0
C      1  0.5186370000000  0.4441680000000  0.4580360000000 1.0
C      1  0.5200220000000  0.5165730000000  0.5222700000000 1.0
C      1  0.4856730000000  0.4807530000000  0.5198710000000 1.0
C      1  0.4887330000000  0.5119390000000  0.5247600000000 1.0
C      1  0.5179940000000  0.4848690000000  0.5223830000000 1.0
C      1  0.5269430000000  0.5270490000000  0.4946680000000 1.0
C      1  0.4736960000000  0.4707810000000  0.4946460000000 1.0
C      1  0.4747770000000  0.5249760000000  0.5011310000000 1.0
C      1  0.5315130000000  0.4725870000000  0.4978340000000 1.0
C      1  0.5341670000000  0.5343600000000  0.4444800000000 1.0
C      1  0.4660120000000  0.4622780000000  0.4445470000000 1.0
C      1  0.4686300000000  0.5328770000000  0.4486290000000 1.0
C      1  0.5327230000000  0.4682870000000  0.4430250000000 1.0
C      1  0.5165040000000  0.4429840000000  0.4913800000000 1.0
C      1  0.4825760000000  0.5552590000000  0.4948910000000 1.0
C      1  0.4825510000000  0.4399100000000  0.4938380000000 1.0
C      1  0.5159940000000  0.5567400000000  0.4910170000000 1.0
C      1  0.5536680000000  0.5423640000000  0.5233330000000 1.0
C      1  0.4460890000000  0.4625970000000  0.5247180000000 1.0
C      1  0.4429740000000  0.5401770000000  0.5244650000000 1.0
C      1  0.5528060000000  0.4564270000000  0.5275080000000 1.0
C      1  0.4823400000000  0.5154810000000  0.4725880000000 1.0
C      1  0.5210410000000  0.4822630000000  0.4697150000000 1.0
C      1  0.5128150000000  0.5112350000000  0.4689330000000 1.0
C      1  0.4813490000000  0.4849600000000  0.4660780000000 1.0
C      1  0.5540320000000  0.4854860000000  0.5397090000000 1.0
C      1  0.4326460000000  0.5150480000000  0.5319920000000 1.0
C      1  0.4399850000000  0.4885630000000  0.5407750000000 1.0
C      1  0.5560220000000  0.5139250000000  0.5394030000000 1.0
C      1  0.5573880000000  0.4857270000000  0.4526420000000 1.0
C      1  0.4441500000000  0.5154660000000  0.4609240000000 1.0
C      1  0.4428570000000  0.4831100000000  0.4558330000000 1.0
C      1  0.5554600000000  0.5180210000000  0.4558910000000 1.0
END
