TITL C-215601-6378-3 0.000658402966718681 125000 -334.421489735242 0 0 60 (C1) n - 1
REM
REM in /home/bkarasulu/work/CARBON/AIRSS/Generating-Clusters/AIREBO/Higher-Symm/Only-C60
REM
REM
REM
REM
REM
REM ./C.cell (28575a23ae977d3b5fae324c64b13b57)
REM AIRSS Version 0.9.1 bugfix July 2018 build 013d7b7c2542+ Fri, 06 Jul 2018 19:26:36 +0100
REM compiler GCC version 9.2.1 20190827 (Red Hat 9.2.1-1)
REM options -cpp -mtune=generic -march=x86-64 -g -O0 -fpre-include=/usr/include/finclude/math-vector-fortran.h
REM seed -2074971187 1392528734 -1342685615 -1171873233 -752991066 1574088442 -1495643687 1278193392 -632445607 2055300501 21463874 439739239 -135951184 -1429131151 -257095979 -423246004 -54458481 358897424 -203818658 -437011581 -675682541 686383337 -1966123148 -1733540305 -2139095239 443404509 1194904208 61867177 593493018 -2132927793 -1007641817 -514408826 -1056488495
REM
CELL 1.54180   50.00000   50.00000   50.00000   90.00000   90.00000   90.00000
LATT -1
SFAC C  
C      1  0.5496570000000  0.5172890000000  0.5644500000000 1.0
C      1  0.5266820000000  0.5009510000000  0.5454390000000 1.0
C      1  0.5195640000000  0.4475470000000  0.5157800000000 1.0
C      1  0.5513070000000  0.4685800000000  0.4498630000000 1.0
C      1  0.5328290000000  0.4961550000000  0.4570150000000 1.0
C      1  0.5353190000000  0.5567480000000  0.4734220000000 1.0
C      1  0.5375330000000  0.5578020000000  0.5198990000000 1.0
C      1  0.4685690000000  0.5332450000000  0.4491520000000 1.0
C      1  0.4557870000000  0.5520520000000  0.4943180000000 1.0
C      1  0.4651330000000  0.5359770000000  0.5412650000000 1.0
C      1  0.4707450000000  0.4906970000000  0.5539340000000 1.0
C      1  0.4719060000000  0.4496290000000  0.5310820000000 1.0
C      1  0.4709780000000  0.4466510000000  0.4813130000000 1.0
C      1  0.4711170000000  0.4833920000000  0.4476670000000 1.0
C      1  0.4529650000000  0.5558640000000  0.5262350000000 1.0
C      1  0.4526140000000  0.5130290000000  0.5529450000000 1.0
C      1  0.4560620000000  0.4663100000000  0.5481690000000 1.0
C      1  0.4579170000000  0.4457550000000  0.5065480000000 1.0
C      1  0.4561390000000  0.4637280000000  0.4621920000000 1.0
C      1  0.4564080000000  0.5073620000000  0.4474750000000 1.0
C      1  0.4523890000000  0.5542790000000  0.4609830000000 1.0
C      1  0.5469590000000  0.4442470000000  0.5183020000000 1.0
C      1  0.5639360000000  0.4559170000000  0.4710730000000 1.0
C      1  0.5618180000000  0.5135980000000  0.4604570000000 1.0
C      1  0.5610540000000  0.5364960000000  0.4804700000000 1.0
C      1  0.5632240000000  0.5387340000000  0.5117620000000 1.0
C      1  0.5632040000000  0.5155190000000  0.5332660000000 1.0
C      1  0.5539660000000  0.4842840000000  0.5426320000000 1.0
C      1  0.4341750000000  0.5282630000000  0.4850310000000 1.0
C      1  0.4312210000000  0.5145550000000  0.5133150000000 1.0
C      1  0.4293940000000  0.5028110000000  0.5376510000000 1.0
C      1  0.4309000000000  0.4736660000000  0.5342650000000 1.0
C      1  0.4329650000000  0.4630250000000  0.5057350000000 1.0
C      1  0.4333560000000  0.4766170000000  0.4778160000000 1.0
C      1  0.4345600000000  0.5039590000000  0.4658490000000 1.0
C      1  0.5395700000000  0.4561380000000  0.4273330000000 1.0
C      1  0.5828150000000  0.5072870000000  0.4461910000000 1.0
C      1  0.5638360000000  0.5668580000000  0.4650590000000 1.0
C      1  0.5663300000000  0.5704730000000  0.5237120000000 1.0
C      1  0.5624320000000  0.5012700000000  0.5836880000000 1.0
C      1  0.5586650000000  0.4575530000000  0.5400550000000 1.0
C      1  0.5610580000000  0.4417260000000  0.4940850000000 1.0
C      1  0.5032270000000  0.4811370000000  0.4493250000000 1.0
C      1  0.4934030000000  0.5337570000000  0.4631450000000 1.0
C      1  0.4871540000000  0.5408060000000  0.4954400000000 1.0
C      1  0.4909390000000  0.5270150000000  0.5263310000000 1.0
C      1  0.4963700000000  0.4938720000000  0.5317620000000 1.0
C      1  0.5010670000000  0.4604240000000  0.5359100000000 1.0
C      1  0.4925810000000  0.4720190000000  0.4793320000000 1.0
C      1  0.5125920000000  0.4619640000000  0.4257010000000 1.0
C      1  0.5174720000000  0.5262670000000  0.4548370000000 1.0
C      1  0.5134430000000  0.5577800000000  0.4880480000000 1.0
C      1  0.5151620000000  0.5473290000000  0.5284220000000 1.0
C      1  0.5425590000000  0.5427910000000  0.5735820000000 1.0
C      1  0.5088990000000  0.4543920000000  0.5626750000000 1.0
C      1  0.5094670000000  0.4473540000000  0.4909220000000 1.0
C      1  0.5475480000000  0.5022200000000  0.5077680000000 1.0
C      1  0.4587280000000  0.5080410000000  0.4974340000000 1.0
C      1  0.4821710000000  0.4927640000000  0.5008500000000 1.0
C      1  0.5342580000000  0.4939720000000  0.4892510000000 1.0
END
