TITL C-215603-6394-15 3859.00976806361 125000 -312.930935917994 0 0 60 (C3) n - 1
REM
REM in /home/bkarasulu/work/CARBON/AIRSS/Generating-Clusters/AIREBO/Higher-Symm/Only-C60
REM
REM
REM
REM
REM
REM ./C.cell (28575a23ae977d3b5fae324c64b13b57)
REM AIRSS Version 0.9.1 bugfix July 2018 build 013d7b7c2542+ Fri, 06 Jul 2018 19:26:36 +0100
REM compiler GCC version 9.2.1 20190827 (Red Hat 9.2.1-1)
REM options -cpp -mtune=generic -march=x86-64 -g -O0 -fpre-include=/usr/include/finclude/math-vector-fortran.h
REM seed -1715355541 2076652072 -1257367732 -356806394 -471962382 -1536081873 255365697 -1414215173 -2107393785 1886243238 691425330 -104063562 -1911599070 1521448423 -1770310657 1282338603 -2065884877 999757539 614318216 -275377095 -104698993 1512674911 -1826927649 -1701386359 537092975 -1723304015 -1428732750 -496941348 740390365 -898329535 -1052468299 794433040 100391965
REM
CELL 1.54180   50.00000   50.00000   50.00000   90.00000   90.00000   90.00000
LATT -1
SFAC C  
C      1  0.5168730000000  0.5269210000000  0.4842570000000 1.0
C      1  0.4779290000000  0.5269210000000  0.4932610000000 1.0
C      1  0.5051980000000  0.5269210000000  0.5224850000000 1.0
C      1  0.4949170000000  0.5020440000000  0.4774920000000 1.0
C      1  0.4830490000000  0.5020450000000  0.5156580000000 1.0
C      1  0.5220350000000  0.5020450000000  0.5068530000000 1.0
C      1  0.4564070000000  0.4883190000000  0.5508450000000 1.0
C      1  0.5658370000000  0.4883250000000  0.5123330000000 1.0
C      1  0.4777620000000  0.4883220000000  0.4368230000000 1.0
C      1  0.5281340000000  0.5169480000000  0.5886150000000 1.0
C      1  0.5626750000000  0.5169480000000  0.4313280000000 1.0
C      1  0.4091890000000  0.5169540000000  0.4800610000000 1.0
C      1  0.5040100000000  0.5548380000000  0.5645190000000 1.0
C      1  0.5538680000000  0.5548400000000  0.4642680000000 1.0
C      1  0.4421230000000  0.5548410000000  0.4712160000000 1.0
C      1  0.4893640000000  0.4494570000000  0.5164910000000 1.0
C      1  0.5196110000000  0.4494580000000  0.5009620000000 1.0
C      1  0.4910170000000  0.4494580000000  0.4825310000000 1.0
C      1  0.5523790000000  0.5161600000000  0.5095840000000 1.0
C      1  0.4821090000000  0.5161600000000  0.4498490000000 1.0
C      1  0.4655110000000  0.5161600000000  0.5405710000000 1.0
C      1  0.5428100000000  0.5393500000000  0.4416310000000 1.0
C      1  0.4280470000000  0.5393550000000  0.4921130000000 1.0
C      1  0.5291440000000  0.5393510000000  0.5662610000000 1.0
C      1  0.4444290000000  0.4713180000000  0.5048570000000 1.0
C      1  0.5319960000000  0.4713160000000  0.5456930000000 1.0
C      1  0.5235780000000  0.4713140000000  0.4494490000000 1.0
C      1  0.4925830000000  0.5527030000000  0.5353030000000 1.0
C      1  0.5342790000000  0.5527060000000  0.4887710000000 1.0
C      1  0.4731380000000  0.5527040000000  0.4759270000000 1.0
C      1  0.5116400000000  0.4583200000000  0.5627920000000 1.0
C      1  0.5485670000000  0.4583230000000  0.4585290000000 1.0
C      1  0.4397920000000  0.4583270000000  0.4786760000000 1.0
C      1  0.4876320000000  0.4465430000000  0.5456750000000 1.0
C      1  0.5457550000000  0.4465460000000  0.4878810000000 1.0
C      1  0.4666150000000  0.4465450000000  0.4664360000000 1.0
C      1  0.5037520000000  0.5011250000000  0.5691770000000 1.0
C      1  0.5580340000000  0.5011280000000  0.4621640000000 1.0
C      1  0.4382120000000  0.5011320000000  0.4686590000000 1.0
C      1  0.5356400000000  0.5248450000000  0.5365370000000 1.0
C      1  0.5138220000000  0.5248440000000  0.4508680000000 1.0
C      1  0.4505400000000  0.5248460000000  0.5125970000000 1.0
C      1  0.5701020000000  0.4947630000000  0.5636240000000 1.0
C      1  0.5200480000000  0.4947590000000  0.4074820000000 1.0
C      1  0.4098520000000  0.4947630000000  0.5289000000000 1.0
C      1  0.4347940000000  0.4788070000000  0.5347320000000 1.0
C      1  0.5626870000000  0.4788090000000  0.5391040000000 1.0
C      1  0.5025220000000  0.4788060000000  0.4261660000000 1.0
C      1  0.5364890000000  0.5006410000000  0.5599510000000 1.0
C      1  0.5336750000000  0.5006400000000  0.4384270000000 1.0
C      1  0.4298370000000  0.5006440000000  0.5016250000000 1.0
C      1  0.5199780000000  0.4751020000000  0.5182510000000 1.0
C      1  0.5058140000000  0.4750990000000  0.4735730000000 1.0
C      1  0.4742040000000  0.4751020000000  0.5081740000000 1.0
C      1  0.5580600000000  0.5264820000000  0.4814300000000 1.0
C      1  0.4548850000000  0.5264840000000  0.4590000000000 1.0
C      1  0.4870520000000  0.5264800000000  0.5595710000000 1.0
C      1  0.5638370000000  0.4752990000000  0.4837240000000 1.0
C      1  0.4539800000000  0.4753010000000  0.4528550000000 1.0
C      1  0.4821840000000  0.4752940000000  0.5634150000000 1.0
END
