TITL C-215598-6355-34 -0.000287051391365387 125000 -314.02825870347 0 0 60 (C1) n - 1
REM
REM in /home/bkarasulu/work/CARBON/AIRSS/Generating-Clusters/AIREBO/Higher-Symm/Only-C60
REM
REM
REM
REM
REM
REM ./C.cell (28575a23ae977d3b5fae324c64b13b57)
REM AIRSS Version 0.9.1 bugfix July 2018 build 013d7b7c2542+ Fri, 06 Jul 2018 19:26:36 +0100
REM compiler GCC version 9.2.1 20190827 (Red Hat 9.2.1-1)
REM options -cpp -mtune=generic -march=x86-64 -g -O0 -fpre-include=/usr/include/finclude/math-vector-fortran.h
REM seed -614116330 -780201225 724871868 -1822307491 1348484249 -1165678279 1149679760 -22613481 -300533119 1367064286 1505677198 1257716637 1944849982 1491962809 -1582031382 -1124206078 -2091030760 1236716542 -2010592940 -17184251 151515572 -1074031187 1397627128 -1516573492 -1712652018 -1646562733 930991843 1184672931 1641568042 1376723945 -1481165751 1933892368 955481742
REM
CELL 1.54180   50.00000   50.00000   50.00000   90.00000   90.00000   90.00000
LATT -1
SFAC C  
C      1  0.5613890000000  0.5162420000000  0.4831730000000 1.0
C      1  0.5646680000000  0.5261600000000  0.5421250000000 1.0
C      1  0.5615860000000  0.4838720000000  0.5169640000000 1.0
C      1  0.5650290000000  0.4738510000000  0.4578360000000 1.0
C      1  0.4389900000000  0.4736780000000  0.4776720000000 1.0
C      1  0.4400730000000  0.4736600000000  0.5261040000000 1.0
C      1  0.4360100000000  0.5368850000000  0.5291620000000 1.0
C      1  0.4399210000000  0.5255060000000  0.4750450000000 1.0
C      1  0.5467680000000  0.4215120000000  0.4881690000000 1.0
C      1  0.5446310000000  0.5057720000000  0.4234240000000 1.0
C      1  0.5458820000000  0.5783060000000  0.5118080000000 1.0
C      1  0.5444830000000  0.4940650000000  0.5766920000000 1.0
C      1  0.4624540000000  0.5843090000000  0.4815480000000 1.0
C      1  0.4566060000000  0.4905830000000  0.4193230000000 1.0
C      1  0.4620850000000  0.4155070000000  0.5145900000000 1.0
C      1  0.4564470000000  0.5092980000000  0.5803140000000 1.0
C      1  0.4900190000000  0.5196990000000  0.4635110000000 1.0
C      1  0.4874900000000  0.5426910000000  0.5235910000000 1.0
C      1  0.4904010000000  0.4789830000000  0.5368780000000 1.0
C      1  0.4878690000000  0.4570840000000  0.4767150000000 1.0
C      1  0.5094170000000  0.4731100000000  0.4592260000000 1.0
C      1  0.5139770000000  0.4644290000000  0.5190390000000 1.0
C      1  0.5089730000000  0.5265460000000  0.5407670000000 1.0
C      1  0.5133870000000  0.5347000000000  0.4810020000000 1.0
C      1  0.5510520000000  0.5107720000000  0.4525390000000 1.0
C      1  0.5503860000000  0.5506740000000  0.5231310000000 1.0
C      1  0.5510370000000  0.4891350000000  0.5475890000000 1.0
C      1  0.5511020000000  0.4491990000000  0.4769050000000 1.0
C      1  0.4496350000000  0.4827430000000  0.4477000000000 1.0
C      1  0.4525100000000  0.4438650000000  0.5190020000000 1.0
C      1  0.4496640000000  0.5158160000000  0.5513000000000 1.0
C      1  0.4521930000000  0.5558230000000  0.4797730000000 1.0
C      1  0.5373980000000  0.4863410000000  0.4718600000000 1.0
C      1  0.5410580000000  0.5277840000000  0.4997810000000 1.0
C      1  0.5371010000000  0.5133870000000  0.5282440000000 1.0
C      1  0.5415190000000  0.4719340000000  0.5003020000000 1.0
C      1  0.4587290000000  0.5067300000000  0.4669970000000 1.0
C      1  0.4583730000000  0.4611780000000  0.4928830000000 1.0
C      1  0.4589870000000  0.4919520000000  0.5347760000000 1.0
C      1  0.4575390000000  0.5416830000000  0.5070700000000 1.0
C      1  0.5198110000000  0.4964330000000  0.5819370000000 1.0
C      1  0.5229850000000  0.4167750000000  0.4954230000000 1.0
C      1  0.5199850000000  0.5032380000000  0.4181350000000 1.0
C      1  0.5222320000000  0.5827770000000  0.5039670000000 1.0
C      1  0.4810090000000  0.5038740000000  0.5838580000000 1.0
C      1  0.4869300000000  0.5854260000000  0.4884390000000 1.0
C      1  0.4811350000000  0.4962650000000  0.4161120000000 1.0
C      1  0.4868520000000  0.4140710000000  0.5091250000000 1.0
C      1  0.4635820000000  0.5458080000000  0.5452000000000 1.0
C      1  0.4696380000000  0.4549500000000  0.5451750000000 1.0
C      1  0.4641570000000  0.4536560000000  0.4541490000000 1.0
C      1  0.4690090000000  0.5430770000000  0.4542160000000 1.0
C      1  0.5374280000000  0.4605000000000  0.5383560000000 1.0
C      1  0.5310340000000  0.5464820000000  0.5493820000000 1.0
C      1  0.5367840000000  0.5390880000000  0.4617130000000 1.0
C      1  0.5315520000000  0.4532060000000  0.4507250000000 1.0
C      1  0.5016240000000  0.5572850000000  0.4993580000000 1.0
C      1  0.5023080000000  0.4421440000000  0.5001370000000 1.0
C      1  0.4997410000000  0.4976690000000  0.4430380000000 1.0
C      1  0.4996130000000  0.5018100000000  0.5570260000000 1.0
END
