TITL C-215599-6397-17 358320.342894165 125000 -339.28551966426 0 0 60 (C1) n - 1
REM
REM in /home/bkarasulu/work/CARBON/AIRSS/Generating-Clusters/AIREBO/Higher-Symm/Only-C60
REM
REM
REM
REM
REM
REM ./C.cell (28575a23ae977d3b5fae324c64b13b57)
REM AIRSS Version 0.9.1 bugfix July 2018 build 013d7b7c2542+ Fri, 06 Jul 2018 19:26:36 +0100
REM compiler GCC version 9.2.1 20190827 (Red Hat 9.2.1-1)
REM options -cpp -mtune=generic -march=x86-64 -g -O0 -fpre-include=/usr/include/finclude/math-vector-fortran.h
REM seed -1284851991 -2093936923 874377105 -701211985 -1655450803 -970586805 -277175792 1355410196 651663275 -1199608967 -2081259469 -113325848 1601197973 1646556073 -1679687162 2138612096 1175214269 1577656462 -583175116 1271450893 1347989629 954152810 -374121914 1541222845 -1021527218 410559852 488298657 267314146 -183168023 -1190466937 -1756661358 -1121742037 1279080772
REM
CELL 1.54180   50.00000   50.00000   50.00000   90.00000   90.00000   90.00000
LATT -1
SFAC C  
C      1  0.5054090000000  0.5411070000000  0.4753670000000 1.0
C      1  0.5063020000000  0.5377530000000  0.5257480000000 1.0
C      1  0.5070830000000  0.4626840000000  0.5731500000000 1.0
C      1  0.5072020000000  0.4571140000000  0.4227290000000 1.0
C      1  0.4781990000000  0.4417690000000  0.5381540000000 1.0
C      1  0.4817300000000  0.4405380000000  0.4614640000000 1.0
C      1  0.4825270000000  0.4576670000000  0.4381640000000 1.0
C      1  0.4811010000000  0.4612640000000  0.5608220000000 1.0
C      1  0.5010670000000  0.5138160000000  0.4768950000000 1.0
C      1  0.5017910000000  0.5109810000000  0.5218840000000 1.0
C      1  0.5257530000000  0.4602340000000  0.4739520000000 1.0
C      1  0.5201280000000  0.4619770000000  0.5307440000000 1.0
C      1  0.4501780000000  0.4704150000000  0.4756640000000 1.0
C      1  0.4454090000000  0.4606910000000  0.5253500000000 1.0
C      1  0.4594030000000  0.4385170000000  0.5108880000000 1.0
C      1  0.4614130000000  0.4446420000000  0.4819660000000 1.0
C      1  0.5190070000000  0.5786370000000  0.4776510000000 1.0
C      1  0.5150980000000  0.5766580000000  0.5282760000000 1.0
C      1  0.4966980000000  0.5380930000000  0.4365710000000 1.0
C      1  0.4994880000000  0.5366030000000  0.5647740000000 1.0
C      1  0.4534230000000  0.5509740000000  0.5430630000000 1.0
C      1  0.4527650000000  0.5551480000000  0.4600680000000 1.0
C      1  0.5576660000000  0.5308890000000  0.5110000000000 1.0
C      1  0.5560480000000  0.5308320000000  0.4789290000000 1.0
C      1  0.4963620000000  0.4709710000000  0.4872730000000 1.0
C      1  0.4945390000000  0.4780660000000  0.5174010000000 1.0
C      1  0.5073350000000  0.4346730000000  0.4710290000000 1.0
C      1  0.5052630000000  0.4350240000000  0.5316930000000 1.0
C      1  0.5236720000000  0.4780280000000  0.4285230000000 1.0
C      1  0.5235240000000  0.4848980000000  0.5670400000000 1.0
C      1  0.5482200000000  0.5168010000000  0.4563460000000 1.0
C      1  0.5470270000000  0.5198110000000  0.5375420000000 1.0
C      1  0.5326970000000  0.5324690000000  0.5587370000000 1.0
C      1  0.5298170000000  0.5304030000000  0.4372580000000 1.0
C      1  0.4533510000000  0.5126160000000  0.4871600000000 1.0
C      1  0.4510400000000  0.5099670000000  0.5140980000000 1.0
C      1  0.4631070000000  0.4861830000000  0.5275400000000 1.0
C      1  0.4753350000000  0.4930240000000  0.4722020000000 1.0
C      1  0.4412750000000  0.5304180000000  0.5301600000000 1.0
C      1  0.4425140000000  0.5325770000000  0.4711970000000 1.0
C      1  0.4709650000000  0.4879650000000  0.5571900000000 1.0
C      1  0.4790720000000  0.4891670000000  0.4409690000000 1.0
C      1  0.5183630000000  0.5106560000000  0.5765960000000 1.0
C      1  0.5081840000000  0.5054990000000  0.4340560000000 1.0
C      1  0.4895360000000  0.5754300000000  0.5141760000000 1.0
C      1  0.4917930000000  0.5769180000000  0.4865010000000 1.0
C      1  0.5124310000000  0.4136150000000  0.5155220000000 1.0
C      1  0.5129330000000  0.4133150000000  0.4881170000000 1.0
C      1  0.5334030000000  0.5523590000000  0.5188380000000 1.0
C      1  0.5342780000000  0.5521650000000  0.4867360000000 1.0
C      1  0.5408980000000  0.4874180000000  0.5395670000000 1.0
C      1  0.5387440000000  0.4852610000000  0.4566540000000 1.0
C      1  0.5245420000000  0.4989520000000  0.4831170000000 1.0
C      1  0.5281680000000  0.4977120000000  0.5102340000000 1.0
C      1  0.4789460000000  0.5103670000000  0.5699700000000 1.0
C      1  0.4723870000000  0.5178870000000  0.4240380000000 1.0
C      1  0.5488370000000  0.4560050000000  0.5166550000000 1.0
C      1  0.5492880000000  0.4504070000000  0.4920870000000 1.0
C      1  0.4838880000000  0.5553310000000  0.5412600000000 1.0
C      1  0.4833780000000  0.5586400000000  0.4592390000000 1.0
END
