TITL C-215597-6371-20 -0.00118384092473405 125000 -342.481017271814 0 0 60 (C1) n - 1
REM
REM in /home/bkarasulu/work/CARBON/AIRSS/Generating-Clusters/AIREBO/Higher-Symm/Only-C60
REM
REM
REM
REM
REM
REM ./C.cell (28575a23ae977d3b5fae324c64b13b57)
REM AIRSS Version 0.9.1 bugfix July 2018 build 013d7b7c2542+ Fri, 06 Jul 2018 19:26:36 +0100
REM compiler GCC version 9.2.1 20190827 (Red Hat 9.2.1-1)
REM options -cpp -mtune=generic -march=x86-64 -g -O0 -fpre-include=/usr/include/finclude/math-vector-fortran.h
REM seed -274017349 -1423195589 996888020 1787729301 1217458400 707518740 -189499667 1828597427 -1416533832 -576532976 -57043628 231715115 -1619769248 -1774543549 1752613275 -1684466805 -953456222 -1657730690 -1115960774 -791473430 1773254602 -1611330795 185042922 854250797 1036697408 1956901837 -1415867781 -159923444 1203966965 283767215 831557888 852696778 267102929
REM
CELL 1.54180   50.00000   50.00000   50.00000   90.00000   90.00000   90.00000
LATT -1
SFAC C  
C      1  0.5245670000000  0.4374060000000  0.4886030000000 1.0
C      1  0.5172880000000  0.4364730000000  0.5160710000000 1.0
C      1  0.4888040000000  0.4328570000000  0.5177130000000 1.0
C      1  0.4775720000000  0.4336880000000  0.4912180000000 1.0
C      1  0.5002750000000  0.4358600000000  0.4731580000000 1.0
C      1  0.5059960000000  0.5610100000000  0.5517430000000 1.0
C      1  0.4472540000000  0.5579040000000  0.5186940000000 1.0
C      1  0.4653750000000  0.5577970000000  0.4605500000000 1.0
C      1  0.5312730000000  0.5520100000000  0.4474910000000 1.0
C      1  0.5577550000000  0.5523170000000  0.5120630000000 1.0
C      1  0.5484340000000  0.4580440000000  0.4804730000000 1.0
C      1  0.5337260000000  0.4543090000000  0.5376510000000 1.0
C      1  0.4728200000000  0.4475070000000  0.5407930000000 1.0
C      1  0.4524960000000  0.4563050000000  0.4871270000000 1.0
C      1  0.4986000000000  0.4560050000000  0.4484790000000 1.0
C      1  0.4784470000000  0.5635040000000  0.5094320000000 1.0
C      1  0.4851950000000  0.5659420000000  0.4782410000000 1.0
C      1  0.5164110000000  0.5580690000000  0.4746380000000 1.0
C      1  0.5275770000000  0.5568220000000  0.5062580000000 1.0
C      1  0.5041250000000  0.5673440000000  0.5254120000000 1.0
C      1  0.5691830000000  0.4637890000000  0.5038850000000 1.0
C      1  0.5186040000000  0.4534520000000  0.5647750000000 1.0
C      1  0.4435870000000  0.4593750000000  0.5346100000000 1.0
C      1  0.4483990000000  0.4624840000000  0.4566540000000 1.0
C      1  0.5267290000000  0.4609880000000  0.4352120000000 1.0
C      1  0.5573600000000  0.5075800000000  0.5345340000000 1.0
C      1  0.4817010000000  0.5205390000000  0.5654670000000 1.0
C      1  0.4306460000000  0.5122600000000  0.5081580000000 1.0
C      1  0.4715690000000  0.5069830000000  0.4384160000000 1.0
C      1  0.5496810000000  0.5050820000000  0.4534390000000 1.0
C      1  0.5320350000000  0.5201670000000  0.5548170000000 1.0
C      1  0.4541130000000  0.5271240000000  0.5550910000000 1.0
C      1  0.4302390000000  0.5209240000000  0.4814060000000 1.0
C      1  0.5045500000000  0.5155930000000  0.4330400000000 1.0
C      1  0.5616860000000  0.5153280000000  0.4838900000000 1.0
C      1  0.5074780000000  0.5345510000000  0.5623890000000 1.0
C      1  0.4402640000000  0.5315940000000  0.5289730000000 1.0
C      1  0.4523460000000  0.5271850000000  0.4580100000000 1.0
C      1  0.5306820000000  0.5260140000000  0.4380570000000 1.0
C      1  0.5659510000000  0.5260080000000  0.5099910000000 1.0
C      1  0.4851380000000  0.4912490000000  0.5531280000000 1.0
C      1  0.4683340000000  0.5003150000000  0.5057060000000 1.0
C      1  0.4952760000000  0.5005000000000  0.4599790000000 1.0
C      1  0.5306910000000  0.5057830000000  0.4798990000000 1.0
C      1  0.5267150000000  0.5026630000000  0.5280730000000 1.0
C      1  0.5191300000000  0.4763160000000  0.5190500000000 1.0
C      1  0.4894890000000  0.4721850000000  0.5246960000000 1.0
C      1  0.4779500000000  0.4733000000000  0.4952080000000 1.0
C      1  0.4985690000000  0.4757360000000  0.4742690000000 1.0
C      1  0.5246160000000  0.4773480000000  0.4894150000000 1.0
C      1  0.5105390000000  0.5276200000000  0.4850220000000 1.0
C      1  0.5124390000000  0.5289620000000  0.5165980000000 1.0
C      1  0.4879470000000  0.5119000000000  0.5273920000000 1.0
C      1  0.4747140000000  0.5328190000000  0.5042660000000 1.0
C      1  0.4791800000000  0.5231470000000  0.4747810000000 1.0
C      1  0.4414250000000  0.4800200000000  0.5096560000000 1.0
C      1  0.4707240000000  0.4735080000000  0.4436630000000 1.0
C      1  0.5462580000000  0.4727430000000  0.4517440000000 1.0
C      1  0.5580620000000  0.4741840000000  0.5278000000000 1.0
C      1  0.4920130000000  0.4615100000000  0.5630340000000 1.0
END
