TITL C-215596-6355-33 -6658.51801082212 125000 -338.290255413615 0 0 60 (C1) n - 1
REM
REM in /home/bkarasulu/work/CARBON/AIRSS/Generating-Clusters/AIREBO/Higher-Symm/Only-C60
REM
REM
REM
REM
REM
REM ./C.cell (28575a23ae977d3b5fae324c64b13b57)
REM AIRSS Version 0.9.1 bugfix July 2018 build 013d7b7c2542+ Fri, 06 Jul 2018 19:26:36 +0100
REM compiler GCC version 9.2.1 20190827 (Red Hat 9.2.1-1)
REM options -cpp -mtune=generic -march=x86-64 -g -O0 -fpre-include=/usr/include/finclude/math-vector-fortran.h
REM seed 472502660 -183968766 -136189764 786169088 -185104858 -2074587576 -4116683 -1462511427 -1087979167 -465464210 -1480988114 2003491722 -2026504426 -742478891 682874670 1859089494 -1618700280 265095641 -1518431220 911761669 -608953001 -222873468 -950792578 1308674455 76476135 890968036 25661865 2023646645 -1446108452 -507022720 293321190 422400192 -23888030
REM
CELL 1.54180   50.00000   50.00000   50.00000   90.00000   90.00000   90.00000
LATT -1
SFAC C  
C      1  0.5357020000000  0.5537260000000  0.4810910000000 1.0
C      1  0.4521180000000  0.5403840000000  0.4859690000000 1.0
C      1  0.4375310000000  0.4546390000000  0.4853810000000 1.0
C      1  0.5155890000000  0.4455290000000  0.4790340000000 1.0
C      1  0.5787660000000  0.4967880000000  0.4855210000000 1.0
C      1  0.5342720000000  0.5551590000000  0.5134340000000 1.0
C      1  0.4519270000000  0.5381330000000  0.5190790000000 1.0
C      1  0.4228980000000  0.4685220000000  0.5101280000000 1.0
C      1  0.5169250000000  0.4420090000000  0.5128250000000 1.0
C      1  0.5743740000000  0.4921050000000  0.5159390000000 1.0
C      1  0.5455200000000  0.4522300000000  0.5043930000000 1.0
C      1  0.5717730000000  0.5233120000000  0.5143720000000 1.0
C      1  0.5041610000000  0.5676740000000  0.5164580000000 1.0
C      1  0.4256980000000  0.5221270000000  0.5095170000000 1.0
C      1  0.4672060000000  0.4225970000000  0.5165210000000 1.0
C      1  0.5460750000000  0.4602110000000  0.4750750000000 1.0
C      1  0.5772590000000  0.5288240000000  0.4842430000000 1.0
C      1  0.5063420000000  0.5640140000000  0.4865900000000 1.0
C      1  0.4297730000000  0.5151970000000  0.4804510000000 1.0
C      1  0.4617520000000  0.4324860000000  0.4901060000000 1.0
C      1  0.5075030000000  0.5251610000000  0.4287780000000 1.0
C      1  0.4832630000000  0.5088630000000  0.4376790000000 1.0
C      1  0.4930360000000  0.4812640000000  0.4406480000000 1.0
C      1  0.5169900000000  0.4807740000000  0.4236680000000 1.0
C      1  0.5303340000000  0.5067370000000  0.4265940000000 1.0
C      1  0.5020650000000  0.5254340000000  0.5702200000000 1.0
C      1  0.4815330000000  0.5031600000000  0.5655880000000 1.0
C      1  0.4983610000000  0.4787780000000  0.5625940000000 1.0
C      1  0.5227320000000  0.4841630000000  0.5777870000000 1.0
C      1  0.5287150000000  0.5129570000000  0.5770680000000 1.0
C      1  0.5229200000000  0.5131250000000  0.4741400000000 1.0
C      1  0.4923650000000  0.5183210000000  0.4861430000000 1.0
C      1  0.4707750000000  0.4987260000000  0.4741850000000 1.0
C      1  0.4736480000000  0.4706570000000  0.4905490000000 1.0
C      1  0.5162090000000  0.4862940000000  0.4880030000000 1.0
C      1  0.5212000000000  0.5121450000000  0.5276880000000 1.0
C      1  0.4919830000000  0.5195730000000  0.5159660000000 1.0
C      1  0.4684490000000  0.5030400000000  0.5279650000000 1.0
C      1  0.4744310000000  0.4734570000000  0.5194200000000 1.0
C      1  0.5241320000000  0.4839510000000  0.5177240000000 1.0
C      1  0.4194870000000  0.4984990000000  0.5234310000000 1.0
C      1  0.4894160000000  0.4313570000000  0.5295880000000 1.0
C      1  0.5540800000000  0.4742800000000  0.5217900000000 1.0
C      1  0.5517470000000  0.5378890000000  0.5283990000000 1.0
C      1  0.4778810000000  0.5561150000000  0.5316980000000 1.0
C      1  0.4296970000000  0.4876580000000  0.4759500000000 1.0
C      1  0.4846290000000  0.4322940000000  0.4741840000000 1.0
C      1  0.5589500000000  0.4843860000000  0.4681670000000 1.0
C      1  0.5544400000000  0.5368750000000  0.4686300000000 1.0
C      1  0.4793200000000  0.5543780000000  0.4712390000000 1.0
C      1  0.4648800000000  0.5257220000000  0.4580730000000 1.0
C      1  0.4551500000000  0.4714130000000  0.4619810000000 1.0
C      1  0.4974490000000  0.4696480000000  0.4683200000000 1.0
C      1  0.5457050000000  0.5091020000000  0.4526430000000 1.0
C      1  0.5037390000000  0.5355300000000  0.4590130000000 1.0
C      1  0.4660750000000  0.5280950000000  0.5483220000000 1.0
C      1  0.4451910000000  0.4794950000000  0.5322480000000 1.0
C      1  0.5014280000000  0.4641420000000  0.5334860000000 1.0
C      1  0.5401850000000  0.5231790000000  0.5520190000000 1.0
C      1  0.5042470000000  0.5376950000000  0.5422850000000 1.0
END
