TITL C-215599-6397-28 -6.11083210047694e-05 125000 -364.769565335792 0 0 60 (C1) n - 1
REM
REM in /home/bkarasulu/work/CARBON/AIRSS/Generating-Clusters/AIREBO/Higher-Symm/Only-C60
REM
REM
REM
REM
REM
REM ./C.cell (28575a23ae977d3b5fae324c64b13b57)
REM AIRSS Version 0.9.1 bugfix July 2018 build 013d7b7c2542+ Fri, 06 Jul 2018 19:26:36 +0100
REM compiler GCC version 9.2.1 20190827 (Red Hat 9.2.1-1)
REM options -cpp -mtune=generic -march=x86-64 -g -O0 -fpre-include=/usr/include/finclude/math-vector-fortran.h
REM seed -84754202 1165681850 666376935 1826858952 -1778172591 422558356 -408270678 -2038486251 1583138799 -179025082 1932493974 119889802 1289047909 -696660536 822168339 1139072333 -1426726214 -345180972 94215173 1551073857 1120144337 1866691769 1334733755 544002224 523330547 -752127344 -1691064831 -1942047474 -689780422 -598473016 493339819 738102116 2007565091
REM
CELL 1.54180   50.00000   50.00000   50.00000   90.00000   90.00000   90.00000
LATT -1
SFAC C  
C      1  0.5456390000000  0.5136150000000  0.5804150000000 1.0
C      1  0.5940050000000  0.5133460000000  0.5022440000000 1.0
C      1  0.5464670000000  0.5129430000000  0.4190560000000 1.0
C      1  0.4534420000000  0.5126800000000  0.4170060000000 1.0
C      1  0.4078660000000  0.5125960000000  0.5009650000000 1.0
C      1  0.4547090000000  0.5132890000000  0.5807550000000 1.0
C      1  0.5445440000000  0.4859620000000  0.4195400000000 1.0
C      1  0.5924470000000  0.4864270000000  0.5000340000000 1.0
C      1  0.5474530000000  0.4866480000000  0.5792500000000 1.0
C      1  0.4553710000000  0.4862880000000  0.5823040000000 1.0
C      1  0.4071870000000  0.4855550000000  0.5013050000000 1.0
C      1  0.4587170000000  0.4861220000000  0.4168870000000 1.0
C      1  0.5279690000000  0.5469200000000  0.5452930000000 1.0
C      1  0.5586420000000  0.5493740000000  0.4973300000000 1.0
C      1  0.5252480000000  0.5473400000000  0.4508500000000 1.0
C      1  0.4680730000000  0.5478480000000  0.4512400000000 1.0
C      1  0.4473990000000  0.5457350000000  0.5043360000000 1.0
C      1  0.4764070000000  0.5460590000000  0.5470880000000 1.0
C      1  0.5269860000000  0.4538310000000  0.4561280000000 1.0
C      1  0.5520340000000  0.4539640000000  0.5015510000000 1.0
C      1  0.5256000000000  0.4532260000000  0.5465660000000 1.0
C      1  0.4686920000000  0.4504700000000  0.5487610000000 1.0
C      1  0.4459510000000  0.4522770000000  0.4963840000000 1.0
C      1  0.4753420000000  0.4530830000000  0.4529940000000 1.0
C      1  0.4613980000000  0.4637550000000  0.4318460000000 1.0
C      1  0.4208990000000  0.4633660000000  0.4939870000000 1.0
C      1  0.4563110000000  0.4638580000000  0.5672890000000 1.0
C      1  0.5353400000000  0.4644170000000  0.5696900000000 1.0
C      1  0.5769660000000  0.4648770000000  0.5052100000000 1.0
C      1  0.5422230000000  0.4646470000000  0.4360200000000 1.0
C      1  0.4672900000000  0.5349010000000  0.5704630000000 1.0
C      1  0.4226950000000  0.5342070000000  0.5076750000000 1.0
C      1  0.4552370000000  0.5341850000000  0.4332700000000 1.0
C      1  0.5344680000000  0.5355940000000  0.4277820000000 1.0
C      1  0.5810520000000  0.5362390000000  0.4960610000000 1.0
C      1  0.5433360000000  0.5359110000000  0.5652390000000 1.0
C      1  0.4858180000000  0.4323560000000  0.4740780000000 1.0
C      1  0.4690930000000  0.4313060000000  0.4971660000000 1.0
C      1  0.4834210000000  0.4301670000000  0.5257930000000 1.0
C      1  0.5153230000000  0.4318520000000  0.5263150000000 1.0
C      1  0.5288860000000  0.4328700000000  0.5012610000000 1.0
C      1  0.5147370000000  0.4329000000000  0.4759650000000 1.0
C      1  0.4866770000000  0.5672150000000  0.5261950000000 1.0
C      1  0.4700690000000  0.5672910000000  0.5029090000000 1.0
C      1  0.4832360000000  0.5684860000000  0.4736430000000 1.0
C      1  0.5149460000000  0.5691600000000  0.4706340000000 1.0
C      1  0.5311170000000  0.5693430000000  0.4982260000000 1.0
C      1  0.5152620000000  0.5680380000000  0.5260270000000 1.0
C      1  0.5138040000000  0.4728280000000  0.4767390000000 1.0
C      1  0.4854340000000  0.4722830000000  0.4750050000000 1.0
C      1  0.4699280000000  0.4712080000000  0.4983260000000 1.0
C      1  0.4845850000000  0.4637750000000  0.5229480000000 1.0
C      1  0.5130250000000  0.4717130000000  0.5256450000000 1.0
C      1  0.5275040000000  0.4727850000000  0.5016290000000 1.0
C      1  0.5160000000000  0.5281540000000  0.5241440000000 1.0
C      1  0.4878620000000  0.5273250000000  0.5251630000000 1.0
C      1  0.4719290000000  0.5274140000000  0.5019550000000 1.0
C      1  0.4851450000000  0.5349370000000  0.4763670000000 1.0
C      1  0.5142440000000  0.5293140000000  0.4728720000000 1.0
C      1  0.5285470000000  0.5357250000000  0.4981780000000 1.0
END
