TITL C-215600-6406-32 148987.157982443 125000 -336.845907477361 0 0 60 (C1) n - 1
REM
REM in /home/bkarasulu/work/CARBON/AIRSS/Generating-Clusters/AIREBO/Higher-Symm/Only-C60
REM
REM
REM
REM
REM
REM ./C.cell (28575a23ae977d3b5fae324c64b13b57)
REM AIRSS Version 0.9.1 bugfix July 2018 build 013d7b7c2542+ Fri, 06 Jul 2018 19:26:36 +0100
REM compiler GCC version 9.2.1 20190827 (Red Hat 9.2.1-1)
REM options -cpp -mtune=generic -march=x86-64 -g -O0 -fpre-include=/usr/include/finclude/math-vector-fortran.h
REM seed -1229491766 1559219755 -1768580919 939931449 1539684757 -573034664 2061664978 -1448180101 -945288390 -989140269 1774865445 -642413221 -1494412016 1851891277 -543389102 -1892749502 620554336 1807755326 1598277531 1585229631 -227960703 -1429103638 -1802711741 2040675763 -1340176179 -2012199255 -39889351 -1119426933 1665904820 2134477722 -1699750554 -746851727 -76181477
REM
CELL 1.54180   50.00000   50.00000   50.00000   90.00000   90.00000   90.00000
LATT -1
SFAC C  
C      1  0.5458430000000  0.5039340000000  0.5770820000000 1.0
C      1  0.5851250000000  0.4892130000000  0.5105460000000 1.0
C      1  0.5474820000000  0.4878850000000  0.4412060000000 1.0
C      1  0.4839120000000  0.4895370000000  0.4183660000000 1.0
C      1  0.4244570000000  0.4952490000000  0.4525190000000 1.0
C      1  0.4222160000000  0.4893740000000  0.5304520000000 1.0
C      1  0.4716330000000  0.5064270000000  0.5875230000000 1.0
C      1  0.4771950000000  0.5341770000000  0.4411070000000 1.0
C      1  0.4358950000000  0.5351670000000  0.4774700000000 1.0
C      1  0.4449250000000  0.5294620000000  0.5364950000000 1.0
C      1  0.4980320000000  0.5349330000000  0.5602680000000 1.0
C      1  0.5402970000000  0.5372060000000  0.5440780000000 1.0
C      1  0.5780190000000  0.5287140000000  0.4843240000000 1.0
C      1  0.5292500000000  0.5366070000000  0.4443480000000 1.0
C      1  0.5184570000000  0.4969550000000  0.5797370000000 1.0
C      1  0.5650850000000  0.4989100000000  0.5311900000000 1.0
C      1  0.5613280000000  0.4875020000000  0.4677530000000 1.0
C      1  0.5110010000000  0.4897200000000  0.4252390000000 1.0
C      1  0.4536330000000  0.4882080000000  0.4443870000000 1.0
C      1  0.4267050000000  0.4945660000000  0.5028610000000 1.0
C      1  0.4608330000000  0.4946860000000  0.5636960000000 1.0
C      1  0.4683600000000  0.5128620000000  0.4279300000000 1.0
C      1  0.4222580000000  0.5100810000000  0.4767430000000 1.0
C      1  0.4383010000000  0.5044110000000  0.5490060000000 1.0
C      1  0.4980520000000  0.5172230000000  0.5831740000000 1.0
C      1  0.5543290000000  0.5141130000000  0.5519380000000 1.0
C      1  0.5809190000000  0.4987860000000  0.4838490000000 1.0
C      1  0.5324830000000  0.5129330000000  0.4295770000000 1.0
C      1  0.5157850000000  0.5411780000000  0.5249720000000 1.0
C      1  0.5510020000000  0.5221510000000  0.4962760000000 1.0
C      1  0.5153500000000  0.5465000000000  0.4713960000000 1.0
C      1  0.4888180000000  0.5299540000000  0.4698870000000 1.0
C      1  0.4652790000000  0.5403780000000  0.4883740000000 1.0
C      1  0.4670880000000  0.5241560000000  0.5149690000000 1.0
C      1  0.4919810000000  0.5185070000000  0.5318570000000 1.0
C      1  0.5209580000000  0.4709470000000  0.4475130000000 1.0
C      1  0.4637730000000  0.4665690000000  0.4198430000000 1.0
C      1  0.4654140000000  0.4530410000000  0.4786710000000 1.0
C      1  0.4636640000000  0.4283170000000  0.4847360000000 1.0
C      1  0.4792620000000  0.4657740000000  0.5277770000000 1.0
C      1  0.5269990000000  0.4617360000000  0.5463600000000 1.0
C      1  0.5426760000000  0.4665460000000  0.5248370000000 1.0
C      1  0.5282670000000  0.4877980000000  0.4761280000000 1.0
C      1  0.4961470000000  0.4990240000000  0.4752720000000 1.0
C      1  0.4673440000000  0.4828980000000  0.4718040000000 1.0
C      1  0.4560320000000  0.5005280000000  0.4957570000000 1.0
C      1  0.4853260000000  0.4877650000000  0.5449340000000 1.0
C      1  0.5098150000000  0.4783960000000  0.5606500000000 1.0
C      1  0.5457500000000  0.4912280000000  0.5042860000000 1.0
C      1  0.4832230000000  0.5831980000000  0.4737720000000 1.0
C      1  0.4696540000000  0.5695060000000  0.4943790000000 1.0
C      1  0.4787240000000  0.5746870000000  0.5206220000000 1.0
C      1  0.5059120000000  0.5700350000000  0.5266820000000 1.0
C      1  0.5243510000000  0.5891500000000  0.5165790000000 1.0
C      1  0.5279780000000  0.5912310000000  0.4890250000000 1.0
C      1  0.5106740000000  0.5765910000000  0.4720300000000 1.0
C      1  0.5013070000000  0.4449600000000  0.5010170000000 1.0
C      1  0.5012250000000  0.4202740000000  0.5098030000000 1.0
C      1  0.5283910000000  0.5380080000000  0.4972360000000 1.0
C      1  0.4988410000000  0.4698890000000  0.4925970000000 1.0
END
