TITL C-215599-6397-13 -250114.893390655 125000 -314.839712376225 0 0 60 (C1) n - 1
REM
REM in /home/bkarasulu/work/CARBON/AIRSS/Generating-Clusters/AIREBO/Higher-Symm/Only-C60
REM
REM
REM
REM
REM
REM ./C.cell (28575a23ae977d3b5fae324c64b13b57)
REM AIRSS Version 0.9.1 bugfix July 2018 build 013d7b7c2542+ Fri, 06 Jul 2018 19:26:36 +0100
REM compiler GCC version 9.2.1 20190827 (Red Hat 9.2.1-1)
REM options -cpp -mtune=generic -march=x86-64 -g -O0 -fpre-include=/usr/include/finclude/math-vector-fortran.h
REM seed -1538388820 990238307 -1284102318 -1822842968 658220790 1797574414 -577414370 2054698441 13535773 -1969218486 -1037405161 891931406 1558470498 92158040 -265472998 726691978 -1769104504 -47968984 627220925 184262535 -1757438178 -1113387249 -471719010 387796713 -2101892977 1409175060 1785804381 -302413263 387761750 -1825535769 767439903 -729203621 977609056
REM
CELL 1.54180   50.00000   50.00000   50.00000   90.00000   90.00000   90.00000
LATT -1
SFAC C  
C      1  0.5009660000000  0.5924160000000  0.5133110000000 1.0
C      1  0.5015250000000  0.5222990000000  0.4345510000000 1.0
C      1  0.5137370000000  0.4418920000000  0.4423400000000 1.0
C      1  0.4940610000000  0.4233170000000  0.5468100000000 1.0
C      1  0.5021060000000  0.5212960000000  0.5767030000000 1.0
C      1  0.5275050000000  0.5201070000000  0.5959750000000 1.0
C      1  0.5274190000000  0.5851180000000  0.5105420000000 1.0
C      1  0.5260650000000  0.5309740000000  0.4164600000000 1.0
C      1  0.5428220000000  0.4382890000000  0.4312170000000 1.0
C      1  0.5215160000000  0.4260790000000  0.5475710000000 1.0
C      1  0.5577730000000  0.4804360000000  0.4736960000000 1.0
C      1  0.5540580000000  0.4653340000000  0.5102450000000 1.0
C      1  0.5521790000000  0.4952810000000  0.5359760000000 1.0
C      1  0.5515710000000  0.5289440000000  0.5153710000000 1.0
C      1  0.5478250000000  0.5182670000000  0.4775310000000 1.0
C      1  0.5260890000000  0.4720960000000  0.4828360000000 1.0
C      1  0.5229530000000  0.4716540000000  0.5224830000000 1.0
C      1  0.5224290000000  0.5096740000000  0.5346480000000 1.0
C      1  0.5204050000000  0.5329500000000  0.5023610000000 1.0
C      1  0.5161430000000  0.5084730000000  0.4700180000000 1.0
C      1  0.4914970000000  0.4351810000000  0.4989530000000 1.0
C      1  0.4917000000000  0.4756470000000  0.5620310000000 1.0
C      1  0.4817830000000  0.5419660000000  0.5249420000000 1.0
C      1  0.4911240000000  0.5490770000000  0.4625680000000 1.0
C      1  0.4724350000000  0.4744860000000  0.4541700000000 1.0
C      1  0.5326640000000  0.5092980000000  0.4418110000000 1.0
C      1  0.5388080000000  0.4468460000000  0.4639290000000 1.0
C      1  0.5369380000000  0.4486270000000  0.5430750000000 1.0
C      1  0.5329560000000  0.5238490000000  0.5626260000000 1.0
C      1  0.5372860000000  0.5622280000000  0.4986000000000 1.0
C      1  0.4535860000000  0.5063810000000  0.5513490000000 1.0
C      1  0.4518470000000  0.5521310000000  0.5124310000000 1.0
C      1  0.4443430000000  0.5269640000000  0.4589220000000 1.0
C      1  0.4451860000000  0.4736340000000  0.4635130000000 1.0
C      1  0.4505420000000  0.4566590000000  0.5207220000000 1.0
C      1  0.5544740000000  0.4718920000000  0.5496800000000 1.0
C      1  0.5541430000000  0.5357930000000  0.5420940000000 1.0
C      1  0.5519000000000  0.5452750000000  0.4788900000000 1.0
C      1  0.5578070000000  0.4919500000000  0.4478110000000 1.0
C      1  0.5557070000000  0.4447820000000  0.4915090000000 1.0
C      1  0.4436390000000  0.4629360000000  0.4920560000000 1.0
C      1  0.4464050000000  0.4801290000000  0.5387240000000 1.0
C      1  0.4459560000000  0.5300110000000  0.5376790000000 1.0
C      1  0.4404600000000  0.5431230000000  0.4816760000000 1.0
C      1  0.4320850000000  0.4998840000000  0.4570240000000 1.0
C      1  0.4732300000000  0.5256050000000  0.4501740000000 1.0
C      1  0.4895880000000  0.4528570000000  0.4540190000000 1.0
C      1  0.4772280000000  0.4423640000000  0.5257010000000 1.0
C      1  0.4839290000000  0.5052540000000  0.5591040000000 1.0
C      1  0.4807330000000  0.5699090000000  0.5082260000000 1.0
C      1  0.5026280000000  0.4505510000000  0.4803960000000 1.0
C      1  0.4981970000000  0.4622870000000  0.5392140000000 1.0
C      1  0.4916130000000  0.5145510000000  0.5281810000000 1.0
C      1  0.4974770000000  0.5501500000000  0.4891120000000 1.0
C      1  0.4859990000000  0.5000710000000  0.4639520000000 1.0
C      1  0.4852420000000  0.5019690000000  0.4978900000000 1.0
C      1  0.4546920000000  0.5014830000000  0.5027870000000 1.0
C      1  0.5588250000000  0.4981880000000  0.5027180000000 1.0
C      1  0.5190620000000  0.4989390000000  0.5025350000000 1.0
C      1  0.4292370000000  0.5063600000000  0.5045170000000 1.0
END
