TITL C-215603-6394-20 -897.518958975656 125000 -338.764373345983 0 0 60 (C1) n - 1
REM
REM in /home/bkarasulu/work/CARBON/AIRSS/Generating-Clusters/AIREBO/Higher-Symm/Only-C60
REM
REM
REM
REM
REM
REM ./C.cell (28575a23ae977d3b5fae324c64b13b57)
REM AIRSS Version 0.9.1 bugfix July 2018 build 013d7b7c2542+ Fri, 06 Jul 2018 19:26:36 +0100
REM compiler GCC version 9.2.1 20190827 (Red Hat 9.2.1-1)
REM options -cpp -mtune=generic -march=x86-64 -g -O0 -fpre-include=/usr/include/finclude/math-vector-fortran.h
REM seed -1855612094 -16850223 339572360 -1251335749 -1189939638 2002015223 1567480023 -1074712611 257309514 1505679800 -919488761 1915185233 -2111431628 57657258 775692979 1546757169 -236719635 -941352136 -136939490 1403602158 -1948788864 636723245 1549972006 424097310 -949981162 -1638996955 1593666221 2027441595 1168313546 -1693807348 1994564060 -1691544162 -2108767754
REM
CELL 1.54180   50.00000   50.00000   50.00000   90.00000   90.00000   90.00000
LATT -1
SFAC C  
C      1  0.5575530000000  0.4611490000000  0.4796530000000 1.0
C      1  0.4657740000000  0.4781710000000  0.5611810000000 1.0
C      1  0.4776940000000  0.5644730000000  0.4595790000000 1.0
C      1  0.4399280000000  0.5428400000000  0.4840600000000 1.0
C      1  0.5568680000000  0.5406620000000  0.5202920000000 1.0
C      1  0.4417130000000  0.4611660000000  0.5211500000000 1.0
C      1  0.5413400000000  0.5171230000000  0.5612150000000 1.0
C      1  0.4600730000000  0.5207020000000  0.4421140000000 1.0
C      1  0.5414750000000  0.4760060000000  0.4346320000000 1.0
C      1  0.5191470000000  0.4385850000000  0.4580830000000 1.0
C      1  0.4800260000000  0.4348920000000  0.5421560000000 1.0
C      1  0.5185070000000  0.5592690000000  0.5452300000000 1.0
C      1  0.4577600000000  0.5670930000000  0.4787250000000 1.0
C      1  0.4857400000000  0.4587160000000  0.5600650000000 1.0
C      1  0.5601710000000  0.4791290000000  0.4581950000000 1.0
C      1  0.5403040000000  0.4363960000000  0.4765970000000 1.0
C      1  0.5382000000000  0.5632570000000  0.5258830000000 1.0
C      1  0.4598920000000  0.4372660000000  0.5237020000000 1.0
C      1  0.5220170000000  0.5365890000000  0.5640440000000 1.0
C      1  0.5218460000000  0.4565960000000  0.4343950000000 1.0
C      1  0.4804970000000  0.5395230000000  0.4427900000000 1.0
C      1  0.4383180000000  0.5240040000000  0.4634190000000 1.0
C      1  0.4441060000000  0.4815230000000  0.5398250000000 1.0
C      1  0.5621260000000  0.5206500000000  0.5393760000000 1.0
C      1  0.4875060000000  0.4404240000000  0.4697660000000 1.0
C      1  0.4421400000000  0.4703190000000  0.4889370000000 1.0
C      1  0.4683060000000  0.4874830000000  0.4403130000000 1.0
C      1  0.5073060000000  0.5512630000000  0.4698190000000 1.0
C      1  0.4866840000000  0.5598350000000  0.5353450000000 1.0
C      1  0.5114430000000  0.4455020000000  0.5326410000000 1.0
C      1  0.5521880000000  0.5291210000000  0.4912200000000 1.0
C      1  0.4394840000000  0.5372980000000  0.5142930000000 1.0
C      1  0.5510530000000  0.4759550000000  0.5088660000000 1.0
C      1  0.5326600000000  0.5060190000000  0.4477560000000 1.0
C      1  0.4671680000000  0.5110130000000  0.5532910000000 1.0
C      1  0.5288540000000  0.4876180000000  0.5563400000000 1.0
C      1  0.4480690000000  0.4923960000000  0.4671990000000 1.0
C      1  0.4682380000000  0.4501360000000  0.4937500000000 1.0
C      1  0.4915340000000  0.4653250000000  0.4475880000000 1.0
C      1  0.5595350000000  0.5116280000000  0.4670680000000 1.0
C      1  0.5543550000000  0.4905880000000  0.5346480000000 1.0
C      1  0.4466160000000  0.5112890000000  0.5261810000000 1.0
C      1  0.5320980000000  0.5550080000000  0.4923580000000 1.0
C      1  0.5359260000000  0.4462340000000  0.5096290000000 1.0
C      1  0.4660410000000  0.5571430000000  0.5104920000000 1.0
C      1  0.5121490000000  0.5299160000000  0.4437790000000 1.0
C      1  0.5159780000000  0.4621570000000  0.5609110000000 1.0
C      1  0.4926310000000  0.5291910000000  0.5489490000000 1.0
C      1  0.4838520000000  0.4938090000000  0.5291250000000 1.0
C      1  0.4936860000000  0.5041400000000  0.4559270000000 1.0
C      1  0.5077050000000  0.4515860000000  0.4939180000000 1.0
C      1  0.5157860000000  0.4819310000000  0.4646780000000 1.0
C      1  0.5352160000000  0.4936680000000  0.4856950000000 1.0
C      1  0.4825540000000  0.5373770000000  0.4885500000000 1.0
C      1  0.4737210000000  0.5111920000000  0.4792420000000 1.0
C      1  0.5289980000000  0.5136620000000  0.5107050000000 1.0
C      1  0.4630060000000  0.4930100000000  0.5039600000000 1.0
C      1  0.5133970000000  0.5069340000000  0.5345000000000 1.0
C      1  0.4882410000000  0.4648540000000  0.5169870000000 1.0
C      1  0.5048000000000  0.5491940000000  0.5092130000000 1.0
END
