TITL C-215599-6397-41 0.191917488628325 125000 -326.650825699565 0 0 60 (C1) n - 1
REM
REM in /home/bkarasulu/work/CARBON/AIRSS/Generating-Clusters/AIREBO/Higher-Symm/Only-C60
REM
REM
REM
REM
REM
REM ./C.cell (28575a23ae977d3b5fae324c64b13b57)
REM AIRSS Version 0.9.1 bugfix July 2018 build 013d7b7c2542+ Fri, 06 Jul 2018 19:26:36 +0100
REM compiler GCC version 9.2.1 20190827 (Red Hat 9.2.1-1)
REM options -cpp -mtune=generic -march=x86-64 -g -O0 -fpre-include=/usr/include/finclude/math-vector-fortran.h
REM seed -2017385998 914881616 -277175615 -358906721 -2122363984 148693368 -1816319696 -808292780 370282899 1880687912 -1311075083 983613800 1905526311 231699892 -254118261 -390717889 205535692 -419457524 1950304083 1408621671 1715554570 -1536789974 1260252250 -1721505551 -453565245 -781253581 1239459822 1975974445 45013218 811515501 1275715121 -1054050901 -1717082568
REM
CELL 1.54180   50.00000   50.00000   50.00000   90.00000   90.00000   90.00000
LATT -1
SFAC C  
C      1  0.4618020000000  0.4973810000000  0.4409040000000 1.0
C      1  0.5095460000000  0.4662060000000  0.5501130000000 1.0
C      1  0.4984610000000  0.5414810000000  0.4455430000000 1.0
C      1  0.5188630000000  0.5303100000000  0.5529660000000 1.0
C      1  0.4632860000000  0.4788730000000  0.5541090000000 1.0
C      1  0.5023800000000  0.4621180000000  0.4441280000000 1.0
C      1  0.4791570000000  0.5339520000000  0.5511060000000 1.0
C      1  0.5393330000000  0.5056630000000  0.4370060000000 1.0
C      1  0.5210780000000  0.5160390000000  0.5233130000000 1.0
C      1  0.4937620000000  0.5196700000000  0.4705260000000 1.0
C      1  0.5151190000000  0.4844420000000  0.5220440000000 1.0
C      1  0.4761250000000  0.4906930000000  0.4685280000000 1.0
C      1  0.5267280000000  0.5123540000000  0.4654470000000 1.0
C      1  0.4874550000000  0.5145550000000  0.5248930000000 1.0
C      1  0.5093280000000  0.4833770000000  0.4692700000000 1.0
C      1  0.4814840000000  0.4826950000000  0.5270400000000 1.0
C      1  0.5729780000000  0.4553080000000  0.5022670000000 1.0
C      1  0.4191010000000  0.4178970000000  0.5209120000000 1.0
C      1  0.5732190000000  0.5460430000000  0.5137170000000 1.0
C      1  0.4105510000000  0.5633230000000  0.5040550000000 1.0
C      1  0.5952670000000  0.4467390000000  0.4932520000000 1.0
C      1  0.4358860000000  0.4369310000000  0.5182520000000 1.0
C      1  0.5724580000000  0.5470090000000  0.4883930000000 1.0
C      1  0.4315870000000  0.5498710000000  0.5093190000000 1.0
C      1  0.4365230000000  0.4858200000000  0.4710030000000 1.0
C      1  0.5594190000000  0.4866040000000  0.5371430000000 1.0
C      1  0.4394320000000  0.5107910000000  0.4711730000000 1.0
C      1  0.5545320000000  0.5098660000000  0.5443170000000 1.0
C      1  0.4357960000000  0.4841730000000  0.5255720000000 1.0
C      1  0.5621100000000  0.4915110000000  0.4666690000000 1.0
C      1  0.4397350000000  0.5084220000000  0.5289630000000 1.0
C      1  0.5665010000000  0.5159810000000  0.4644910000000 1.0
C      1  0.5474840000000  0.5368340000000  0.5285080000000 1.0
C      1  0.4629580000000  0.5254980000000  0.4831300000000 1.0
C      1  0.5446140000000  0.4697370000000  0.5136340000000 1.0
C      1  0.4598850000000  0.4673480000000  0.4821200000000 1.0
C      1  0.5444240000000  0.5389000000000  0.4744500000000 1.0
C      1  0.4594150000000  0.5318250000000  0.5163950000000 1.0
C      1  0.5395600000000  0.4777720000000  0.4808990000000 1.0
C      1  0.4576930000000  0.4616990000000  0.5148170000000 1.0
C      1  0.4798080000000  0.5006740000000  0.4194970000000 1.0
C      1  0.5059980000000  0.4818270000000  0.5733150000000 1.0
C      1  0.4979180000000  0.5270890000000  0.4208770000000 1.0
C      1  0.5076060000000  0.5144270000000  0.5730230000000 1.0
C      1  0.4762790000000  0.4902190000000  0.5771610000000 1.0
C      1  0.5011070000000  0.4771370000000  0.4198790000000 1.0
C      1  0.4766820000000  0.5213130000000  0.5782500000000 1.0
C      1  0.5193360000000  0.5034230000000  0.4172040000000 1.0
C      1  0.5235370000000  0.5556700000000  0.4878070000000 1.0
C      1  0.4770650000000  0.5605470000000  0.5183100000000 1.0
C      1  0.5264970000000  0.4481790000000  0.4853220000000 1.0
C      1  0.4822930000000  0.4381100000000  0.5167360000000 1.0
C      1  0.5246410000000  0.5550510000000  0.5156670000000 1.0
C      1  0.4768460000000  0.5546560000000  0.4886560000000 1.0
C      1  0.5289160000000  0.4399480000000  0.5141750000000 1.0
C      1  0.4796950000000  0.4435930000000  0.4868120000000 1.0
C      1  0.5061620000000  0.4428410000000  0.5306940000000 1.0
C      1  0.5028570000000  0.4440830000000  0.4703510000000 1.0
C      1  0.5018420000000  0.5565790000000  0.5331920000000 1.0
C      1  0.4998750000000  0.5589240000000  0.4726860000000 1.0
END
