TITL C-215601-6378-34 0.00343401701300335 125000 -354.752244939614 0 0 60 (C1) n - 1
REM
REM in /home/bkarasulu/work/CARBON/AIRSS/Generating-Clusters/AIREBO/Higher-Symm/Only-C60
REM
REM
REM
REM
REM
REM ./C.cell (28575a23ae977d3b5fae324c64b13b57)
REM AIRSS Version 0.9.1 bugfix July 2018 build 013d7b7c2542+ Fri, 06 Jul 2018 19:26:36 +0100
REM compiler GCC version 9.2.1 20190827 (Red Hat 9.2.1-1)
REM options -cpp -mtune=generic -march=x86-64 -g -O0 -fpre-include=/usr/include/finclude/math-vector-fortran.h
REM seed 1358730897 -1398789688 1164400168 1424464163 1573547165 -1357287232 1530280266 -881748962 1438110547 -357254010 -1416047424 2036811930 97468193 90790099 -2115254546 -1328945469 206964266 -862223889 -885431134 -1677659276 -224534003 173228292 -1694741731 2085554006 1634548903 -346142496 34268736 27413418 -392854238 -1000660404 1141094062 -2006846781 467042058
REM
CELL 1.54180   50.00000   50.00000   50.00000   90.00000   90.00000   90.00000
LATT -1
SFAC C  
C      1  0.5430340000000  0.4951000000000  0.5831660000000 1.0
C      1  0.5831950000000  0.5350410000000  0.4983430000000 1.0
C      1  0.5415100000000  0.4828190000000  0.4213870000000 1.0
C      1  0.4330810000000  0.5281530000000  0.4518010000000 1.0
C      1  0.4315940000000  0.5084370000000  0.5525350000000 1.0
C      1  0.4764550000000  0.5100590000000  0.4307870000000 1.0
C      1  0.4238390000000  0.5093670000000  0.4951400000000 1.0
C      1  0.4739070000000  0.5053410000000  0.5680130000000 1.0
C      1  0.5588520000000  0.5094760000000  0.5413590000000 1.0
C      1  0.5638910000000  0.5112630000000  0.4608190000000 1.0
C      1  0.5489070000000  0.4798130000000  0.5442550000000 1.0
C      1  0.5651910000000  0.4880610000000  0.4782080000000 1.0
C      1  0.4919160000000  0.4866660000000  0.4332300000000 1.0
C      1  0.4348120000000  0.4851440000000  0.4840700000000 1.0
C      1  0.4652170000000  0.4788380000000  0.5624970000000 1.0
C      1  0.4701070000000  0.4565470000000  0.4985850000000 1.0
C      1  0.4901410000000  0.4615500000000  0.5226930000000 1.0
C      1  0.5210290000000  0.4542540000000  0.5143530000000 1.0
C      1  0.5287360000000  0.4603030000000  0.4879230000000 1.0
C      1  0.4813210000000  0.4607940000000  0.4708550000000 1.0
C      1  0.4999450000000  0.5066330000000  0.5776990000000 1.0
C      1  0.5743950000000  0.5156810000000  0.5171120000000 1.0
C      1  0.5472400000000  0.5072670000000  0.4394350000000 1.0
C      1  0.4529110000000  0.5087020000000  0.4459540000000 1.0
C      1  0.4272250000000  0.5093170000000  0.5219560000000 1.0
C      1  0.4733250000000  0.4304190000000  0.5584010000000 1.0
C      1  0.5510540000000  0.4314000000000  0.5451070000000 1.0
C      1  0.5683590000000  0.4398450000000  0.4653740000000 1.0
C      1  0.4741580000000  0.4413920000000  0.4266970000000 1.0
C      1  0.4234460000000  0.4453880000000  0.5112830000000 1.0
C      1  0.5553900000000  0.4606860000000  0.4760590000000 1.0
C      1  0.4812780000000  0.4616340000000  0.4428600000000 1.0
C      1  0.4413540000000  0.4612680000000  0.4991060000000 1.0
C      1  0.4759870000000  0.4561360000000  0.5493720000000 1.0
C      1  0.5409870000000  0.4543370000000  0.5351800000000 1.0
C      1  0.4888150000000  0.5355530000000  0.4309740000000 1.0
C      1  0.4312600000000  0.5335810000000  0.4801290000000 1.0
C      1  0.4657290000000  0.5292570000000  0.5520410000000 1.0
C      1  0.5358560000000  0.5286730000000  0.5459670000000 1.0
C      1  0.5655550000000  0.5366080000000  0.4753420000000 1.0
C      1  0.4832770000000  0.4915880000000  0.4845740000000 1.0
C      1  0.4811800000000  0.4993190000000  0.5136910000000 1.0
C      1  0.5083740000000  0.4897300000000  0.5282700000000 1.0
C      1  0.5275210000000  0.4966670000000  0.5042950000000 1.0
C      1  0.5139740000000  0.4861090000000  0.4758540000000 1.0
C      1  0.5414540000000  0.5517780000000  0.4804610000000 1.0
C      1  0.4941220000000  0.5518250000000  0.4536270000000 1.0
C      1  0.4520080000000  0.5518130000000  0.4892980000000 1.0
C      1  0.4730130000000  0.5526610000000  0.5388590000000 1.0
C      1  0.5252530000000  0.5502860000000  0.5326310000000 1.0
C      1  0.5554200000000  0.4975280000000  0.5033960000000 1.0
C      1  0.5186750000000  0.4908810000000  0.4457100000000 1.0
C      1  0.4564680000000  0.4918130000000  0.4677120000000 1.0
C      1  0.4584150000000  0.5065910000000  0.5312110000000 1.0
C      1  0.5238720000000  0.4988120000000  0.5572440000000 1.0
C      1  0.5362650000000  0.5575740000000  0.5077710000000 1.0
C      1  0.5200680000000  0.5566990000000  0.4630320000000 1.0
C      1  0.4718750000000  0.5581840000000  0.4699460000000 1.0
C      1  0.4576810000000  0.5592730000000  0.5159590000000 1.0
C      1  0.5000790000000  0.5600670000000  0.5403950000000 1.0
END
