TITL C-215598-6355-23 72402.5511206886 125000 -326.630004212265 0 0 60 (C1) n - 1
REM
REM in /home/bkarasulu/work/CARBON/AIRSS/Generating-Clusters/AIREBO/Higher-Symm/Only-C60
REM
REM
REM
REM
REM
REM ./C.cell (28575a23ae977d3b5fae324c64b13b57)
REM AIRSS Version 0.9.1 bugfix July 2018 build 013d7b7c2542+ Fri, 06 Jul 2018 19:26:36 +0100
REM compiler GCC version 9.2.1 20190827 (Red Hat 9.2.1-1)
REM options -cpp -mtune=generic -march=x86-64 -g -O0 -fpre-include=/usr/include/finclude/math-vector-fortran.h
REM seed 382873924 -1419169957 -237390895 1268094164 -1051113031 -678287462 1443158896 -927198951 -1798639074 -716510083 -1860594972 1732949004 -1591053880 1281676339 -1256988660 1574125596 845494764 -389685305 -19819415 -1475888545 -920216318 450561388 -2044997313 1718912671 90667498 403842254 1871071117 31708040 652412781 -1315975090 -477141035 -2066651491 -1818910364
REM
CELL 1.54180   50.00000   50.00000   50.00000   90.00000   90.00000   90.00000
LATT -1
SFAC C  
C      1  0.4705080000000  0.5130930000000  0.5202890000000 1.0
C      1  0.4680520000000  0.4808000000000  0.5098960000000 1.0
C      1  0.4891930000000  0.4606110000000  0.5272810000000 1.0
C      1  0.5212700000000  0.4655970000000  0.5171290000000 1.0
C      1  0.5364470000000  0.4947820000000  0.5262780000000 1.0
C      1  0.5222450000000  0.5252400000000  0.5211010000000 1.0
C      1  0.4910070000000  0.5383880000000  0.5238130000000 1.0
C      1  0.5393110000000  0.4750280000000  0.4527270000000 1.0
C      1  0.5320440000000  0.5086730000000  0.4485430000000 1.0
C      1  0.5213520000000  0.5379730000000  0.4486080000000 1.0
C      1  0.4932010000000  0.5442600000000  0.4454550000000 1.0
C      1  0.4674730000000  0.5289600000000  0.4474220000000 1.0
C      1  0.4449170000000  0.5047370000000  0.4413080000000 1.0
C      1  0.4634370000000  0.4782270000000  0.4351260000000 1.0
C      1  0.5198520000000  0.5295150000000  0.4874200000000 1.0
C      1  0.4887010000000  0.5283090000000  0.4816080000000 1.0
C      1  0.4720720000000  0.5007070000000  0.4826120000000 1.0
C      1  0.4744140000000  0.4689000000000  0.4722400000000 1.0
C      1  0.4949820000000  0.4519830000000  0.4759880000000 1.0
C      1  0.5196960000000  0.4648010000000  0.4860510000000 1.0
C      1  0.5217640000000  0.4956740000000  0.4851740000000 1.0
C      1  0.4756170000000  0.5752470000000  0.4937840000000 1.0
C      1  0.4285440000000  0.5264720000000  0.4950450000000 1.0
C      1  0.4281720000000  0.4753550000000  0.4905210000000 1.0
C      1  0.4879220000000  0.4120230000000  0.5030030000000 1.0
C      1  0.5608920000000  0.4432130000000  0.4951750000000 1.0
C      1  0.5727880000000  0.5044470000000  0.4922380000000 1.0
C      1  0.5481030000000  0.5675910000000  0.4943480000000 1.0
C      1  0.4284270000000  0.5317290000000  0.5194640000000 1.0
C      1  0.4286710000000  0.4781810000000  0.5154710000000 1.0
C      1  0.4857640000000  0.4260500000000  0.5250770000000 1.0
C      1  0.5536020000000  0.4425780000000  0.5219860000000 1.0
C      1  0.5670970000000  0.4993990000000  0.5175800000000 1.0
C      1  0.5488880000000  0.5658930000000  0.5221570000000 1.0
C      1  0.4819690000000  0.5685600000000  0.5187840000000 1.0
C      1  0.5604960000000  0.4960860000000  0.5503260000000 1.0
C      1  0.5377680000000  0.5438400000000  0.5417400000000 1.0
C      1  0.4869610000000  0.5608580000000  0.5515180000000 1.0
C      1  0.4484120000000  0.5219760000000  0.5411350000000 1.0
C      1  0.4520230000000  0.4823090000000  0.5398420000000 1.0
C      1  0.4846140000000  0.4417570000000  0.5552230000000 1.0
C      1  0.5386990000000  0.4602860000000  0.5458380000000 1.0
C      1  0.4581400000000  0.5021890000000  0.5673010000000 1.0
C      1  0.4756910000000  0.4734520000000  0.5625920000000 1.0
C      1  0.5090440000000  0.4639490000000  0.5620630000000 1.0
C      1  0.5356960000000  0.4838930000000  0.5701380000000 1.0
C      1  0.5374890000000  0.5175180000000  0.5632770000000 1.0
C      1  0.5094470000000  0.5364970000000  0.5590770000000 1.0
C      1  0.4756450000000  0.5303340000000  0.5596990000000 1.0
C      1  0.4799100000000  0.5567650000000  0.4731100000000 1.0
C      1  0.4468960000000  0.5180510000000  0.4723960000000 1.0
C      1  0.4444330000000  0.4791040000000  0.4636460000000 1.0
C      1  0.4925840000000  0.4242550000000  0.4788100000000 1.0
C      1  0.5464970000000  0.4557320000000  0.4740950000000 1.0
C      1  0.5524470000000  0.5054630000000  0.4747420000000 1.0
C      1  0.5353530000000  0.5525310000000  0.4740140000000 1.0
C      1  0.5010500000000  0.5025930000000  0.5095090000000 1.0
C      1  0.4984270000000  0.4909780000000  0.5373550000000 1.0
C      1  0.4888490000000  0.4785080000000  0.4271500000000 1.0
C      1  0.5150130000000  0.4840530000000  0.4335900000000 1.0
END
