TITL C-215603-6394-17 90351.5814899045 125000 -334.614996981506 0 0 60 (C1) n - 1
REM
REM in /home/bkarasulu/work/CARBON/AIRSS/Generating-Clusters/AIREBO/Higher-Symm/Only-C60
REM
REM
REM
REM
REM
REM ./C.cell (28575a23ae977d3b5fae324c64b13b57)
REM AIRSS Version 0.9.1 bugfix July 2018 build 013d7b7c2542+ Fri, 06 Jul 2018 19:26:36 +0100
REM compiler GCC version 9.2.1 20190827 (Red Hat 9.2.1-1)
REM options -cpp -mtune=generic -march=x86-64 -g -O0 -fpre-include=/usr/include/finclude/math-vector-fortran.h
REM seed 1058158987 493850355 777719973 -554433718 -484966331 -1369915680 2087440177 -1409282508 277106340 -254980806 -1290278932 1294394351 1971206647 1931719807 572624679 775787527 -2005379234 2045440371 -1898348505 1200706898 -833819329 205455810 756425804 -1839738937 1053577717 -829373793 233108862 -572780509 892773657 704871276 1522378987 511014589 -1358727017
REM
CELL 1.54180   50.00000   50.00000   50.00000   90.00000   90.00000   90.00000
LATT -1
SFAC C  
C      1  0.4980290000000  0.4796620000000  0.5216370000000 1.0
C      1  0.4792300000000  0.5411500000000  0.4971560000000 1.0
C      1  0.5329040000000  0.4952380000000  0.4789550000000 1.0
C      1  0.5065950000000  0.4741940000000  0.4743000000000 1.0
C      1  0.4903340000000  0.5313670000000  0.5276860000000 1.0
C      1  0.5037280000000  0.5363310000000  0.4751290000000 1.0
C      1  0.5284250000000  0.5251690000000  0.4897350000000 1.0
C      1  0.5434560000000  0.4658140000000  0.5116520000000 1.0
C      1  0.4787480000000  0.4762450000000  0.4938300000000 1.0
C      1  0.4793310000000  0.5013240000000  0.5338700000000 1.0
C      1  0.4643290000000  0.5007520000000  0.4758100000000 1.0
C      1  0.5279690000000  0.4862610000000  0.5306920000000 1.0
C      1  0.4629990000000  0.4413520000000  0.5275480000000 1.0
C      1  0.4405030000000  0.5309520000000  0.4614090000000 1.0
C      1  0.5308620000000  0.4604800000000  0.4431210000000 1.0
C      1  0.5396640000000  0.4408890000000  0.4694840000000 1.0
C      1  0.5334510000000  0.5565230000000  0.5330460000000 1.0
C      1  0.4572360000000  0.5589900000000  0.4680530000000 1.0
C      1  0.5562980000000  0.5324580000000  0.5318550000000 1.0
C      1  0.5595090000000  0.4672780000000  0.4601290000000 1.0
C      1  0.4419930000000  0.4656310000000  0.5380550000000 1.0
C      1  0.4687260000000  0.4572120000000  0.5573020000000 1.0
C      1  0.4676590000000  0.5358090000000  0.4417180000000 1.0
C      1  0.5329140000000  0.5317370000000  0.5558220000000 1.0
C      1  0.4542440000000  0.5263510000000  0.4912320000000 1.0
C      1  0.5302200000000  0.4930580000000  0.4475240000000 1.0
C      1  0.4943700000000  0.4485840000000  0.5278710000000 1.0
C      1  0.5582050000000  0.5217540000000  0.4997900000000 1.0
C      1  0.5602670000000  0.4805020000000  0.4904150000000 1.0
C      1  0.4468370000000  0.4741720000000  0.5054060000000 1.0
C      1  0.4669620000000  0.4897230000000  0.5626210000000 1.0
C      1  0.4670880000000  0.5040260000000  0.4485680000000 1.0
C      1  0.5226920000000  0.4995320000000  0.5587200000000 1.0
C      1  0.5072060000000  0.4415620000000  0.4689640000000 1.0
C      1  0.5018060000000  0.5614730000000  0.5228860000000 1.0
C      1  0.4886280000000  0.5653120000000  0.4750050000000 1.0
C      1  0.4712350000000  0.4431420000000  0.4958850000000 1.0
C      1  0.4248560000000  0.5046700000000  0.4706600000000 1.0
C      1  0.4985510000000  0.4695880000000  0.4421740000000 1.0
C      1  0.5333600000000  0.4418710000000  0.5017690000000 1.0
C      1  0.5267260000000  0.5572790000000  0.5002000000000 1.0
C      1  0.4567410000000  0.5742000000000  0.4971860000000 1.0
C      1  0.5579570000000  0.5004130000000  0.5249120000000 1.0
C      1  0.5730550000000  0.4972380000000  0.4565670000000 1.0
C      1  0.4477170000000  0.4971210000000  0.5285360000000 1.0
C      1  0.4920460000000  0.4629940000000  0.5785940000000 1.0
C      1  0.4985170000000  0.5285550000000  0.4462200000000 1.0
C      1  0.5004800000000  0.5248270000000  0.5582400000000 1.0
C      1  0.5141730000000  0.4316710000000  0.5195340000000 1.0
C      1  0.4372380000000  0.5206540000000  0.5159760000000 1.0
C      1  0.5187860000000  0.5142770000000  0.4353480000000 1.0
C      1  0.4838010000000  0.4299800000000  0.4757570000000 1.0
C      1  0.4761000000000  0.5775750000000  0.5132930000000 1.0
C      1  0.5170690000000  0.5741930000000  0.4786130000000 1.0
C      1  0.5755820000000  0.5141480000000  0.4751860000000 1.0
C      1  0.5799570000000  0.4802140000000  0.5181430000000 1.0
C      1  0.4274070000000  0.4832740000000  0.4830860000000 1.0
C      1  0.4768120000000  0.5140610000000  0.5748360000000 1.0
C      1  0.4760300000000  0.4816360000000  0.4341400000000 1.0
C      1  0.5123860000000  0.4775550000000  0.5781520000000 1.0
END
