TITL C-245596-4761-11 7405332.71721105 125000 -299.085678900758 0 0 60 (C1) n - 1
REM
REM in /home/bkarasulu/work/CARBON/AIRSS/Generating-Clusters/AIREBO/Higher-Symm/Only-C60
REM
REM
REM
REM
REM
REM ./C.cell (28575a23ae977d3b5fae324c64b13b57)
REM AIRSS Version 0.9.1 bugfix July 2018 build 013d7b7c2542+ Fri, 06 Jul 2018 19:26:36 +0100
REM compiler GCC version 9.2.1 20190827 (Red Hat 9.2.1-1)
REM options -cpp -mtune=generic -march=x86-64 -g -O0 -fpre-include=/usr/include/finclude/math-vector-fortran.h
REM seed -1537783060 -1409609099 1089661492 -523670320 893841306 1201808125 916682855 -1424585345 1225757002 -306968263 753924937 1841229795 -136491977 1761327336 443548808 645295739 -77363089 372359293 -2030144239 -1871044013 -956027133 -1586227914 -988202594 225761657 646267767 2020612374 -1620347653 -490709471 -1657180715 -811892615 -2106280579 -617675160 425219578
REM
CELL 1.54180   50.00000   50.00000   50.00000   90.00000   90.00000   90.00000
LATT -1
SFAC C  
C      1  0.4879750000000  0.4835020000000  0.5198390000000 1.0
C      1  0.4774340000000  0.4835490000000  0.4946580000000 1.0
C      1  0.4981340000000  0.4834930000000  0.4768060000000 1.0
C      1  0.5214430000000  0.4834960000000  0.4909540000000 1.0
C      1  0.5151480000000  0.4834970000000  0.5176110000000 1.0
C      1  0.4489770000000  0.4573450000000  0.5460220000000 1.0
C      1  0.4405140000000  0.4572370000000  0.4657270000000 1.0
C      1  0.5141770000000  0.4573830000000  0.4327400000000 1.0
C      1  0.5683030000000  0.4571790000000  0.4927820000000 1.0
C      1  0.5279680000000  0.4572980000000  0.5627820000000 1.0
C      1  0.5668410000000  0.5326030000000  0.4960340000000 1.0
C      1  0.5245510000000  0.5326480000000  0.5625200000000 1.0
C      1  0.4481890000000  0.5325590000000  0.5426220000000 1.0
C      1  0.4435690000000  0.5325470000000  0.4638410000000 1.0
C      1  0.5169010000000  0.5326020000000  0.4349550000000 1.0
C      1  0.5254790000000  0.5678800000000  0.4861470000000 1.0
C      1  0.5213300000000  0.5683880000000  0.5201840000000 1.0
C      1  0.4875460000000  0.5678560000000  0.5261900000000 1.0
C      1  0.4710840000000  0.5680350000000  0.4960880000000 1.0
C      1  0.4946250000000  0.5681520000000  0.4711520000000 1.0
C      1  0.4486780000000  0.4654580000000  0.4962160000000 1.0
C      1  0.4878000000000  0.4654920000000  0.4500490000000 1.0
C      1  0.5437210000000  0.4654700000000  0.4729090000000 1.0
C      1  0.5393210000000  0.4655330000000  0.5332310000000 1.0
C      1  0.4804980000000  0.4654460000000  0.5476660000000 1.0
C      1  0.4750260000000  0.4969520000000  0.4480270000000 1.0
C      1  0.5416520000000  0.4969520000000  0.4601060000000 1.0
C      1  0.5507360000000  0.4970300000000  0.5273370000000 1.0
C      1  0.4896960000000  0.4969200000000  0.5567910000000 1.0
C      1  0.4428420000000  0.4969510000000  0.5077280000000 1.0
C      1  0.5371200000000  0.4534270000000  0.4428050000000 1.0
C      1  0.5657480000000  0.4532790000000  0.5177220000000 1.0
C      1  0.5034750000000  0.4533710000000  0.5681200000000 1.0
C      1  0.4363930000000  0.4533760000000  0.5243600000000 1.0
C      1  0.4571710000000  0.4531770000000  0.4470150000000 1.0
C      1  0.4886680000000  0.5457080000000  0.4452930000000 1.0
C      1  0.5483460000000  0.5455140000000  0.4723270000000 1.0
C      1  0.5411950000000  0.5455050000000  0.5374520000000 1.0
C      1  0.4771960000000  0.5455140000000  0.5508290000000 1.0
C      1  0.4444640000000  0.5456760000000  0.4939610000000 1.0
C      1  0.5213130000000  0.4438370000000  0.4866020000000 1.0
C      1  0.5194140000000  0.4438770000000  0.5161170000000 1.0
C      1  0.4907580000000  0.4439020000000  0.5234120000000 1.0
C      1  0.4749340000000  0.4439400000000  0.4984440000000 1.0
C      1  0.4937730000000  0.4438290000000  0.4756070000000 1.0
C      1  0.5384780000000  0.5231240000000  0.4499060000000 1.0
C      1  0.5592720000000  0.5232190000000  0.5211310000000 1.0
C      1  0.4983330000000  0.5230900000000  0.5630920000000 1.0
C      1  0.4395110000000  0.5231220000000  0.5178700000000 1.0
C      1  0.4644820000000  0.5231320000000  0.4479820000000 1.0
C      1  0.4929340000000  0.4949300000000  0.4236900000000 1.0
C      1  0.5703680000000  0.4949620000000  0.4698910000000 1.0
C      1  0.5505370000000  0.4949470000000  0.5576280000000 1.0
C      1  0.4607790000000  0.4949660000000  0.5657370000000 1.0
C      1  0.4253270000000  0.4949410000000  0.4830590000000 1.0
C      1  0.4940430000000  0.5349130000000  0.5251830000000 1.0
C      1  0.4742350000000  0.5352950000000  0.5022950000000 1.0
C      1  0.4899490000000  0.5354290000000  0.4763050000000 1.0
C      1  0.5195860000000  0.5349920000000  0.4831120000000 1.0
C      1  0.5220400000000  0.5355540000000  0.5133330000000 1.0
END
