TITL C-245594-3654-3 351495.247438987 125000 -339.622412586513 0 0 60 (C1) n - 1
REM
REM in /home/bkarasulu/work/CARBON/AIRSS/Generating-Clusters/AIREBO/Higher-Symm/Only-C60
REM
REM
REM
REM
REM
REM ./C.cell (28575a23ae977d3b5fae324c64b13b57)
REM AIRSS Version 0.9.1 bugfix July 2018 build 013d7b7c2542+ Fri, 06 Jul 2018 19:26:36 +0100
REM compiler GCC version 9.2.1 20190827 (Red Hat 9.2.1-1)
REM options -cpp -mtune=generic -march=x86-64 -g -O0 -fpre-include=/usr/include/finclude/math-vector-fortran.h
REM seed -93482879 404318292 -754859013 981625686 -428536974 1120834440 1505716388 -2025133459 1756870630 -1868866947 -722153646 -2008657315 257367595 317630725 868293332 611902155 2119521988 -1350086352 -1557283215 1155157787 -699171752 -1292408388 10395106 -527233728 -1396753131 444358236 1453576868 -2102777120 2006960708 -1081844893 -1086430110 -1136390080 1888424779
REM
CELL 1.54180   50.00000   50.00000   50.00000   90.00000   90.00000   90.00000
LATT -1
SFAC C  
C      1  0.4908800000000  0.5289290000000  0.4546350000000 1.0
C      1  0.5223110000000  0.5198260000000  0.4580070000000 1.0
C      1  0.5396410000000  0.4902390000000  0.4538400000000 1.0
C      1  0.5241320000000  0.4576570000000  0.4475530000000 1.0
C      1  0.4902840000000  0.4627570000000  0.4460900000000 1.0
C      1  0.4680610000000  0.4849290000000  0.4433990000000 1.0
C      1  0.4684610000000  0.5132030000000  0.4528290000000 1.0
C      1  0.5186750000000  0.4702380000000  0.5019550000000 1.0
C      1  0.4870170000000  0.4598140000000  0.4956200000000 1.0
C      1  0.4641400000000  0.4836540000000  0.4970900000000 1.0
C      1  0.4618300000000  0.5132320000000  0.5060190000000 1.0
C      1  0.4867030000000  0.5364380000000  0.5063140000000 1.0
C      1  0.5186890000000  0.5479360000000  0.5071180000000 1.0
C      1  0.5209100000000  0.4983170000000  0.5151230000000 1.0
C      1  0.5468340000000  0.5102940000000  0.5179230000000 1.0
C      1  0.5462260000000  0.4573410000000  0.5123030000000 1.0
C      1  0.5030700000000  0.4343190000000  0.5099990000000 1.0
C      1  0.4595530000000  0.4647940000000  0.5240580000000 1.0
C      1  0.4382770000000  0.5159350000000  0.5299230000000 1.0
C      1  0.4701090000000  0.5590090000000  0.5256630000000 1.0
C      1  0.5260210000000  0.5648880000000  0.5261290000000 1.0
C      1  0.4798550000000  0.4425670000000  0.4671730000000 1.0
C      1  0.4474090000000  0.4844720000000  0.4705450000000 1.0
C      1  0.4376580000000  0.5346570000000  0.4966530000000 1.0
C      1  0.4907680000000  0.5508600000000  0.4757720000000 1.0
C      1  0.5341080000000  0.5387590000000  0.4797070000000 1.0
C      1  0.5635930000000  0.4858830000000  0.4697900000000 1.0
C      1  0.5330880000000  0.4503080000000  0.4758300000000 1.0
C      1  0.5057070000000  0.4301930000000  0.5367030000000 1.0
C      1  0.4708330000000  0.4663420000000  0.5501170000000 1.0
C      1  0.4466660000000  0.5134980000000  0.5567710000000 1.0
C      1  0.4751370000000  0.5577230000000  0.5533000000000 1.0
C      1  0.5161910000000  0.5801770000000  0.5462600000000 1.0
C      1  0.5611900000000  0.5041020000000  0.5412970000000 1.0
C      1  0.5483100000000  0.4579130000000  0.5403470000000 1.0
C      1  0.4494780000000  0.4370070000000  0.4647040000000 1.0
C      1  0.4409030000000  0.5176760000000  0.4672490000000 1.0
C      1  0.4520160000000  0.5608150000000  0.5021190000000 1.0
C      1  0.5179840000000  0.5672830000000  0.4725370000000 1.0
C      1  0.5562710000000  0.5238030000000  0.4952580000000 1.0
C      1  0.5637650000000  0.4582150000000  0.4842080000000 1.0
C      1  0.5174630000000  0.4260480000000  0.4865760000000 1.0
C      1  0.4338050000000  0.4569320000000  0.4660140000000 1.0
C      1  0.4101710000000  0.5275110000000  0.4779690000000 1.0
C      1  0.4657940000000  0.5694130000000  0.4800040000000 1.0
C      1  0.5248940000000  0.5895810000000  0.4618090000000 1.0
C      1  0.5742070000000  0.5086580000000  0.4799020000000 1.0
C      1  0.5855770000000  0.4416310000000  0.4805970000000 1.0
C      1  0.4986170000000  0.4168850000000  0.4675100000000 1.0
C      1  0.4965600000000  0.5723700000000  0.5647370000000 1.0
C      1  0.5007550000000  0.5730650000000  0.5913600000000 1.0
C      1  0.5646800000000  0.4784290000000  0.5507300000000 1.0
C      1  0.5257210000000  0.4481270000000  0.5540280000000 1.0
C      1  0.4928670000000  0.4505970000000  0.5571490000000 1.0
C      1  0.4690370000000  0.4919630000000  0.5614830000000 1.0
C      1  0.4710590000000  0.5317270000000  0.5636630000000 1.0
C      1  0.5007660000000  0.5131810000000  0.5267500000000 1.0
C      1  0.5181650000000  0.4786140000000  0.4226870000000 1.0
C      1  0.4919620000000  0.5112720000000  0.5531400000000 1.0
C      1  0.5062670000000  0.4922830000000  0.4514590000000 1.0
END
