TITL C-246169-6872-22 -0.000685146784344571 125000 -332.891116693175 0 0 60 (C1) n - 1
REM
REM in /home/bkarasulu/work/CARBON/AIRSS/Generating-Clusters/AIREBO/Higher-Symm/Only-C60
REM
REM
REM
REM
REM
REM ./C.cell (28575a23ae977d3b5fae324c64b13b57)
REM AIRSS Version 0.9.1 bugfix July 2018 build 013d7b7c2542+ Fri, 06 Jul 2018 19:26:36 +0100
REM compiler GCC version 9.2.1 20190827 (Red Hat 9.2.1-1)
REM options -cpp -mtune=generic -march=x86-64 -g -O0 -fpre-include=/usr/include/finclude/math-vector-fortran.h
REM seed 1679670811 1467662113 -591894421 -1159585582 -395131332 1696256202 1548370509 313704639 -1055773254 1738511877 1878856689 -61548266 -2012518966 1107096301 -272538303 1151034791 427345594 -2015486681 -1122043883 1099130055 -671790981 223096015 1793873942 1545009611 -2024026146 943628829 1377569630 -406501637 2125504688 -1269080752 -1897881002 -1862292205 -595256774
REM
CELL 1.54180   50.00000   50.00000   50.00000   90.00000   90.00000   90.00000
LATT -1
SFAC C  
C      1  0.4594870000000  0.5643200000000  0.4826690000000 1.0
C      1  0.4648430000000  0.5048960000000  0.4335980000000 1.0
C      1  0.4701320000000  0.4411330000000  0.4739490000000 1.0
C      1  0.4621040000000  0.4591940000000  0.5514730000000 1.0
C      1  0.4613460000000  0.5363720000000  0.5584780000000 1.0
C      1  0.4649970000000  0.5071630000000  0.5468360000000 1.0
C      1  0.4608590000000  0.5484480000000  0.5094420000000 1.0
C      1  0.4676360000000  0.5220170000000  0.4601620000000 1.0
C      1  0.4700670000000  0.4710290000000  0.4690200000000 1.0
C      1  0.4663490000000  0.4585580000000  0.5201490000000 1.0
C      1  0.4969200000000  0.4171790000000  0.5091900000000 1.0
C      1  0.4994540000000  0.4811590000000  0.5697730000000 1.0
C      1  0.4962650000000  0.5637610000000  0.5291300000000 1.0
C      1  0.4991380000000  0.5566390000000  0.4490680000000 1.0
C      1  0.5002960000000  0.4647950000000  0.4418840000000 1.0
C      1  0.5166260000000  0.4510500000000  0.5036330000000 1.0
C      1  0.5188880000000  0.4999060000000  0.5358530000000 1.0
C      1  0.5172630000000  0.5414010000000  0.5036390000000 1.0
C      1  0.5179040000000  0.5334250000000  0.4755870000000 1.0
C      1  0.5246980000000  0.4739880000000  0.4721330000000 1.0
C      1  0.4708580000000  0.4782010000000  0.4379480000000 1.0
C      1  0.4710240000000  0.4341020000000  0.5016710000000 1.0
C      1  0.4718300000000  0.4822390000000  0.5633190000000 1.0
C      1  0.4646030000000  0.5581230000000  0.5408160000000 1.0
C      1  0.4702150000000  0.5521970000000  0.4603020000000 1.0
C      1  0.4922000000000  0.5799050000000  0.4994550000000 1.0
C      1  0.5094460000000  0.5280770000000  0.4336990000000 1.0
C      1  0.4952780000000  0.4363230000000  0.4598470000000 1.0
C      1  0.5087250000000  0.4316090000000  0.5376400000000 1.0
C      1  0.5180970000000  0.5362490000000  0.5729400000000 1.0
C      1  0.5114860000000  0.4970290000000  0.4422870000000 1.0
C      1  0.5084090000000  0.4179100000000  0.4771850000000 1.0
C      1  0.5122160000000  0.4606820000000  0.5421100000000 1.0
C      1  0.5060570000000  0.5539690000000  0.5601910000000 1.0
C      1  0.4962920000000  0.5788800000000  0.4746550000000 1.0
C      1  0.5496510000000  0.5321680000000  0.4683710000000 1.0
C      1  0.5426790000000  0.4837510000000  0.4456850000000 1.0
C      1  0.5469910000000  0.4485060000000  0.5055920000000 1.0
C      1  0.5379200000000  0.4795840000000  0.5538740000000 1.0
C      1  0.5469250000000  0.5410870000000  0.5176510000000 1.0
C      1  0.4465220000000  0.5121540000000  0.4795600000000 1.0
C      1  0.4470100000000  0.4842380000000  0.4827570000000 1.0
C      1  0.4453310000000  0.4783100000000  0.5101880000000 1.0
C      1  0.4439950000000  0.5029780000000  0.5244030000000 1.0
C      1  0.4434000000000  0.5238640000000  0.5050310000000 1.0
C      1  0.4971540000000  0.4826800000000  0.4827270000000 1.0
C      1  0.4957610000000  0.4743700000000  0.5156770000000 1.0
C      1  0.4902650000000  0.5061150000000  0.5268510000000 1.0
C      1  0.4902200000000  0.5332720000000  0.5153400000000 1.0
C      1  0.4973310000000  0.5122220000000  0.4682180000000 1.0
C      1  0.5306700000000  0.4201400000000  0.5062720000000 1.0
C      1  0.5211930000000  0.5063770000000  0.5684110000000 1.0
C      1  0.5297370000000  0.5670450000000  0.5240830000000 1.0
C      1  0.5327130000000  0.5529810000000  0.4513520000000 1.0
C      1  0.5307840000000  0.4519040000000  0.4464480000000 1.0
C      1  0.5636080000000  0.5144440000000  0.4834600000000 1.0
C      1  0.5563840000000  0.4860210000000  0.4767230000000 1.0
C      1  0.5597960000000  0.4719780000000  0.5045110000000 1.0
C      1  0.5506360000000  0.4931850000000  0.5254110000000 1.0
C      1  0.5613170000000  0.5186990000000  0.5116750000000 1.0
END
