TITL C-245601-5537-1 -1012.38887330189 125000 -318.150615144922 0 0 60 (C1) n - 1
REM
REM in /home/bkarasulu/work/CARBON/AIRSS/Generating-Clusters/AIREBO/Higher-Symm/Only-C60
REM
REM
REM
REM
REM
REM ./C.cell (28575a23ae977d3b5fae324c64b13b57)
REM AIRSS Version 0.9.1 bugfix July 2018 build 013d7b7c2542+ Fri, 06 Jul 2018 19:26:36 +0100
REM compiler GCC version 9.2.1 20190827 (Red Hat 9.2.1-1)
REM options -cpp -mtune=generic -march=x86-64 -g -O0 -fpre-include=/usr/include/finclude/math-vector-fortran.h
REM seed -1434509186 -1498684647 -2099834600 390762366 -1079500681 -1531125834 1508672020 -983587545 -2137365579 1345983557 -1342234712 1159547059 -648500406 113176106 -93054118 -1294966158 796571677 -1973915382 1581827580 1017761860 1731316043 1614903574 1032198788 -1778887699 -1201941644 -626561713 -455588499 73856998 763914098 104698925 -595894878 -2103795087 1006611651
REM
CELL 1.54180   50.00000   50.00000   50.00000   90.00000   90.00000   90.00000
LATT -1
SFAC C  
C      1  0.5097820000000  0.5143560000000  0.5074990000000 1.0
C      1  0.4890060000000  0.4711140000000  0.5212660000000 1.0
C      1  0.4766840000000  0.5148550000000  0.4996630000000 1.0
C      1  0.4849200000000  0.4852510000000  0.4903980000000 1.0
C      1  0.5164820000000  0.5198230000000  0.4745970000000 1.0
C      1  0.5193780000000  0.4818370000000  0.5103310000000 1.0
C      1  0.4805380000000  0.4284860000000  0.5017680000000 1.0
C      1  0.4911440000000  0.5628580000000  0.4820250000000 1.0
C      1  0.5061490000000  0.4406290000000  0.4838400000000 1.0
C      1  0.5236300000000  0.5633800000000  0.4917990000000 1.0
C      1  0.5101500000000  0.4335300000000  0.5156640000000 1.0
C      1  0.4989870000000  0.5628300000000  0.5140920000000 1.0
C      1  0.5406270000000  0.4354910000000  0.5292440000000 1.0
C      1  0.5030870000000  0.5550490000000  0.5457360000000 1.0
C      1  0.4523950000000  0.4367180000000  0.5172770000000 1.0
C      1  0.4603030000000  0.5592440000000  0.4791920000000 1.0
C      1  0.5007000000000  0.4470050000000  0.4544520000000 1.0
C      1  0.5436100000000  0.5671030000000  0.4683620000000 1.0
C      1  0.5081720000000  0.4544380000000  0.5413640000000 1.0
C      1  0.4777940000000  0.5371720000000  0.5210760000000 1.0
C      1  0.4681500000000  0.4563960000000  0.4867930000000 1.0
C      1  0.4956160000000  0.5390730000000  0.4624340000000 1.0
C      1  0.5205490000000  0.4691180000000  0.4825030000000 1.0
C      1  0.5339940000000  0.5381290000000  0.5074730000000 1.0
C      1  0.5267480000000  0.4321730000000  0.5601060000000 1.0
C      1  0.4723320000000  0.5613440000000  0.5452490000000 1.0
C      1  0.4341020000000  0.4515530000000  0.4921860000000 1.0
C      1  0.4426930000000  0.5776780000000  0.4742050000000 1.0
C      1  0.5067990000000  0.4339330000000  0.4330220000000 1.0
C      1  0.5574790000000  0.5861780000000  0.4583250000000 1.0
C      1  0.5700890000000  0.4779500000000  0.5176930000000 1.0
C      1  0.5307210000000  0.5154660000000  0.5591270000000 1.0
C      1  0.4555090000000  0.4764890000000  0.5615650000000 1.0
C      1  0.4278900000000  0.5156180000000  0.4821170000000 1.0
C      1  0.4713270000000  0.4835590000000  0.4373980000000 1.0
C      1  0.5558050000000  0.5208210000000  0.4450410000000 1.0
C      1  0.4700970000000  0.5300390000000  0.4535910000000 1.0
C      1  0.5182800000000  0.4919120000000  0.4604400000000 1.0
C      1  0.5601340000000  0.5271240000000  0.4973120000000 1.0
C      1  0.5366180000000  0.4645780000000  0.5563450000000 1.0
C      1  0.4789380000000  0.5229320000000  0.5515700000000 1.0
C      1  0.4511840000000  0.4755170000000  0.5092140000000 1.0
C      1  0.4636550000000  0.5131880000000  0.4335920000000 1.0
C      1  0.5394090000000  0.4945870000000  0.4400790000000 1.0
C      1  0.5753000000000  0.5073080000000  0.5061290000000 1.0
C      1  0.5396860000000  0.4882320000000  0.5717600000000 1.0
C      1  0.4640670000000  0.5068850000000  0.5664590000000 1.0
C      1  0.4244130000000  0.4842510000000  0.4934580000000 1.0
C      1  0.4545080000000  0.5273660000000  0.4806920000000 1.0
C      1  0.4898200000000  0.4757500000000  0.4580930000000 1.0
C      1  0.5456000000000  0.5348740000000  0.4694730000000 1.0
C      1  0.5433870000000  0.4687840000000  0.5247750000000 1.0
C      1  0.5100300000000  0.5234560000000  0.5403090000000 1.0
C      1  0.4610230000000  0.4629710000000  0.5370900000000 1.0
C      1  0.5995150000000  0.4862540000000  0.5072660000000 1.0
C      1  0.5572690000000  0.5143080000000  0.5779060000000 1.0
C      1  0.4510950000000  0.4895020000000  0.5905760000000 1.0
C      1  0.3984430000000  0.5052120000000  0.4880570000000 1.0
C      1  0.4484550000000  0.4905770000000  0.4155960000000 1.0
C      1  0.5557340000000  0.5077440000000  0.4153350000000 1.0
END
