TITL C-246167-7980-26 7.13525448012917e-07 125000 -336.682938192819 0 0 60 (C1) n - 1
REM
REM in /home/bkarasulu/work/CARBON/AIRSS/Generating-Clusters/AIREBO/Higher-Symm/Only-C60
REM
REM
REM
REM
REM
REM ./C.cell (28575a23ae977d3b5fae324c64b13b57)
REM AIRSS Version 0.9.1 bugfix July 2018 build 013d7b7c2542+ Fri, 06 Jul 2018 19:26:36 +0100
REM compiler GCC version 9.2.1 20190827 (Red Hat 9.2.1-1)
REM options -cpp -mtune=generic -march=x86-64 -g -O0 -fpre-include=/usr/include/finclude/math-vector-fortran.h
REM seed 1242214914 -1487061488 176001724 -1592505962 -1141254929 1926333285 -632808800 -1365830492 1675146982 -880173379 -503447952 868158077 590803084 -1376260916 -1996935179 -75677057 -1307309035 1790727063 -1581908031 -1231913418 -252390327 -722734653 644578639 -1099566314 2136306507 266133980 874951037 484688597 31584106 516020881 1950273338 202914882 1364654809
REM
CELL 1.54180   50.00000   50.00000   50.00000   90.00000   90.00000   90.00000
LATT -1
SFAC C  
C      1  0.5720160000000  0.4832600000000  0.4159980000000 1.0
C      1  0.4832660000000  0.4108860000000  0.5703740000000 1.0
C      1  0.4406620000000  0.5613460000000  0.4892310000000 1.0
C      1  0.4538660000000  0.4804150000000  0.5858580000000 1.0
C      1  0.4482230000000  0.5134380000000  0.4280990000000 1.0
C      1  0.5227150000000  0.5152430000000  0.5554050000000 1.0
C      1  0.5185150000000  0.4328880000000  0.4362450000000 1.0
C      1  0.5090600000000  0.5867190000000  0.5614370000000 1.0
C      1  0.4903090000000  0.5780840000000  0.4323150000000 1.0
C      1  0.5686430000000  0.5575360000000  0.5130270000000 1.0
C      1  0.5782460000000  0.4485730000000  0.4846580000000 1.0
C      1  0.4258150000000  0.4378730000000  0.5271220000000 1.0
C      1  0.5673400000000  0.5150940000000  0.4143460000000 1.0
C      1  0.4781430000000  0.5839250000000  0.5701930000000 1.0
C      1  0.4276050000000  0.4440010000000  0.4955060000000 1.0
C      1  0.4518420000000  0.5126420000000  0.5851470000000 1.0
C      1  0.4409030000000  0.4821300000000  0.4300920000000 1.0
C      1  0.5250020000000  0.4830770000000  0.5581530000000 1.0
C      1  0.5224640000000  0.5780760000000  0.4298120000000 1.0
C      1  0.5143020000000  0.4111940000000  0.5617780000000 1.0
C      1  0.4873040000000  0.4273740000000  0.4426210000000 1.0
C      1  0.5743180000000  0.4431380000000  0.5161870000000 1.0
C      1  0.5722220000000  0.5506940000000  0.4816810000000 1.0
C      1  0.4326740000000  0.5567920000000  0.5202800000000 1.0
C      1  0.4592700000000  0.5652670000000  0.5670390000000 1.0
C      1  0.5615040000000  0.5498960000000  0.4575200000000 1.0
C      1  0.5330120000000  0.4600420000000  0.5482630000000 1.0
C      1  0.5443110000000  0.5632990000000  0.4340110000000 1.0
C      1  0.5301500000000  0.4282380000000  0.5493660000000 1.0
C      1  0.4643280000000  0.4366690000000  0.4526500000000 1.0
C      1  0.4411470000000  0.5508930000000  0.5449330000000 1.0
C      1  0.4420370000000  0.4464570000000  0.4735230000000 1.0
C      1  0.5555920000000  0.4415590000000  0.5351500000000 1.0
C      1  0.4440470000000  0.4601500000000  0.4447660000000 1.0
C      1  0.4525510000000  0.5340720000000  0.5697860000000 1.0
C      1  0.5598090000000  0.5357160000000  0.4290420000000 1.0
C      1  0.4625270000000  0.4275580000000  0.5686250000000 1.0
C      1  0.5652730000000  0.4528850000000  0.4621870000000 1.0
C      1  0.5323550000000  0.5392480000000  0.5504210000000 1.0
C      1  0.5418390000000  0.4439410000000  0.4423660000000 1.0
C      1  0.5251230000000  0.5703730000000  0.5481160000000 1.0
C      1  0.4694860000000  0.5637660000000  0.4408200000000 1.0
C      1  0.4395380000000  0.4395010000000  0.5499320000000 1.0
C      1  0.4533360000000  0.5541480000000  0.4668560000000 1.0
C      1  0.5505760000000  0.5585320000000  0.5326410000000 1.0
C      1  0.4540640000000  0.5358000000000  0.4406940000000 1.0
C      1  0.4530860000000  0.4579470000000  0.5722000000000 1.0
C      1  0.5654450000000  0.4626870000000  0.4316780000000 1.0
C      1  0.5060080000000  0.6055860000000  0.4258950000000 1.0
C      1  0.6032350000000  0.4519090000000  0.5048720000000 1.0
C      1  0.5006180000000  0.3836940000000  0.5718570000000 1.0
C      1  0.4148620000000  0.5762880000000  0.5016890000000 1.0
C      1  0.4599720000000  0.4975000000000  0.6125240000000 1.0
C      1  0.4929580000000  0.6124980000000  0.5724970000000 1.0
C      1  0.5014020000000  0.4132370000000  0.4171930000000 1.0
C      1  0.3988140000000  0.4428400000000  0.5101130000000 1.0
C      1  0.5974860000000  0.5484090000000  0.5016790000000 1.0
C      1  0.5772790000000  0.4988920000000  0.3882090000000 1.0
C      1  0.5017200000000  0.4989850000000  0.5738150000000 1.0
C      1  0.4397840000000  0.4971230000000  0.4015050000000 1.0
END
