TITL C-246164-9105-27 0.00307515082397651 125000 -361.572515369795 0 0 60 (Ci) n - 1
REM
REM in /home/bkarasulu/work/CARBON/AIRSS/Generating-Clusters/AIREBO/Higher-Symm/Only-C60
REM
REM
REM
REM
REM
REM ./C.cell (28575a23ae977d3b5fae324c64b13b57)
REM AIRSS Version 0.9.1 bugfix July 2018 build 013d7b7c2542+ Fri, 06 Jul 2018 19:26:36 +0100
REM compiler GCC version 9.2.1 20190827 (Red Hat 9.2.1-1)
REM options -cpp -mtune=generic -march=x86-64 -g -O0 -fpre-include=/usr/include/finclude/math-vector-fortran.h
REM seed -639009723 1031599234 268268743 2135658834 1934927362 1471223 794157787 -441679251 -878604243 241261026 1012004641 1339625628 1497133417 -1077736916 1404273332 -696933993 497536155 -1462918785 -445893639 -1602705235 -1425867126 -1363539907 2041826398 -879228756 -813830115 197397005 -1973165341 -781276985 -1165068947 -537443647 847926772 858500554 265634741
REM
CELL 1.54180   50.00000   50.00000   50.00000   90.00000   90.00000   90.00000
LATT -1
SFAC C  
C      1  0.5094250000000  0.4506810000000  0.4723300000000 1.0
C      1  0.5019950000000  0.4738380000000  0.4523930000000 1.0
C      1  0.5048800000000  0.5068490000000  0.4513470000000 1.0
C      1  0.4932500000000  0.5341770000000  0.4662780000000 1.0
C      1  0.5008600000000  0.5491710000000  0.4958950000000 1.0
C      1  0.4905750000000  0.5493190000000  0.5276700000000 1.0
C      1  0.4980050000000  0.5261620000000  0.5476070000000 1.0
C      1  0.4951200000000  0.4931510000000  0.5486530000000 1.0
C      1  0.5067500000000  0.4658230000000  0.5337220000000 1.0
C      1  0.4991400000000  0.4508290000000  0.5041050000000 1.0
C      1  0.5406780000000  0.4466590000000  0.4661930000000 1.0
C      1  0.4532920000000  0.4876890000000  0.4376900000000 1.0
C      1  0.5356400000000  0.5137320000000  0.4437890000000 1.0
C      1  0.4619810000000  0.5467490000000  0.4617820000000 1.0
C      1  0.5332140000000  0.5532180000000  0.5010750000000 1.0
C      1  0.4593220000000  0.5533410000000  0.5338070000000 1.0
C      1  0.5467080000000  0.5123110000000  0.5623100000000 1.0
C      1  0.4643600000000  0.4862680000000  0.5562110000000 1.0
C      1  0.5380190000000  0.4532510000000  0.5382180000000 1.0
C      1  0.4667860000000  0.4467820000000  0.4989250000000 1.0
C      1  0.4839050000000  0.4558370000000  0.5552660000000 1.0
C      1  0.5187830000000  0.4308210000000  0.5204750000000 1.0
C      1  0.4833010000000  0.4313830000000  0.4733380000000 1.0
C      1  0.5237830000000  0.4566430000000  0.4358000000000 1.0
C      1  0.4803940000000  0.4899890000000  0.4350490000000 1.0
C      1  0.5160950000000  0.5441630000000  0.4447340000000 1.0
C      1  0.4812170000000  0.5691790000000  0.4795250000000 1.0
C      1  0.5166990000000  0.5686170000000  0.5266620000000 1.0
C      1  0.4762170000000  0.5433570000000  0.5642000000000 1.0
C      1  0.5196060000000  0.5100110000000  0.5649510000000 1.0
C      1  0.4562720000000  0.4484430000000  0.4676150000000 1.0
C      1  0.5521990000000  0.4667570000000  0.4425060000000 1.0
C      1  0.4389760000000  0.5117790000000  0.4335450000000 1.0
C      1  0.5453940000000  0.5427000000000  0.4552520000000 1.0
C      1  0.4508140000000  0.5652520000000  0.4874520000000 1.0
C      1  0.5437280000000  0.5515570000000  0.5323850000000 1.0
C      1  0.4478010000000  0.5332430000000  0.5574940000000 1.0
C      1  0.5610240000000  0.4882210000000  0.5664550000000 1.0
C      1  0.4546060000000  0.4573000000000  0.5447480000000 1.0
C      1  0.5491860000000  0.4347480000000  0.5125480000000 1.0
C      1  0.4305420000000  0.5263100000000  0.5056550000000 1.0
C      1  0.5687240000000  0.5134250000000  0.5192600000000 1.0
C      1  0.4323960000000  0.5040180000000  0.5240800000000 1.0
C      1  0.5708070000000  0.4845290000000  0.5209200000000 1.0
C      1  0.4331270000000  0.4794830000000  0.5088210000000 1.0
C      1  0.5694580000000  0.4736900000000  0.4943450000000 1.0
C      1  0.4312760000000  0.4865750000000  0.4807400000000 1.0
C      1  0.5676040000000  0.4959820000000  0.4759200000000 1.0
C      1  0.4291930000000  0.5154710000000  0.4790800000000 1.0
C      1  0.5668730000000  0.5205170000000  0.4911790000000 1.0
C      1  0.4476540000000  0.4574320000000  0.5181290000000 1.0
C      1  0.5572140000000  0.4488670000000  0.4902290000000 1.0
C      1  0.4442650000000  0.4721550000000  0.4599710000000 1.0
C      1  0.5555830000000  0.4929960000000  0.4509570000000 1.0
C      1  0.4391940000000  0.5282080000000  0.4562740000000 1.0
C      1  0.5523460000000  0.5425680000000  0.4818710000000 1.0
C      1  0.4427860000000  0.5511330000000  0.5097710000000 1.0
C      1  0.5557350000000  0.5278450000000  0.5400290000000 1.0
C      1  0.4444170000000  0.5070040000000  0.5490430000000 1.0
C      1  0.5608060000000  0.4717920000000  0.5437260000000 1.0
END
