TITL C-246168-3210-16 -47307.5023525668 125000 -332.788371900852 0 0 60 (C1) n - 1
REM
REM in /home/bkarasulu/work/CARBON/AIRSS/Generating-Clusters/AIREBO/Higher-Symm/Only-C60
REM
REM
REM
REM
REM
REM ./C.cell (28575a23ae977d3b5fae324c64b13b57)
REM AIRSS Version 0.9.1 bugfix July 2018 build 013d7b7c2542+ Fri, 06 Jul 2018 19:26:36 +0100
REM compiler GCC version 9.2.1 20190827 (Red Hat 9.2.1-1)
REM options -cpp -mtune=generic -march=x86-64 -g -O0 -fpre-include=/usr/include/finclude/math-vector-fortran.h
REM seed -1143573865 -1087847050 -134545151 1569876449 808693505 1715681827 -1499149235 -1474162724 765251378 1376424773 -1596397376 -1251241610 114772991 -1145652449 -1511911544 1489382411 -2044376015 277979404 -381011341 264439819 1384826638 -1226749994 -730563656 -904406866 -765443091 -810051900 -21178307 1371685423 1498940037 -420256791 -2016684169 748368883 935443277
REM
CELL 1.54180   50.00000   50.00000   50.00000   90.00000   90.00000   90.00000
LATT -1
SFAC C  
C      1  0.4413030000000  0.4864560000000  0.5378360000000 1.0
C      1  0.3803320000000  0.4598280000000  0.5039090000000 1.0
C      1  0.4529330000000  0.4651060000000  0.5527300000000 1.0
C      1  0.4712270000000  0.5846270000000  0.4672600000000 1.0
C      1  0.5509270000000  0.4571110000000  0.5005230000000 1.0
C      1  0.5256410000000  0.5638920000000  0.5222460000000 1.0
C      1  0.5387320000000  0.4634950000000  0.4538850000000 1.0
C      1  0.4815890000000  0.5023370000000  0.4792310000000 1.0
C      1  0.5240860000000  0.4773600000000  0.4790860000000 1.0
C      1  0.5182260000000  0.5672510000000  0.4448420000000 1.0
C      1  0.4916870000000  0.4741320000000  0.5278080000000 1.0
C      1  0.4969590000000  0.5139630000000  0.5602320000000 1.0
C      1  0.5461130000000  0.4432260000000  0.4770340000000 1.0
C      1  0.5140880000000  0.5603200000000  0.4756000000000 1.0
C      1  0.5499090000000  0.5198350000000  0.5106350000000 1.0
C      1  0.4840130000000  0.5658590000000  0.4829900000000 1.0
C      1  0.4544550000000  0.5266530000000  0.5114290000000 1.0
C      1  0.5284820000000  0.4587200000000  0.5254260000000 1.0
C      1  0.5313680000000  0.5136720000000  0.5366900000000 1.0
C      1  0.5736230000000  0.5358400000000  0.4384070000000 1.0
C      1  0.4805070000000  0.5122470000000  0.4526490000000 1.0
C      1  0.4922700000000  0.5013860000000  0.5310690000000 1.0
C      1  0.5053520000000  0.4615680000000  0.5006450000000 1.0
C      1  0.5088330000000  0.4677230000000  0.5737120000000 1.0
C      1  0.4703700000000  0.5551820000000  0.5044400000000 1.0
C      1  0.5732020000000  0.4899740000000  0.5232260000000 1.0
C      1  0.5599160000000  0.4839990000000  0.4965800000000 1.0
C      1  0.4490330000000  0.5132510000000  0.5404310000000 1.0
C      1  0.5282190000000  0.4215230000000  0.4802270000000 1.0
C      1  0.4322490000000  0.4808920000000  0.5084480000000 1.0
C      1  0.4781330000000  0.4722630000000  0.4832990000000 1.0
C      1  0.5118460000000  0.4468440000000  0.5491780000000 1.0
C      1  0.4881570000000  0.4578790000000  0.4566280000000 1.0
C      1  0.5256080000000  0.5010520000000  0.4260390000000 1.0
C      1  0.5064220000000  0.5208290000000  0.4404740000000 1.0
C      1  0.5309210000000  0.5733770000000  0.4978600000000 1.0
C      1  0.5465010000000  0.4924090000000  0.4432040000000 1.0
C      1  0.4576770000000  0.5122030000000  0.4374890000000 1.0
C      1  0.5356260000000  0.5050140000000  0.4853240000000 1.0
C      1  0.5694720000000  0.5255610000000  0.4883370000000 1.0
C      1  0.5586450000000  0.5209830000000  0.4570690000000 1.0
C      1  0.5092170000000  0.4565330000000  0.4433690000000 1.0
C      1  0.5251410000000  0.5598780000000  0.5516020000000 1.0
C      1  0.4322870000000  0.5102490000000  0.4977590000000 1.0
C      1  0.4514040000000  0.4628860000000  0.4930430000000 1.0
C      1  0.4999310000000  0.4902270000000  0.5791600000000 1.0
C      1  0.4144650000000  0.5197990000000  0.4813310000000 1.0
C      1  0.4853550000000  0.5181730000000  0.5052200000000 1.0
C      1  0.5098340000000  0.5498640000000  0.4285500000000 1.0
C      1  0.5267550000000  0.5305560000000  0.4646860000000 1.0
C      1  0.4038150000000  0.4692320000000  0.5073330000000 1.0
C      1  0.5048310000000  0.4292730000000  0.4931200000000 1.0
C      1  0.4711110000000  0.5292500000000  0.5503820000000 1.0
C      1  0.5163710000000  0.4199060000000  0.5547250000000 1.0
C      1  0.5458960000000  0.4863410000000  0.5338550000000 1.0
C      1  0.4795970000000  0.4576170000000  0.5484090000000 1.0
C      1  0.4817670000000  0.5477440000000  0.5315910000000 1.0
C      1  0.5102920000000  0.5352650000000  0.5210090000000 1.0
C      1  0.5214740000000  0.5341590000000  0.5593750000000 1.0
C      1  0.4458030000000  0.4372080000000  0.4913530000000 1.0
END
