TITL C-245600-5259-9 -0.0012795872258598 125000 -332.741266022565 0 0 60 (C1) n - 1
REM
REM in /home/bkarasulu/work/CARBON/AIRSS/Generating-Clusters/AIREBO/Higher-Symm/Only-C60
REM
REM
REM
REM
REM
REM ./C.cell (28575a23ae977d3b5fae324c64b13b57)
REM AIRSS Version 0.9.1 bugfix July 2018 build 013d7b7c2542+ Fri, 06 Jul 2018 19:26:36 +0100
REM compiler GCC version 9.2.1 20190827 (Red Hat 9.2.1-1)
REM options -cpp -mtune=generic -march=x86-64 -g -O0 -fpre-include=/usr/include/finclude/math-vector-fortran.h
REM seed 427055928 -143235554 1266450218 -1429944059 -1872435489 1115422807 -1134548413 2133947753 -1260654386 354917104 -2142152014 -1161540091 -1539286055 1544674508 1385705398 -1866244845 -198013568 836509433 -1398622212 -1744272456 -1637898592 -1905809860 -682112769 107037551 1066424080 1599751894 1901997677 -403308543 1770900143 -1904039086 -631262318 -1714230772 1477128580
REM
CELL 1.54180   50.00000   50.00000   50.00000   90.00000   90.00000   90.00000
LATT -1
SFAC C  
C      1  0.4331340000000  0.5258150000000  0.4857350000000 1.0
C      1  0.5473040000000  0.4797930000000  0.5384310000000 1.0
C      1  0.5604910000000  0.5036180000000  0.4964470000000 1.0
C      1  0.4461800000000  0.5243440000000  0.5342720000000 1.0
C      1  0.4702010000000  0.4844760000000  0.4447460000000 1.0
C      1  0.5249840000000  0.4899710000000  0.5569300000000 1.0
C      1  0.4695630000000  0.5116560000000  0.5501930000000 1.0
C      1  0.5114260000000  0.5017450000000  0.4390900000000 1.0
C      1  0.5248070000000  0.4619240000000  0.4945660000000 1.0
C      1  0.4787670000000  0.4465900000000  0.4837070000000 1.0
C      1  0.4816330000000  0.5348490000000  0.5009470000000 1.0
C      1  0.5312110000000  0.5459030000000  0.4874810000000 1.0
C      1  0.5150620000000  0.4552510000000  0.5264980000000 1.0
C      1  0.5004040000000  0.4640740000000  0.4764500000000 1.0
C      1  0.4999120000000  0.5390680000000  0.4761320000000 1.0
C      1  0.4912440000000  0.5481900000000  0.5255410000000 1.0
C      1  0.4564700000000  0.4579110000000  0.4973690000000 1.0
C      1  0.5429070000000  0.4829230000000  0.5105420000000 1.0
C      1  0.5523760000000  0.5325290000000  0.5049130000000 1.0
C      1  0.4505960000000  0.5376240000000  0.5069820000000 1.0
C      1  0.4972100000000  0.4778810000000  0.4533970000000 1.0
C      1  0.5021290000000  0.4707770000000  0.5487600000000 1.0
C      1  0.4934940000000  0.5317530000000  0.5505320000000 1.0
C      1  0.4938920000000  0.5270530000000  0.4486900000000 1.0
C      1  0.5675470000000  0.4346920000000  0.4778760000000 1.0
C      1  0.4312140000000  0.4544910000000  0.4886560000000 1.0
C      1  0.4478540000000  0.5694580000000  0.5080820000000 1.0
C      1  0.5758580000000  0.5488230000000  0.5054200000000 1.0
C      1  0.4946910000000  0.4540790000000  0.5705090000000 1.0
C      1  0.4975530000000  0.3994270000000  0.4335340000000 1.0
C      1  0.4951560000000  0.5490690000000  0.4272270000000 1.0
C      1  0.4924450000000  0.5478760000000  0.5738870000000 1.0
C      1  0.5097290000000  0.4987130000000  0.4107840000000 1.0
C      1  0.4610930000000  0.5068500000000  0.5771590000000 1.0
C      1  0.4525030000000  0.4676950000000  0.4336020000000 1.0
C      1  0.5313390000000  0.4886150000000  0.5843680000000 1.0
C      1  0.4218540000000  0.5231260000000  0.5441770000000 1.0
C      1  0.5879120000000  0.4988090000000  0.5027960000000 1.0
C      1  0.4067360000000  0.5208870000000  0.4911000000000 1.0
C      1  0.5702810000000  0.4694540000000  0.5492800000000 1.0
C      1  0.5227520000000  0.4282910000000  0.5156270000000 1.0
C      1  0.5006740000000  0.4067550000000  0.4586150000000 1.0
C      1  0.4928130000000  0.5763720000000  0.5228270000000 1.0
C      1  0.5046080000000  0.5714120000000  0.4729540000000 1.0
C      1  0.5423640000000  0.4337650000000  0.4883930000000 1.0
C      1  0.4842660000000  0.4186930000000  0.4829660000000 1.0
C      1  0.5284010000000  0.5766210000000  0.4913800000000 1.0
C      1  0.4716330000000  0.5848550000000  0.5048590000000 1.0
C      1  0.4627660000000  0.4711750000000  0.5209300000000 1.0
C      1  0.5559720000000  0.5014700000000  0.4663540000000 1.0
C      1  0.5397030000000  0.5297210000000  0.5331460000000 1.0
C      1  0.4448220000000  0.5229680000000  0.4609330000000 1.0
C      1  0.5403290000000  0.5035900000000  0.4479180000000 1.0
C      1  0.4779800000000  0.4854260000000  0.5374400000000 1.0
C      1  0.5199130000000  0.5177790000000  0.5473800000000 1.0
C      1  0.4666400000000  0.5120120000000  0.4484530000000 1.0
C      1  0.5016440000000  0.4080470000000  0.5071860000000 1.0
C      1  0.5226170000000  0.4090820000000  0.4809590000000 1.0
C      1  0.5189590000000  0.5863440000000  0.5166180000000 1.0
C      1  0.4819840000000  0.5878420000000  0.4782530000000 1.0
END
