TITL C-246167-7980-35 44314.4260010909 125000 -324.607687089545 0 0 60 (C1) n - 1
REM
REM in /home/bkarasulu/work/CARBON/AIRSS/Generating-Clusters/AIREBO/Higher-Symm/Only-C60
REM
REM
REM
REM
REM
REM ./C.cell (28575a23ae977d3b5fae324c64b13b57)
REM AIRSS Version 0.9.1 bugfix July 2018 build 013d7b7c2542+ Fri, 06 Jul 2018 19:26:36 +0100
REM compiler GCC version 9.2.1 20190827 (Red Hat 9.2.1-1)
REM options -cpp -mtune=generic -march=x86-64 -g -O0 -fpre-include=/usr/include/finclude/math-vector-fortran.h
REM seed -1772549645 231190423 1501822611 1010250882 617047330 -821698421 -182193108 -239619598 -405204683 -275749793 -357318800 -1016373058 -1825456975 1094420608 -27530519 865017648 -1091108423 44055490 1438855281 756421453 -610181144 1508763798 719119635 -1971727285 -688363298 -1677296025 -1664053998 -1924721142 -1115376233 -1863706446 -1026928290 -1096001076 -455215228
REM
CELL 1.54180   50.00000   50.00000   50.00000   90.00000   90.00000   90.00000
LATT -1
SFAC C  
C      1  0.4518810000000  0.5279980000000  0.5531310000000 1.0
C      1  0.4491900000000  0.4721420000000  0.4555840000000 1.0
C      1  0.5329500000000  0.4572740000000  0.5621260000000 1.0
C      1  0.5118100000000  0.5428180000000  0.4354640000000 1.0
C      1  0.4927010000000  0.4668070000000  0.5024260000000 1.0
C      1  0.4947770000000  0.5297910000000  0.5063260000000 1.0
C      1  0.5363530000000  0.4483170000000  0.4375130000000 1.0
C      1  0.5396250000000  0.5522420000000  0.5725060000000 1.0
C      1  0.5048470000000  0.5129610000000  0.4451610000000 1.0
C      1  0.5113670000000  0.4794790000000  0.5588950000000 1.0
C      1  0.4707710000000  0.4722510000000  0.4819130000000 1.0
C      1  0.4673450000000  0.5304430000000  0.5229490000000 1.0
C      1  0.5227550000000  0.4645570000000  0.4590250000000 1.0
C      1  0.5280660000000  0.5403410000000  0.5499430000000 1.0
C      1  0.5326390000000  0.5102200000000  0.4760430000000 1.0
C      1  0.5325200000000  0.4918550000000  0.5266380000000 1.0
C      1  0.5162060000000  0.4358290000000  0.4931760000000 1.0
C      1  0.5149060000000  0.5539320000000  0.5114450000000 1.0
C      1  0.5357150000000  0.5399510000000  0.4902070000000 1.0
C      1  0.5241020000000  0.4613190000000  0.5142660000000 1.0
C      1  0.4448360000000  0.5058550000000  0.4563190000000 1.0
C      1  0.4444770000000  0.5002650000000  0.5349070000000 1.0
C      1  0.4431540000000  0.5412500000000  0.5038550000000 1.0
C      1  0.4414750000000  0.4592560000000  0.4904280000000 1.0
C      1  0.4654340000000  0.4377140000000  0.5007740000000 1.0
C      1  0.4665680000000  0.5610090000000  0.4974410000000 1.0
C      1  0.5074360000000  0.4877420000000  0.4800340000000 1.0
C      1  0.5081400000000  0.5023380000000  0.5107340000000 1.0
C      1  0.4968900000000  0.5458960000000  0.5460300000000 1.0
C      1  0.4929860000000  0.4513640000000  0.4561060000000 1.0
C      1  0.4857220000000  0.5657430000000  0.5207520000000 1.0
C      1  0.4892390000000  0.4340020000000  0.4803070000000 1.0
C      1  0.4757920000000  0.4994260000000  0.4688270000000 1.0
C      1  0.4767040000000  0.4982940000000  0.5238420000000 1.0
C      1  0.5296510000000  0.4948270000000  0.4475510000000 1.0
C      1  0.5223260000000  0.5098450000000  0.5515260000000 1.0
C      1  0.4607330000000  0.4836550000000  0.5573910000000 1.0
C      1  0.4666540000000  0.5204520000000  0.4362030000000 1.0
C      1  0.5525420000000  0.5418480000000  0.4624860000000 1.0
C      1  0.5635520000000  0.4625130000000  0.5203410000000 1.0
C      1  0.4913970000000  0.4713520000000  0.5349500000000 1.0
C      1  0.4929840000000  0.5246540000000  0.4748010000000 1.0
C      1  0.4778700000000  0.5534140000000  0.4723420000000 1.0
C      1  0.4722160000000  0.4441130000000  0.5280840000000 1.0
C      1  0.5421160000000  0.4580400000000  0.4856110000000 1.0
C      1  0.5445680000000  0.5447640000000  0.5227530000000 1.0
C      1  0.4813090000000  0.5264450000000  0.5601310000000 1.0
C      1  0.4760630000000  0.4694270000000  0.4423750000000 1.0
C      1  0.4598680000000  0.4554520000000  0.5535390000000 1.0
C      1  0.4812280000000  0.5449920000000  0.4425820000000 1.0
C      1  0.4844330000000  0.4976400000000  0.5642530000000 1.0
C      1  0.4831830000000  0.4946960000000  0.4298470000000 1.0
C      1  0.5577050000000  0.4863990000000  0.4960580000000 1.0
C      1  0.5644690000000  0.5224040000000  0.5119560000000 1.0
C      1  0.4367580000000  0.4927030000000  0.4865430000000 1.0
C      1  0.4362430000000  0.5111420000000  0.5070080000000 1.0
C      1  0.5428440000000  0.4481590000000  0.5379330000000 1.0
C      1  0.5386630000000  0.5499060000000  0.4406510000000 1.0
C      1  0.5658240000000  0.4950220000000  0.5279300000000 1.0
C      1  0.5654280000000  0.5154530000000  0.4800620000000 1.0
END
