TITL C-245594-3654-14 -0.000955785170820184 125000 -383.722527479642 0 0 60 (C1) n - 1
REM
REM in /home/bkarasulu/work/CARBON/AIRSS/Generating-Clusters/AIREBO/Higher-Symm/Only-C60
REM
REM
REM
REM
REM
REM ./C.cell (28575a23ae977d3b5fae324c64b13b57)
REM AIRSS Version 0.9.1 bugfix July 2018 build 013d7b7c2542+ Fri, 06 Jul 2018 19:26:36 +0100
REM compiler GCC version 9.2.1 20190827 (Red Hat 9.2.1-1)
REM options -cpp -mtune=generic -march=x86-64 -g -O0 -fpre-include=/usr/include/finclude/math-vector-fortran.h
REM seed 119634304 -1092303217 2068522403 1066135720 655077525 1303450277 -124775249 -1359713017 -237089640 -1595079070 1046104189 -1597538002 1400863156 1246337997 -329201855 488075535 1837101521 61349257 -1284595340 2088516268 -1249054972 -1458919929 -318826501 -1395308631 -978700173 -762916267 2117491096 858811626 -1193191938 -1212501744 397279250 -942849706 916358247
REM
CELL 1.54180   50.00000   50.00000   50.00000   90.00000   90.00000   90.00000
LATT -1
SFAC C  
C      1  0.4646570000000  0.4718150000000  0.5513200000000 1.0
C      1  0.4618310000000  0.5480780000000  0.5450230000000 1.0
C      1  0.4632040000000  0.5618540000000  0.4621690000000 1.0
C      1  0.4637580000000  0.4836770000000  0.4318950000000 1.0
C      1  0.4657730000000  0.4401560000000  0.5066540000000 1.0
C      1  0.4635790000000  0.5249640000000  0.5656450000000 1.0
C      1  0.4675400000000  0.4469860000000  0.5396900000000 1.0
C      1  0.4677870000000  0.4532420000000  0.4776830000000 1.0
C      1  0.4629790000000  0.5147220000000  0.4335350000000 1.0
C      1  0.4620860000000  0.5667300000000  0.4928230000000 1.0
C      1  0.5156400000000  0.4451760000000  0.5465980000000 1.0
C      1  0.5116410000000  0.5264800000000  0.5625690000000 1.0
C      1  0.5107240000000  0.5673540000000  0.4921810000000 1.0
C      1  0.5118800000000  0.5139940000000  0.4325380000000 1.0
C      1  0.5133690000000  0.4402420000000  0.4677500000000 1.0
C      1  0.5101090000000  0.5500450000000  0.5470240000000 1.0
C      1  0.5123150000000  0.4686910000000  0.5621100000000 1.0
C      1  0.5152790000000  0.4260260000000  0.4921970000000 1.0
C      1  0.5118010000000  0.4857000000000  0.4316050000000 1.0
C      1  0.5111180000000  0.5613420000000  0.4645110000000 1.0
C      1  0.4388260000000  0.5379530000000  0.5265530000000 1.0
C      1  0.4415540000000  0.5409750000000  0.4705600000000 1.0
C      1  0.4419970000000  0.4878340000000  0.4539780000000 1.0
C      1  0.4367600000000  0.4574440000000  0.5021490000000 1.0
C      1  0.4418230000000  0.4859950000000  0.5425720000000 1.0
C      1  0.4262430000000  0.4711480000000  0.5242580000000 1.0
C      1  0.4432900000000  0.4703120000000  0.4751500000000 1.0
C      1  0.4393610000000  0.5189190000000  0.4540160000000 1.0
C      1  0.4384300000000  0.5475690000000  0.5008250000000 1.0
C      1  0.4419390000000  0.5136610000000  0.5459860000000 1.0
C      1  0.5586430000000  0.5470300000000  0.4966950000000 1.0
C      1  0.5595760000000  0.5118240000000  0.4540540000000 1.0
C      1  0.5607290000000  0.4605420000000  0.4748910000000 1.0
C      1  0.5616940000000  0.4634980000000  0.5299920000000 1.0
C      1  0.5593350000000  0.5173600000000  0.5435660000000 1.0
C      1  0.5590670000000  0.4519190000000  0.5011110000000 1.0
C      1  0.5572270000000  0.4842510000000  0.4548410000000 1.0
C      1  0.5563410000000  0.5381360000000  0.4705710000000 1.0
C      1  0.5558780000000  0.5392290000000  0.5268970000000 1.0
C      1  0.5574540000000  0.4860930000000  0.5454550000000 1.0
C      1  0.5359980000000  0.4829660000000  0.5682430000000 1.0
C      1  0.5342640000000  0.5599640000000  0.5362880000000 1.0
C      1  0.5357150000000  0.5537210000000  0.4529900000000 1.0
C      1  0.5362650000000  0.4721060000000  0.4349980000000 1.0
C      1  0.5401420000000  0.4274140000000  0.5058860000000 1.0
C      1  0.5366010000000  0.5136140000000  0.5651230000000 1.0
C      1  0.5406740000000  0.4402130000000  0.5343280000000 1.0
C      1  0.5375990000000  0.4497200000000  0.4562860000000 1.0
C      1  0.5366280000000  0.5267120000000  0.4379970000000 1.0
C      1  0.5353170000000  0.5661650000000  0.5061230000000 1.0
C      1  0.4928870000000  0.4207710000000  0.5081690000000 1.0
C      1  0.4878430000000  0.4832220000000  0.5628230000000 1.0
C      1  0.4860900000000  0.5575100000000  0.5340500000000 1.0
C      1  0.4876440000000  0.5526140000000  0.4514650000000 1.0
C      1  0.4883880000000  0.4715510000000  0.4387030000000 1.0
C      1  0.4865370000000  0.5663540000000  0.5070980000000 1.0
C      1  0.4882530000000  0.5112370000000  0.5673110000000 1.0
C      1  0.4928940000000  0.4332850000000  0.5351880000000 1.0
C      1  0.4893360000000  0.4534930000000  0.4606300000000 1.0
C      1  0.4876880000000  0.5283990000000  0.4366600000000 1.0
END
