TITL C-245595-5410-30 7107412.22561789 125000 -337.678381717441 0 0 60 (C1) n - 1
REM
REM in /home/bkarasulu/work/CARBON/AIRSS/Generating-Clusters/AIREBO/Higher-Symm/Only-C60
REM
REM
REM
REM
REM
REM ./C.cell (28575a23ae977d3b5fae324c64b13b57)
REM AIRSS Version 0.9.1 bugfix July 2018 build 013d7b7c2542+ Fri, 06 Jul 2018 19:26:36 +0100
REM compiler GCC version 9.2.1 20190827 (Red Hat 9.2.1-1)
REM options -cpp -mtune=generic -march=x86-64 -g -O0 -fpre-include=/usr/include/finclude/math-vector-fortran.h
REM seed 530503698 -1674534400 -830910063 30970869 -619861129 -948304925 -1116152008 -1605577058 -1197876850 1985898374 1899151386 -1454165792 -313430130 -1527260527 -1663873037 1464579409 -122532114 -554672735 854576364 -2047878095 758893227 -246779379 214582875 1694892550 1851032822 -1155861441 55066628 -692591891 1605419573 1677220878 1644123642 1361411379 -1362956532
REM
CELL 1.54180   50.00000   50.00000   50.00000   90.00000   90.00000   90.00000
LATT -1
SFAC C  
C      1  0.5144210000000  0.5032210000000  0.4236810000000 1.0
C      1  0.4954880000000  0.4827710000000  0.4382860000000 1.0
C      1  0.4843170000000  0.5133000000000  0.4319330000000 1.0
C      1  0.5385760000000  0.4703840000000  0.5410590000000 1.0
C      1  0.4579860000000  0.4778610000000  0.5382900000000 1.0
C      1  0.5033960000000  0.5458660000000  0.5392220000000 1.0
C      1  0.4606750000000  0.4790170000000  0.5071450000000 1.0
C      1  0.5008490000000  0.5395490000000  0.5087720000000 1.0
C      1  0.5407540000000  0.4817740000000  0.5115110000000 1.0
C      1  0.4974080000000  0.5107040000000  0.5017220000000 1.0
C      1  0.5236950000000  0.5068110000000  0.5112100000000 1.0
C      1  0.4830350000000  0.4886320000000  0.4939990000000 1.0
C      1  0.4254440000000  0.5259090000000  0.5088450000000 1.0
C      1  0.5601770000000  0.5583910000000  0.5111820000000 1.0
C      1  0.5207460000000  0.4177360000000  0.5123480000000 1.0
C      1  0.5682330000000  0.5084970000000  0.5000640000000 1.0
C      1  0.4754810000000  0.4321690000000  0.5042170000000 1.0
C      1  0.4539990000000  0.5540940000000  0.5035290000000 1.0
C      1  0.4726250000000  0.5722690000000  0.4921900000000 1.0
C      1  0.5707410000000  0.4848110000000  0.4856320000000 1.0
C      1  0.4508180000000  0.4368410000000  0.4903710000000 1.0
C      1  0.5546690000000  0.4987230000000  0.4447200000000 1.0
C      1  0.4641860000000  0.4634410000000  0.4526050000000 1.0
C      1  0.4884170000000  0.5491780000000  0.4482670000000 1.0
C      1  0.4425580000000  0.5326410000000  0.4816970000000 1.0
C      1  0.5612930000000  0.5384520000000  0.4875960000000 1.0
C      1  0.5028760000000  0.4305080000000  0.4942670000000 1.0
C      1  0.5614980000000  0.5021410000000  0.5291330000000 1.0
C      1  0.4742520000000  0.4405200000000  0.5314160000000 1.0
C      1  0.4583150000000  0.5486590000000  0.5299780000000 1.0
C      1  0.4398170000000  0.5050650000000  0.4623710000000 1.0
C      1  0.5359080000000  0.5464200000000  0.4657630000000 1.0
C      1  0.5135210000000  0.4523060000000  0.4797350000000 1.0
C      1  0.5402780000000  0.5010050000000  0.4211420000000 1.0
C      1  0.4762510000000  0.4579760000000  0.4254520000000 1.0
C      1  0.4751530000000  0.5433340000000  0.4207810000000 1.0
C      1  0.5411240000000  0.5553640000000  0.5301600000000 1.0
C      1  0.5286090000000  0.4323020000000  0.5351920000000 1.0
C      1  0.4351110000000  0.5092510000000  0.5294290000000 1.0
C      1  0.4826010000000  0.4651460000000  0.5533040000000 1.0
C      1  0.4785720000000  0.5311060000000  0.5510110000000 1.0
C      1  0.5366370000000  0.5011580000000  0.5526980000000 1.0
C      1  0.5303650000000  0.5263880000000  0.5334500000000 1.0
C      1  0.5095880000000  0.4539490000000  0.5431330000000 1.0
C      1  0.4651510000000  0.5096680000000  0.5324120000000 1.0
C      1  0.5232850000000  0.5726080000000  0.5460410000000 1.0
C      1  0.5554420000000  0.4414000000000  0.5468040000000 1.0
C      1  0.4259030000000  0.4854430000000  0.5468240000000 1.0
C      1  0.4431130000000  0.4644440000000  0.4903090000000 1.0
C      1  0.4983210000000  0.5605520000000  0.4907010000000 1.0
C      1  0.5409360000000  0.4648470000000  0.4854510000000 1.0
C      1  0.4657390000000  0.5253130000000  0.4574510000000 1.0
C      1  0.5527970000000  0.5203780000000  0.4608970000000 1.0
C      1  0.4924170000000  0.4717590000000  0.4700630000000 1.0
C      1  0.5094010000000  0.5549180000000  0.4654770000000 1.0
C      1  0.5589840000000  0.4750000000000  0.4591480000000 1.0
C      1  0.4417170000000  0.4772820000000  0.4642510000000 1.0
C      1  0.5173820000000  0.5018540000000  0.5752240000000 1.0
C      1  0.4908000000000  0.4834730000000  0.5755670000000 1.0
C      1  0.4881500000000  0.5154220000000  0.5748640000000 1.0
END
