TITL C-245598-4421-13 0.00201750125419743 125000 -345.677301674997 0 0 60 (C1) n - 1
REM
REM in /home/bkarasulu/work/CARBON/AIRSS/Generating-Clusters/AIREBO/Higher-Symm/Only-C60
REM
REM
REM
REM
REM
REM ./C.cell (28575a23ae977d3b5fae324c64b13b57)
REM AIRSS Version 0.9.1 bugfix July 2018 build 013d7b7c2542+ Fri, 06 Jul 2018 19:26:36 +0100
REM compiler GCC version 9.2.1 20190827 (Red Hat 9.2.1-1)
REM options -cpp -mtune=generic -march=x86-64 -g -O0 -fpre-include=/usr/include/finclude/math-vector-fortran.h
REM seed -1755856859 -360043771 -1939801629 -1602966748 -640884344 -1544892872 -1684970570 -1742640249 -1382076223 1505639027 978617941 -943362631 -100102449 301435673 -2103541912 20114446 993566986 -1610320123 1273567811 -1252379225 1389742338 -1306641083 -1892065208 -2147304978 -1138771825 -352546318 -737595207 448481742 1349624220 1625064493 -1581017561 1453103862 -1807638963
REM
CELL 1.54180   50.00000   50.00000   50.00000   90.00000   90.00000   90.00000
LATT -1
SFAC C  
C      1  0.5335610000000  0.4757340000000  0.5807940000000 1.0
C      1  0.4800860000000  0.5675280000000  0.5375010000000 1.0
C      1  0.5569250000000  0.5287950000000  0.4754190000000 1.0
C      1  0.4461370000000  0.4780510000000  0.4301330000000 1.0
C      1  0.4589980000000  0.5263890000000  0.5620510000000 1.0
C      1  0.5305610000000  0.5226770000000  0.4311790000000 1.0
C      1  0.5281080000000  0.5654930000000  0.4577480000000 1.0
C      1  0.5316390000000  0.4385840000000  0.5457960000000 1.0
C      1  0.4729040000000  0.4391510000000  0.4460530000000 1.0
C      1  0.4363450000000  0.5491650000000  0.5282020000000 1.0
C      1  0.4393000000000  0.4583690000000  0.4773290000000 1.0
C      1  0.5740630000000  0.4618500000000  0.5602280000000 1.0
C      1  0.5568210000000  0.4840360000000  0.5668780000000 1.0
C      1  0.5439630000000  0.5520000000000  0.4817220000000 1.0
C      1  0.4778340000000  0.5514140000000  0.5605770000000 1.0
C      1  0.4293600000000  0.4751930000000  0.4530060000000 1.0
C      1  0.5469630000000  0.5120370000000  0.4508120000000 1.0
C      1  0.4437670000000  0.5228180000000  0.5384450000000 1.0
C      1  0.4598340000000  0.5627530000000  0.5174200000000 1.0
C      1  0.5621040000000  0.4444480000000  0.5406750000000 1.0
C      1  0.4552680000000  0.4368230000000  0.4712030000000 1.0
C      1  0.5162830000000  0.5502180000000  0.4380680000000 1.0
C      1  0.4709160000000  0.4605840000000  0.4288330000000 1.0
C      1  0.5204210000000  0.4492470000000  0.5696100000000 1.0
C      1  0.4326600000000  0.4973570000000  0.4732870000000 1.0
C      1  0.4964330000000  0.4801950000000  0.4275690000000 1.0
C      1  0.4779170000000  0.4144400000000  0.4766390000000 1.0
C      1  0.5529010000000  0.5021610000000  0.5446420000000 1.0
C      1  0.5582480000000  0.4837230000000  0.4566730000000 1.0
C      1  0.4559680000000  0.5068640000000  0.5176880000000 1.0
C      1  0.4897610000000  0.4565250000000  0.5711230000000 1.0
C      1  0.4923120000000  0.5329610000000  0.4293330000000 1.0
C      1  0.5010210000000  0.5429030000000  0.5792620000000 1.0
C      1  0.5478740000000  0.4609630000000  0.5171940000000 1.0
C      1  0.5242340000000  0.5625250000000  0.5068420000000 1.0
C      1  0.4694130000000  0.5472560000000  0.4948150000000 1.0
C      1  0.4683660000000  0.5000460000000  0.4275880000000 1.0
C      1  0.4475670000000  0.4825280000000  0.4983910000000 1.0
C      1  0.4987660000000  0.4241410000000  0.4538520000000 1.0
C      1  0.5033060000000  0.4786120000000  0.5898960000000 1.0
C      1  0.4776730000000  0.5224550000000  0.5876010000000 1.0
C      1  0.5060110000000  0.5084180000000  0.4177890000000 1.0
C      1  0.5538690000000  0.4887980000000  0.5193380000000 1.0
C      1  0.4772210000000  0.5215660000000  0.5051020000000 1.0
C      1  0.5740870000000  0.5018920000000  0.4777380000000 1.0
C      1  0.5185180000000  0.4498510000000  0.5200860000000 1.0
C      1  0.5058710000000  0.5756420000000  0.5309220000000 1.0
C      1  0.5200410000000  0.5835680000000  0.4809550000000 1.0
C      1  0.5204450000000  0.4626630000000  0.4287000000000 1.0
C      1  0.4914560000000  0.4541780000000  0.5195020000000 1.0
C      1  0.4400590000000  0.5213380000000  0.4632710000000 1.0
C      1  0.4751010000000  0.4546290000000  0.5476340000000 1.0
C      1  0.4643960000000  0.5286030000000  0.4412450000000 1.0
C      1  0.5260370000000  0.5428350000000  0.5684450000000 1.0
C      1  0.5224720000000  0.4370900000000  0.4478440000000 1.0
C      1  0.5323540000000  0.5574200000000  0.5390410000000 1.0
C      1  0.4589560000000  0.5455720000000  0.4694670000000 1.0
C      1  0.5415980000000  0.5262480000000  0.5469260000000 1.0
C      1  0.5421470000000  0.4624050000000  0.4523000000000 1.0
C      1  0.4627780000000  0.4682720000000  0.5216180000000 1.0
END
