TITL C-246170-4966-29 -58456.5683851108 125000 -363.057027841833 0 0 60 (C1) n - 1
REM
REM in /home/bkarasulu/work/CARBON/AIRSS/Generating-Clusters/AIREBO/Higher-Symm/Only-C60
REM
REM
REM
REM
REM
REM ./C.cell (28575a23ae977d3b5fae324c64b13b57)
REM AIRSS Version 0.9.1 bugfix July 2018 build 013d7b7c2542+ Fri, 06 Jul 2018 19:26:36 +0100
REM compiler GCC version 9.2.1 20190827 (Red Hat 9.2.1-1)
REM options -cpp -mtune=generic -march=x86-64 -g -O0 -fpre-include=/usr/include/finclude/math-vector-fortran.h
REM seed 1959365502 1699358152 -689363391 -1629041121 -2038210320 1991897646 -1983898090 1558401969 -1628505241 -1200633027 -824747029 -212357693 -1940750291 1056358236 312842689 292640186 -2026031007 -1833679789 750879545 226375172 1617486080 261357144 2111408019 1684467300 -1049176036 777232005 -1971753327 -1470503496 -1060540597 -242975417 -979971657 746344424 1425057518
REM
CELL 1.54180   50.00000   50.00000   50.00000   90.00000   90.00000   90.00000
LATT -1
SFAC C  
C      1  0.5549260000000  0.4677030000000  0.5207760000000 1.0
C      1  0.5023540000000  0.5608790000000  0.5082690000000 1.0
C      1  0.4510800000000  0.4608280000000  0.5219390000000 1.0
C      1  0.4448190000000  0.4684250000000  0.4836940000000 1.0
C      1  0.5403170000000  0.5503620000000  0.4775420000000 1.0
C      1  0.5431030000000  0.4724600000000  0.4763340000000 1.0
C      1  0.4345620000000  0.5318580000000  0.4772390000000 1.0
C      1  0.5291170000000  0.4471280000000  0.4769570000000 1.0
C      1  0.5636670000000  0.5330700000000  0.4775610000000 1.0
C      1  0.5528390000000  0.5227290000000  0.5213740000000 1.0
C      1  0.5038930000000  0.4356570000000  0.5140650000000 1.0
C      1  0.4383550000000  0.5412270000000  0.5128860000000 1.0
C      1  0.5321850000000  0.4975100000000  0.4374200000000 1.0
C      1  0.4913810000000  0.5410660000000  0.4504070000000 1.0
C      1  0.4721010000000  0.4772060000000  0.4460580000000 1.0
C      1  0.4664740000000  0.4885030000000  0.5563310000000 1.0
C      1  0.5023630000000  0.5397180000000  0.5518460000000 1.0
C      1  0.5269820000000  0.4722030000000  0.5628730000000 1.0
C      1  0.4592270000000  0.5136860000000  0.5476300000000 1.0
C      1  0.5062670000000  0.4528450000000  0.5690250000000 1.0
C      1  0.5244710000000  0.5237110000000  0.5493820000000 1.0
C      1  0.5372700000000  0.5212090000000  0.4236630000000 1.0
C      1  0.4908800000000  0.4564300000000  0.4446240000000 1.0
C      1  0.4673000000000  0.5293310000000  0.4546560000000 1.0
C      1  0.4579080000000  0.5540310000000  0.4881830000000 1.0
C      1  0.4854980000000  0.4381710000000  0.4919790000000 1.0
C      1  0.5654380000000  0.5113610000000  0.4975820000000 1.0
C      1  0.5490310000000  0.5507820000000  0.5237910000000 1.0
C      1  0.5305670000000  0.4327570000000  0.5027460000000 1.0
C      1  0.4274680000000  0.5105420000000  0.5030790000000 1.0
C      1  0.5534310000000  0.4394990000000  0.5180560000000 1.0
C      1  0.5309820000000  0.5610670000000  0.5039530000000 1.0
C      1  0.4305610000000  0.4833630000000  0.5069720000000 1.0
C      1  0.4582200000000  0.4436350000000  0.4964280000000 1.0
C      1  0.4842990000000  0.5600730000000  0.4846740000000 1.0
C      1  0.5614310000000  0.4818270000000  0.4965670000000 1.0
C      1  0.5283340000000  0.4780070000000  0.5319610000000 1.0
C      1  0.4906530000000  0.5438990000000  0.5269020000000 1.0
C      1  0.4725790000000  0.4693400000000  0.5369790000000 1.0
C      1  0.4626780000000  0.4856950000000  0.4711450000000 1.0
C      1  0.5099720000000  0.5397820000000  0.4752830000000 1.0
C      1  0.5291220000000  0.4947460000000  0.4658270000000 1.0
C      1  0.4628250000000  0.5146010000000  0.4849720000000 1.0
C      1  0.5007630000000  0.4453680000000  0.4686090000000 1.0
C      1  0.5188330000000  0.5114550000000  0.4867940000000 1.0
C      1  0.5250360000000  0.5066240000000  0.5199930000000 1.0
C      1  0.5015920000000  0.4570770000000  0.5360270000000 1.0
C      1  0.4672980000000  0.5245960000000  0.5172300000000 1.0
C      1  0.5292360000000  0.4740050000000  0.4221080000000 1.0
C      1  0.5020600000000  0.5528730000000  0.4275940000000 1.0
C      1  0.4608690000000  0.4924470000000  0.4251330000000 1.0
C      1  0.4682610000000  0.4785340000000  0.5827270000000 1.0
C      1  0.4843750000000  0.5441030000000  0.5731110000000 1.0
C      1  0.5421910000000  0.4899030000000  0.5781090000000 1.0
C      1  0.4591760000000  0.5337030000000  0.5677740000000 1.0
C      1  0.4855880000000  0.4573100000000  0.5872850000000 1.0
C      1  0.5425820000000  0.5160750000000  0.5693020000000 1.0
C      1  0.5232160000000  0.5423520000000  0.4136680000000 1.0
C      1  0.5082150000000  0.4564150000000  0.4224080000000 1.0
C      1  0.4537790000000  0.5182410000000  0.4324960000000 1.0
END
