TITL C-245594-3654-13 6822.75443909372 125000 -331.677840245892 0 0 60 (C1) n - 1
REM
REM in /home/bkarasulu/work/CARBON/AIRSS/Generating-Clusters/AIREBO/Higher-Symm/Only-C60
REM
REM
REM
REM
REM
REM ./C.cell (28575a23ae977d3b5fae324c64b13b57)
REM AIRSS Version 0.9.1 bugfix July 2018 build 013d7b7c2542+ Fri, 06 Jul 2018 19:26:36 +0100
REM compiler GCC version 9.2.1 20190827 (Red Hat 9.2.1-1)
REM options -cpp -mtune=generic -march=x86-64 -g -O0 -fpre-include=/usr/include/finclude/math-vector-fortran.h
REM seed 57833490 1278769899 861304995 -1595788995 -934837708 -959585769 -813484577 429751320 560072650 1759883734 111771647 -1269499788 -1598718564 -1332458261 -1091459830 715394134 706765698 -766795333 604689621 -1253370920 -1590356067 815182338 797353554 2084404744 1008208365 366048138 -754322552 1631610184 -242834250 1486388338 -103886689 -1146802670 -1738931623
REM
CELL 1.54180   50.00000   50.00000   50.00000   90.00000   90.00000   90.00000
LATT -1
SFAC C  
C      1  0.5318200000000  0.5502500000000  0.4858790000000 1.0
C      1  0.4829590000000  0.5543060000000  0.4712170000000 1.0
C      1  0.4766610000000  0.5622990000000  0.4970050000000 1.0
C      1  0.4960020000000  0.5526620000000  0.5183940000000 1.0
C      1  0.5237530000000  0.5606980000000  0.5099630000000 1.0
C      1  0.5360370000000  0.4638040000000  0.4509860000000 1.0
C      1  0.4440530000000  0.4738930000000  0.4301480000000 1.0
C      1  0.4551400000000  0.4595430000000  0.5252220000000 1.0
C      1  0.5002500000000  0.4693630000000  0.5649160000000 1.0
C      1  0.5558290000000  0.4627900000000  0.5270770000000 1.0
C      1  0.5522390000000  0.5203020000000  0.4562950000000 1.0
C      1  0.4720780000000  0.5269020000000  0.4345850000000 1.0
C      1  0.4308350000000  0.5122750000000  0.5073800000000 1.0
C      1  0.4788100000000  0.5255340000000  0.5734730000000 1.0
C      1  0.5477560000000  0.5209000000000  0.5419260000000 1.0
C      1  0.4914530000000  0.5251780000000  0.4700370000000 1.0
C      1  0.4807990000000  0.5101220000000  0.4943950000000 1.0
C      1  0.4940570000000  0.5211850000000  0.5197630000000 1.0
C      1  0.5170980000000  0.4997450000000  0.5066980000000 1.0
C      1  0.5208900000000  0.5217650000000  0.4810710000000 1.0
C      1  0.4790420000000  0.4255580000000  0.4827040000000 1.0
C      1  0.4847670000000  0.4227010000000  0.5113270000000 1.0
C      1  0.5146670000000  0.4215220000000  0.5108260000000 1.0
C      1  0.5242030000000  0.4115810000000  0.4840120000000 1.0
C      1  0.5048470000000  0.4302310000000  0.4697510000000 1.0
C      1  0.5411610000000  0.5690740000000  0.4676800000000 1.0
C      1  0.4861310000000  0.5741180000000  0.4522770000000 1.0
C      1  0.4548940000000  0.5772930000000  0.5041000000000 1.0
C      1  0.4904610000000  0.5667150000000  0.5425990000000 1.0
C      1  0.5374710000000  0.5792670000000  0.5246860000000 1.0
C      1  0.5104450000000  0.4880410000000  0.5837210000000 1.0
C      1  0.5746030000000  0.4831290000000  0.5197830000000 1.0
C      1  0.5353750000000  0.4819760000000  0.4290100000000 1.0
C      1  0.4307770000000  0.4982830000000  0.4308500000000 1.0
C      1  0.4375640000000  0.4770240000000  0.5403640000000 1.0
C      1  0.4826330000000  0.4989240000000  0.4502980000000 1.0
C      1  0.4549340000000  0.4969380000000  0.4915740000000 1.0
C      1  0.4816300000000  0.5116180000000  0.5439100000000 1.0
C      1  0.5346050000000  0.4963930000000  0.5312540000000 1.0
C      1  0.5411280000000  0.4950690000000  0.4752010000000 1.0
C      1  0.4343320000000  0.5060510000000  0.5360030000000 1.0
C      1  0.5087150000000  0.5165650000000  0.5773960000000 1.0
C      1  0.5679980000000  0.5119150000000  0.5161120000000 1.0
C      1  0.5317280000000  0.5101600000000  0.4342010000000 1.0
C      1  0.4431650000000  0.5189090000000  0.4463780000000 1.0
C      1  0.4524360000000  0.5217760000000  0.5521250000000 1.0
C      1  0.5327810000000  0.5286730000000  0.5655360000000 1.0
C      1  0.5595550000000  0.5178990000000  0.4896650000000 1.0
C      1  0.5048990000000  0.5177430000000  0.4337450000000 1.0
C      1  0.4374340000000  0.5181850000000  0.4744640000000 1.0
C      1  0.4772840000000  0.4419670000000  0.5312900000000 1.0
C      1  0.5028520000000  0.4501250000000  0.5428270000000 1.0
C      1  0.5256510000000  0.4508110000000  0.5185600000000 1.0
C      1  0.5163090000000  0.4702120000000  0.4953200000000 1.0
C      1  0.5147980000000  0.4572040000000  0.4694990000000 1.0
C      1  0.5605390000000  0.4683800000000  0.4684860000000 1.0
C      1  0.4698760000000  0.4732760000000  0.4398140000000 1.0
C      1  0.4538990000000  0.4670220000000  0.4975600000000 1.0
C      1  0.4788260000000  0.4814540000000  0.5488440000000 1.0
C      1  0.5370670000000  0.4727030000000  0.5498160000000 1.0
END
