TITL C-246170-4966-10 -0.00117280141023428 125000 -318.171804419646 0 0 60 (C1) n - 1
REM
REM in /home/bkarasulu/work/CARBON/AIRSS/Generating-Clusters/AIREBO/Higher-Symm/Only-C60
REM
REM
REM
REM
REM
REM ./C.cell (28575a23ae977d3b5fae324c64b13b57)
REM AIRSS Version 0.9.1 bugfix July 2018 build 013d7b7c2542+ Fri, 06 Jul 2018 19:26:36 +0100
REM compiler GCC version 9.2.1 20190827 (Red Hat 9.2.1-1)
REM options -cpp -mtune=generic -march=x86-64 -g -O0 -fpre-include=/usr/include/finclude/math-vector-fortran.h
REM seed -1912284784 1980521290 1529724863 -1707167869 537371329 1780595089 -773421598 -115732920 396768254 -1326034012 1579724963 -2124041461 1169518047 -428465960 2023383403 -1150985805 1805767256 805099322 523958966 -936431570 893237243 -613608647 -756000271 -275612951 -1668747938 416788402 1974012086 559372034 664687679 1403731628 -1131052896 -1002706318 -548880233
REM
CELL 1.54180   50.00000   50.00000   50.00000   90.00000   90.00000   90.00000
LATT -1
SFAC C  
C      1  0.4631630000000  0.5024970000000  0.4728380000000 1.0
C      1  0.4628570000000  0.5267430000000  0.4946150000000 1.0
C      1  0.4640760000000  0.5147390000000  0.5252780000000 1.0
C      1  0.4580050000000  0.4819440000000  0.5207810000000 1.0
C      1  0.4619170000000  0.4747890000000  0.4890560000000 1.0
C      1  0.5075570000000  0.5241420000000  0.4543370000000 1.0
C      1  0.5022690000000  0.5604610000000  0.5116230000000 1.0
C      1  0.5055220000000  0.5082310000000  0.5574720000000 1.0
C      1  0.5052900000000  0.4559760000000  0.5238350000000 1.0
C      1  0.5078830000000  0.4684210000000  0.4675730000000 1.0
C      1  0.5153690000000  0.4883390000000  0.4882500000000 1.0
C      1  0.5231680000000  0.5176580000000  0.4825220000000 1.0
C      1  0.5102710000000  0.5289360000000  0.5088630000000 1.0
C      1  0.5043710000000  0.5082540000000  0.5264010000000 1.0
C      1  0.5081320000000  0.4845420000000  0.5142630000000 1.0
C      1  0.4807880000000  0.5303250000000  0.5499430000000 1.0
C      1  0.4777110000000  0.4641160000000  0.5419960000000 1.0
C      1  0.4808060000000  0.4506300000000  0.4778970000000 1.0
C      1  0.4802600000000  0.5060910000000  0.4451080000000 1.0
C      1  0.4787900000000  0.5552040000000  0.4875880000000 1.0
C      1  0.4289680000000  0.4709720000000  0.4955680000000 1.0
C      1  0.4299490000000  0.4925610000000  0.4733820000000 1.0
C      1  0.4303600000000  0.5194970000000  0.4876870000000 1.0
C      1  0.4328760000000  0.5126750000000  0.5170160000000 1.0
C      1  0.4233730000000  0.4839070000000  0.5227360000000 1.0
C      1  0.5344970000000  0.5475750000000  0.5460940000000 1.0
C      1  0.5294220000000  0.4665140000000  0.5625350000000 1.0
C      1  0.5325190000000  0.4335420000000  0.4889530000000 1.0
C      1  0.5310370000000  0.4852790000000  0.4293910000000 1.0
C      1  0.5332750000000  0.5611120000000  0.4669930000000 1.0
C      1  0.5040850000000  0.4769580000000  0.5592120000000 1.0
C      1  0.5070880000000  0.4398870000000  0.4966160000000 1.0
C      1  0.5064380000000  0.4847160000000  0.4413060000000 1.0
C      1  0.5071780000000  0.5517570000000  0.4691790000000 1.0
C      1  0.5072390000000  0.5502950000000  0.5422980000000 1.0
C      1  0.5342350000000  0.4550710000000  0.4554110000000 1.0
C      1  0.5308760000000  0.5250810000000  0.4330040000000 1.0
C      1  0.5352380000000  0.5600210000000  0.5068930000000 1.0
C      1  0.5346800000000  0.5140520000000  0.5678170000000 1.0
C      1  0.5335030000000  0.4423720000000  0.5312000000000 1.0
C      1  0.4634940000000  0.5572690000000  0.5384730000000 1.0
C      1  0.4634940000000  0.4834290000000  0.5661150000000 1.0
C      1  0.4667860000000  0.4313100000000  0.5021230000000 1.0
C      1  0.4664820000000  0.4767860000000  0.4347120000000 1.0
C      1  0.4635030000000  0.5550420000000  0.4572130000000 1.0
C      1  0.5552650000000  0.4520370000000  0.4913470000000 1.0
C      1  0.5545050000000  0.4912740000000  0.4459350000000 1.0
C      1  0.5538350000000  0.5404160000000  0.4706710000000 1.0
C      1  0.5518190000000  0.5286690000000  0.5324830000000 1.0
C      1  0.5517350000000  0.4751460000000  0.5452800000000 1.0
C      1  0.4632770000000  0.5086760000000  0.5694680000000 1.0
C      1  0.4657180000000  0.4359770000000  0.5271390000000 1.0
C      1  0.4681290000000  0.4542900000000  0.4466010000000 1.0
C      1  0.4654440000000  0.5362750000000  0.4400340000000 1.0
C      1  0.4621240000000  0.5666880000000  0.5149210000000 1.0
C      1  0.5492100000000  0.5300560000000  0.5006560000000 1.0
C      1  0.5554720000000  0.5036590000000  0.5480860000000 1.0
C      1  0.5579000000000  0.4577550000000  0.5202740000000 1.0
C      1  0.5607010000000  0.4682030000000  0.4654750000000 1.0
C      1  0.5560660000000  0.5211640000000  0.4494660000000 1.0
END
