TITL C-246164-9105-17 -525.076218523628 125000 -319.327096083122 0 0 60 (C1) n - 1
REM
REM in /home/bkarasulu/work/CARBON/AIRSS/Generating-Clusters/AIREBO/Higher-Symm/Only-C60
REM
REM
REM
REM
REM
REM ./C.cell (28575a23ae977d3b5fae324c64b13b57)
REM AIRSS Version 0.9.1 bugfix July 2018 build 013d7b7c2542+ Fri, 06 Jul 2018 19:26:36 +0100
REM compiler GCC version 9.2.1 20190827 (Red Hat 9.2.1-1)
REM options -cpp -mtune=generic -march=x86-64 -g -O0 -fpre-include=/usr/include/finclude/math-vector-fortran.h
REM seed -1006404160 -1232910175 -2018321314 1586315594 1436410280 -1956177566 -518876195 1139859344 1891018310 854326357 1741613127 -1977663383 -1760403819 263538263 2025358726 -526578978 -1750760816 -1193356141 115782013 -945422852 -774637174 2105198033 678287444 -182187952 -1859817104 -37001474 -1853115089 -116491064 -894461492 -1367434287 851531633 737898589 1497911381
REM
CELL 1.54180   50.00000   50.00000   50.00000   90.00000   90.00000   90.00000
LATT -1
SFAC C  
C      1  0.5326210000000  0.4438570000000  0.4688770000000 1.0
C      1  0.4581140000000  0.5471560000000  0.4486310000000 1.0
C      1  0.5126290000000  0.4731960000000  0.4371690000000 1.0
C      1  0.4536130000000  0.5359800000000  0.5452740000000 1.0
C      1  0.4475800000000  0.4743060000000  0.4386550000000 1.0
C      1  0.4928490000000  0.5169490000000  0.5671560000000 1.0
C      1  0.4899850000000  0.5551230000000  0.4516860000000 1.0
C      1  0.4566140000000  0.4508760000000  0.4433600000000 1.0
C      1  0.4828150000000  0.4875480000000  0.5131000000000 1.0
C      1  0.4522110000000  0.4886780000000  0.5277770000000 1.0
C      1  0.5218240000000  0.4729020000000  0.4828720000000 1.0
C      1  0.5022800000000  0.5616150000000  0.5436790000000 1.0
C      1  0.4709870000000  0.5176200000000  0.4554850000000 1.0
C      1  0.5642670000000  0.5035460000000  0.5068080000000 1.0
C      1  0.5060300000000  0.5332500000000  0.4442980000000 1.0
C      1  0.4829970000000  0.4920380000000  0.5717100000000 1.0
C      1  0.4785780000000  0.4491010000000  0.4656310000000 1.0
C      1  0.5570720000000  0.4673660000000  0.4657840000000 1.0
C      1  0.5609470000000  0.4947500000000  0.5357510000000 1.0
C      1  0.5294870000000  0.5622030000000  0.5245160000000 1.0
C      1  0.4896280000000  0.5128820000000  0.4290550000000 1.0
C      1  0.4663180000000  0.5688350000000  0.4704120000000 1.0
C      1  0.5418310000000  0.5836170000000  0.5136070000000 1.0
C      1  0.4760630000000  0.4396740000000  0.4958970000000 1.0
C      1  0.5353720000000  0.4762590000000  0.5105250000000 1.0
C      1  0.5828060000000  0.5271200000000  0.4957090000000 1.0
C      1  0.5241890000000  0.5199320000000  0.5757080000000 1.0
C      1  0.5159500000000  0.4698120000000  0.5376810000000 1.0
C      1  0.4225720000000  0.4790330000000  0.4771220000000 1.0
C      1  0.4334570000000  0.5218360000000  0.4787510000000 1.0
C      1  0.4607890000000  0.4406870000000  0.5208560000000 1.0
C      1  0.5685560000000  0.5461680000000  0.4818380000000 1.0
C      1  0.5244470000000  0.5180300000000  0.4664020000000 1.0
C      1  0.4864060000000  0.4698520000000  0.5545190000000 1.0
C      1  0.4978950000000  0.4901020000000  0.4765140000000 1.0
C      1  0.5062550000000  0.4500200000000  0.4526960000000 1.0
C      1  0.5231330000000  0.4998340000000  0.5476610000000 1.0
C      1  0.4992540000000  0.4891210000000  0.4188570000000 1.0
C      1  0.5271620000000  0.5397040000000  0.5492800000000 1.0
C      1  0.4855250000000  0.5341370000000  0.5387180000000 1.0
C      1  0.4934610000000  0.5213810000000  0.4802810000000 1.0
C      1  0.5238710000000  0.4368390000000  0.5167290000000 1.0
C      1  0.5391350000000  0.4453200000000  0.5419920000000 1.0
C      1  0.5224430000000  0.5339590000000  0.5101380000000 1.0
C      1  0.4462860000000  0.5325120000000  0.5046750000000 1.0
C      1  0.4477410000000  0.4945650000000  0.4647270000000 1.0
C      1  0.4797890000000  0.5349990000000  0.5052050000000 1.0
C      1  0.5047720000000  0.5101880000000  0.5241540000000 1.0
C      1  0.5433310000000  0.5249100000000  0.4900730000000 1.0
C      1  0.5326780000000  0.4253210000000  0.4936790000000 1.0
C      1  0.5515480000000  0.5169620000000  0.5551000000000 1.0
C      1  0.4638140000000  0.4631890000000  0.5383930000000 1.0
C      1  0.4370850000000  0.5143810000000  0.5286410000000 1.0
C      1  0.4966250000000  0.4564310000000  0.5130230000000 1.0
C      1  0.5586190000000  0.4684280000000  0.5421170000000 1.0
C      1  0.4096900000000  0.5126640000000  0.5335750000000 1.0
C      1  0.4622150000000  0.5613730000000  0.4967430000000 1.0
C      1  0.5329080000000  0.4888540000000  0.4549630000000 1.0
C      1  0.5624360000000  0.4758910000000  0.4926440000000 1.0
C      1  0.4704490000000  0.4771160000000  0.4831230000000 1.0
END
