TITL C-246168-3210-5 -0.000242605533851411 125000 -343.258482972564 0 0 60 (C1) n - 1
REM
REM in /home/bkarasulu/work/CARBON/AIRSS/Generating-Clusters/AIREBO/Higher-Symm/Only-C60
REM
REM
REM
REM
REM
REM ./C.cell (28575a23ae977d3b5fae324c64b13b57)
REM AIRSS Version 0.9.1 bugfix July 2018 build 013d7b7c2542+ Fri, 06 Jul 2018 19:26:36 +0100
REM compiler GCC version 9.2.1 20190827 (Red Hat 9.2.1-1)
REM options -cpp -mtune=generic -march=x86-64 -g -O0 -fpre-include=/usr/include/finclude/math-vector-fortran.h
REM seed 1406130684 318610979 -319907005 1914484651 -21903937 1693523187 620702183 -1936191988 -28967688 806636920 1078860605 286604170 1041947887 -1220821741 -889886301 -201440779 -1976417497 1305508328 1745674225 538391514 -2035073944 554940469 1432837088 -279844325 145552884 1591601286 -39492952 -432593556 70155630 -721328572 -1896592039 -1338178015 594767340
REM
CELL 1.54180   50.00000   50.00000   50.00000   90.00000   90.00000   90.00000
LATT -1
SFAC C  
C      1  0.5162730000000  0.5172480000000  0.5759630000000 1.0
C      1  0.5271700000000  0.5816770000000  0.5110760000000 1.0
C      1  0.5810640000000  0.5138500000000  0.5126730000000 1.0
C      1  0.4854600000000  0.5135830000000  0.4203530000000 1.0
C      1  0.4825390000000  0.4823730000000  0.5780510000000 1.0
C      1  0.5146600000000  0.4864940000000  0.4207220000000 1.0
C      1  0.4855050000000  0.5800090000000  0.4846870000000 1.0
C      1  0.4720530000000  0.4182210000000  0.5101980000000 1.0
C      1  0.5145790000000  0.4215970000000  0.4848840000000 1.0
C      1  0.4228370000000  0.5162200000000  0.4819050000000 1.0
C      1  0.4211910000000  0.4826340000000  0.5173610000000 1.0
C      1  0.5777450000000  0.4848180000000  0.4856080000000 1.0
C      1  0.5141210000000  0.4864470000000  0.5797360000000 1.0
C      1  0.5276360000000  0.4215320000000  0.5106290000000 1.0
C      1  0.5788090000000  0.4823400000000  0.5168520000000 1.0
C      1  0.4828860000000  0.4824850000000  0.4218940000000 1.0
C      1  0.4848810000000  0.5132910000000  0.5760790000000 1.0
C      1  0.5172090000000  0.5176550000000  0.4214200000000 1.0
C      1  0.4860340000000  0.4195620000000  0.4848510000000 1.0
C      1  0.4724380000000  0.5797980000000  0.5103160000000 1.0
C      1  0.5141950000000  0.5812860000000  0.4852170000000 1.0
C      1  0.4226990000000  0.4845570000000  0.4861930000000 1.0
C      1  0.4194520000000  0.5141350000000  0.5126860000000 1.0
C      1  0.5779080000000  0.5166670000000  0.4818810000000 1.0
C      1  0.4747590000000  0.4667970000000  0.5509500000000 1.0
C      1  0.4744770000000  0.5503650000000  0.4734570000000 1.0
C      1  0.5487320000000  0.4750640000000  0.4729090000000 1.0
C      1  0.5270060000000  0.4718710000000  0.4486250000000 1.0
C      1  0.5269660000000  0.5267340000000  0.5473910000000 1.0
C      1  0.4732920000000  0.5286400000000  0.4480060000000 1.0
C      1  0.5330860000000  0.5517000000000  0.5260710000000 1.0
C      1  0.5252110000000  0.4518270000000  0.4754760000000 1.0
C      1  0.4655170000000  0.4476020000000  0.5261080000000 1.0
C      1  0.4485840000000  0.4752410000000  0.5326930000000 1.0
C      1  0.4516800000000  0.5261530000000  0.4723750000000 1.0
C      1  0.5554540000000  0.5279260000000  0.5291760000000 1.0
C      1  0.4740250000000  0.5252260000000  0.5472810000000 1.0
C      1  0.4708700000000  0.4466110000000  0.4725940000000 1.0
C      1  0.5488650000000  0.5272610000000  0.4729610000000 1.0
C      1  0.5256250000000  0.5303700000000  0.4499740000000 1.0
C      1  0.5277690000000  0.4702480000000  0.5539660000000 1.0
C      1  0.4742050000000  0.4705720000000  0.4507370000000 1.0
C      1  0.5290910000000  0.4502300000000  0.5274260000000 1.0
C      1  0.5287260000000  0.5539270000000  0.4725500000000 1.0
C      1  0.4689430000000  0.5503620000000  0.5260780000000 1.0
C      1  0.4452100000000  0.5281170000000  0.5294510000000 1.0
C      1  0.4519550000000  0.4741690000000  0.4749180000000 1.0
C      1  0.5508760000000  0.4748950000000  0.5311320000000 1.0
C      1  0.4567510000000  0.5008170000000  0.5166790000000 1.0
C      1  0.5416820000000  0.5014030000000  0.4888840000000 1.0
C      1  0.5149000000000  0.5449350000000  0.5014400000000 1.0
C      1  0.4883360000000  0.5441530000000  0.5017470000000 1.0
C      1  0.4837540000000  0.4554700000000  0.5019130000000 1.0
C      1  0.5103130000000  0.4567600000000  0.5030950000000 1.0
C      1  0.5435120000000  0.5009700000000  0.5157000000000 1.0
C      1  0.5008980000000  0.5103430000000  0.5397390000000 1.0
C      1  0.4588520000000  0.5008600000000  0.4898040000000 1.0
C      1  0.5002040000000  0.5137370000000  0.4573160000000 1.0
C      1  0.5005740000000  0.4832310000000  0.5424450000000 1.0
C      1  0.4999560000000  0.4869330000000  0.4576990000000 1.0
END
