TITL C-245599-5050-5 1058603.42381536 125000 -345.762079662732 0 0 60 (C1) n - 1
REM
REM in /home/bkarasulu/work/CARBON/AIRSS/Generating-Clusters/AIREBO/Higher-Symm/Only-C60
REM
REM
REM
REM
REM
REM ./C.cell (28575a23ae977d3b5fae324c64b13b57)
REM AIRSS Version 0.9.1 bugfix July 2018 build 013d7b7c2542+ Fri, 06 Jul 2018 19:26:36 +0100
REM compiler GCC version 9.2.1 20190827 (Red Hat 9.2.1-1)
REM options -cpp -mtune=generic -march=x86-64 -g -O0 -fpre-include=/usr/include/finclude/math-vector-fortran.h
REM seed -1197391244 -1583270152 -823901520 -1583223346 -2045278761 1379313257 -1423600582 -782819317 815691061 2137562450 723289727 -2063629850 -110146847 1215130809 2007136456 587202057 -1353150742 -390716603 -540038529 1384145067 -961692918 47867638 166713757 522981054 -1194951104 1997229326 302836307 -217784893 -652777730 -1956314966 -1302650262 -2091281018 -423499249
REM
CELL 1.54180   50.00000   50.00000   50.00000   90.00000   90.00000   90.00000
LATT -1
SFAC C  
C      1  0.5031700000000  0.4654960000000  0.5586410000000 1.0
C      1  0.4501540000000  0.4644010000000  0.4593390000000 1.0
C      1  0.5501660000000  0.4671110000000  0.4762780000000 1.0
C      1  0.5525590000000  0.5040040000000  0.5467390000000 1.0
C      1  0.4414660000000  0.4930880000000  0.5225090000000 1.0
C      1  0.5182850000000  0.4997010000000  0.4327430000000 1.0
C      1  0.4775010000000  0.5617990000000  0.5371290000000 1.0
C      1  0.4604700000000  0.5723700000000  0.4729020000000 1.0
C      1  0.5435910000000  0.5611990000000  0.5001520000000 1.0
C      1  0.5429760000000  0.5019270000000  0.4441820000000 1.0
C      1  0.5301090000000  0.5048140000000  0.5627300000000 1.0
C      1  0.4333630000000  0.4996630000000  0.4962570000000 1.0
C      1  0.5194060000000  0.5718750000000  0.5004780000000 1.0
C      1  0.4939720000000  0.5762990000000  0.5194270000000 1.0
C      1  0.4885770000000  0.5693560000000  0.4867550000000 1.0
C      1  0.5461030000000  0.5242670000000  0.4664430000000 1.0
C      1  0.5074240000000  0.5253010000000  0.5527770000000 1.0
C      1  0.4438470000000  0.5258120000000  0.4772260000000 1.0
C      1  0.4659670000000  0.5009700000000  0.4701560000000 1.0
C      1  0.5357640000000  0.5062550000000  0.4896790000000 1.0
C      1  0.4893790000000  0.5088210000000  0.5329100000000 1.0
C      1  0.4567000000000  0.5464180000000  0.5211800000000 1.0
C      1  0.4920380000000  0.5273080000000  0.4508190000000 1.0
C      1  0.5535030000000  0.5349490000000  0.5202980000000 1.0
C      1  0.4338430000000  0.4891550000000  0.4655040000000 1.0
C      1  0.5577920000000  0.4792210000000  0.4522750000000 1.0
C      1  0.5182070000000  0.4823970000000  0.5758560000000 1.0
C      1  0.4978290000000  0.4446430000000  0.4581080000000 1.0
C      1  0.5370950000000  0.4539940000000  0.5186780000000 1.0
C      1  0.4671650000000  0.4384770000000  0.5402980000000 1.0
C      1  0.4819380000000  0.5311600000000  0.5119360000000 1.0
C      1  0.4946310000000  0.5379880000000  0.4808680000000 1.0
C      1  0.5111070000000  0.5193390000000  0.5012860000000 1.0
C      1  0.4505450000000  0.5500140000000  0.4598220000000 1.0
C      1  0.5612470000000  0.5449140000000  0.4824740000000 1.0
C      1  0.4873920000000  0.5475930000000  0.5599220000000 1.0
C      1  0.5214040000000  0.4536380000000  0.4751590000000 1.0
C      1  0.5160610000000  0.4653920000000  0.5330970000000 1.0
C      1  0.4627380000000  0.4561560000000  0.4853800000000 1.0
C      1  0.5537710000000  0.4716170000000  0.5040440000000 1.0
C      1  0.4746070000000  0.4639580000000  0.5509450000000 1.0
C      1  0.4795760000000  0.4648100000000  0.4501420000000 1.0
C      1  0.4767410000000  0.4236530000000  0.5181880000000 1.0
C      1  0.4883250000000  0.4203490000000  0.4713790000000 1.0
C      1  0.5250960000000  0.4325260000000  0.5002330000000 1.0
C      1  0.4811570000000  0.4807310000000  0.4894560000000 1.0
C      1  0.5146710000000  0.4823380000000  0.4869800000000 1.0
C      1  0.4996780000000  0.4840960000000  0.5162000000000 1.0
C      1  0.5030100000000  0.4128410000000  0.5161390000000 1.0
C      1  0.4689690000000  0.4298800000000  0.4912270000000 1.0
C      1  0.5108290000000  0.4054200000000  0.4855850000000 1.0
C      1  0.4355490000000  0.5381530000000  0.5065880000000 1.0
C      1  0.5226950000000  0.5365200000000  0.4475990000000 1.0
C      1  0.5362360000000  0.5403830000000  0.5457990000000 1.0
C      1  0.5571900000000  0.5017700000000  0.5136770000000 1.0
C      1  0.4653170000000  0.4875610000000  0.5376140000000 1.0
C      1  0.4889420000000  0.4947630000000  0.4458670000000 1.0
C      1  0.5816370000000  0.5340320000000  0.5012070000000 1.0
C      1  0.4735000000000  0.5454970000000  0.5835080000000 1.0
C      1  0.4670210000000  0.5418170000000  0.4392100000000 1.0
END
