TITL C-246165-5856-12 -0.000210038224009083 125000 -313.007862155158 0 0 60 (C3) n - 1
REM
REM in /home/bkarasulu/work/CARBON/AIRSS/Generating-Clusters/AIREBO/Higher-Symm/Only-C60
REM
REM
REM
REM
REM
REM ./C.cell (28575a23ae977d3b5fae324c64b13b57)
REM AIRSS Version 0.9.1 bugfix July 2018 build 013d7b7c2542+ Fri, 06 Jul 2018 19:26:36 +0100
REM compiler GCC version 9.2.1 20190827 (Red Hat 9.2.1-1)
REM options -cpp -mtune=generic -march=x86-64 -g -O0 -fpre-include=/usr/include/finclude/math-vector-fortran.h
REM seed 630529470 -1340093457 -301142703 1899506992 1475243687 993380735 1952632984 871922269 -49699842 1757655718 1752436343 -1996804463 719048893 295777214 845022764 -1080697856 397623370 313094537 934856327 460658975 240439529 548060880 -1816254192 1066047819 -723302687 792538177 1340985526 573137721 196715718 -995634123 1040130287 330404733 1877087739
REM
CELL 1.54180   50.00000   50.00000   50.00000   90.00000   90.00000   90.00000
LATT -1
SFAC C  
C      1  0.5533610000000  0.5055510000000  0.5329820000000 1.0
C      1  0.5291390000000  0.5504900000000  0.5072540000000 1.0
C      1  0.5098370000000  0.5303990000000  0.5570210000000 1.0
C      1  0.5516130000000  0.4939950000000  0.4676360000000 1.0
C      1  0.4429790000000  0.4901630000000  0.5303980000000 1.0
C      1  0.4495100000000  0.5072540000000  0.4708610000000 1.0
C      1  0.5323640000000  0.4483870000000  0.4939950000000 1.0
C      1  0.4670180000000  0.4466390000000  0.5055510000000 1.0
C      1  0.4696010000000  0.5570210000000  0.4901630000000 1.0
C      1  0.5060050000000  0.4676360000000  0.4483870000000 1.0
C      1  0.4927460000000  0.4708610000000  0.5504900000000 1.0
C      1  0.4944490000000  0.5329820000000  0.4466390000000 1.0
C      1  0.5542200000000  0.5297680000000  0.5118180000000 1.0
C      1  0.5332380000000  0.5096030000000  0.5564660000000 1.0
C      1  0.5069280000000  0.5498820000000  0.5318380000000 1.0
C      1  0.5557320000000  0.4699130000000  0.4886370000000 1.0
C      1  0.4501180000000  0.5318380000000  0.4930710000000 1.0
C      1  0.4435340000000  0.4667620000000  0.5096030000000 1.0
C      1  0.5300870000000  0.4886370000000  0.4442680000000 1.0
C      1  0.4702320000000  0.5118180000000  0.4457800000000 1.0
C      1  0.4681620000000  0.4930710000000  0.5498820000000 1.0
C      1  0.5113630000000  0.4442680000000  0.4699130000000 1.0
C      1  0.4903970000000  0.5564660000000  0.4667620000000 1.0
C      1  0.4881820000000  0.4457800000000  0.5297680000000 1.0
C      1  0.5049920000000  0.5795970000000  0.5200520000000 1.0
C      1  0.5186180000000  0.5024860000000  0.5841680000000 1.0
C      1  0.5834860000000  0.5253970000000  0.4957740000000 1.0
C      1  0.4972570000000  0.4144750000000  0.4764950000000 1.0
C      1  0.5042270000000  0.4165140000000  0.5253960000000 1.0
C      1  0.4975130000000  0.5841680000000  0.4813820000000 1.0
C      1  0.5235050000000  0.5027430000000  0.4144750000000 1.0
C      1  0.4799480000000  0.4950080000000  0.5795970000000 1.0
C      1  0.4746040000000  0.4957740000000  0.4165140000000 1.0
C      1  0.5855250000000  0.4764960000000  0.5027430000000 1.0
C      1  0.4158320000000  0.4813810000000  0.5024860000000 1.0
C      1  0.4204030000000  0.5200520000000  0.4950080000000 1.0
C      1  0.4929350000000  0.5226120000000  0.5852820000000 1.0
C      1  0.5253400000000  0.5822050000000  0.4955970000000 1.0
C      1  0.5826120000000  0.5027810000000  0.5190810000000 1.0
C      1  0.5010560000000  0.4796290000000  0.4185200000000 1.0
C      1  0.4972190000000  0.5190810000000  0.4173880000000 1.0
C      1  0.5044030000000  0.4746600000000  0.5822050000000 1.0
C      1  0.5203710000000  0.4185200000000  0.4989440000000 1.0
C      1  0.4773870000000  0.5852810000000  0.5070650000000 1.0
C      1  0.4809190000000  0.4173880000000  0.5027810000000 1.0
C      1  0.5814800000000  0.4989440000000  0.4796290000000 1.0
C      1  0.4177950000000  0.4955970000000  0.4746600000000 1.0
C      1  0.4147180000000  0.5070650000000  0.5226120000000 1.0
C      1  0.4535930000000  0.5204520000000  0.5249950000000 1.0
C      1  0.5461750000000  0.4754210000000  0.5195400000000 1.0
C      1  0.5443320000000  0.5244060000000  0.4813360000000 1.0
C      1  0.5186640000000  0.4556680000000  0.5244060000000 1.0
C      1  0.5196690000000  0.5460180000000  0.4745660000000 1.0
C      1  0.4750050000000  0.5464070000000  0.5204520000000 1.0
C      1  0.5245790000000  0.5195400000000  0.4538250000000 1.0
C      1  0.5254340000000  0.4803310000000  0.5460180000000 1.0
C      1  0.4795480000000  0.5249940000000  0.5464070000000 1.0
C      1  0.4804610000000  0.4538250000000  0.4754200000000 1.0
C      1  0.4755940000000  0.4813360000000  0.4556680000000 1.0
C      1  0.4539820000000  0.4745660000000  0.4803310000000 1.0
END
