TITL C-246166-1561-6 2979.29415727469 125000 -364.676572483854 0 0 60 (C1) n - 1
REM
REM in /home/bkarasulu/work/CARBON/AIRSS/Generating-Clusters/AIREBO/Higher-Symm/Only-C60
REM
REM
REM
REM
REM
REM ./C.cell (28575a23ae977d3b5fae324c64b13b57)
REM AIRSS Version 0.9.1 bugfix July 2018 build 013d7b7c2542+ Fri, 06 Jul 2018 19:26:36 +0100
REM compiler GCC version 9.2.1 20190827 (Red Hat 9.2.1-1)
REM options -cpp -mtune=generic -march=x86-64 -g -O0 -fpre-include=/usr/include/finclude/math-vector-fortran.h
REM seed -981845341 1550282563 -923186390 -1171531878 -1008863951 1161452786 1576493705 -2131879650 2008183357 1175428083 1524035546 -1539147137 1375436802 -948005066 1170722741 -1632183085 1005257972 726186006 -76136948 -1681718831 -1469882466 322303566 796632221 1952276693 1747371449 431412572 64162334 -1487951561 -382340624 -1928055407 501161774 508639542 175190954
REM
CELL 1.54180   50.00000   50.00000   50.00000   90.00000   90.00000   90.00000
LATT -1
SFAC C  
C      1  0.4786840000000  0.4406160000000  0.5307160000000 1.0
C      1  0.4727090000000  0.4510940000000  0.4519890000000 1.0
C      1  0.4786760000000  0.5282480000000  0.4405560000000 1.0
C      1  0.4731440000000  0.5676140000000  0.5095870000000 1.0
C      1  0.4790350000000  0.5136550000000  0.5657670000000 1.0
C      1  0.4816390000000  0.5263130000000  0.5358830000000 1.0
C      1  0.4822490000000  0.4726500000000  0.5347890000000 1.0
C      1  0.4813500000000  0.4591220000000  0.4832580000000 1.0
C      1  0.4812390000000  0.4999060000000  0.4561490000000 1.0
C      1  0.4813960000000  0.5424300000000  0.4895060000000 1.0
C      1  0.4730620000000  0.4772780000000  0.4312660000000 1.0
C      1  0.4802420000000  0.5565730000000  0.4583500000000 1.0
C      1  0.4735270000000  0.5595200000000  0.5419850000000 1.0
C      1  0.4798140000000  0.4803010000000  0.5684840000000 1.0
C      1  0.4798240000000  0.4287340000000  0.4992660000000 1.0
C      1  0.4592690000000  0.5309250000000  0.4683510000000 1.0
C      1  0.4559980000000  0.5401520000000  0.5202800000000 1.0
C      1  0.4597170000000  0.4941420000000  0.5448050000000 1.0
C      1  0.4593110000000  0.4554190000000  0.5070150000000 1.0
C      1  0.4555960000000  0.4793360000000  0.4603650000000 1.0
C      1  0.5308870000000  0.5295580000000  0.4415420000000 1.0
C      1  0.5389470000000  0.5491030000000  0.5193010000000 1.0
C      1  0.5307780000000  0.5118870000000  0.5651490000000 1.0
C      1  0.5299810000000  0.4399590000000  0.5283210000000 1.0
C      1  0.5385980000000  0.4713580000000  0.4553970000000 1.0
C      1  0.5579210000000  0.4767190000000  0.4921130000000 1.0
C      1  0.5586460000000  0.5006000000000  0.4766640000000 1.0
C      1  0.5587860000000  0.5224000000000  0.4946200000000 1.0
C      1  0.5580560000000  0.5118850000000  0.5210430000000 1.0
C      1  0.5570830000000  0.4836100000000  0.5195840000000 1.0
C      1  0.5328710000000  0.4719050000000  0.5340540000000 1.0
C      1  0.5336510000000  0.4595660000000  0.4842240000000 1.0
C      1  0.5340150000000  0.5026010000000  0.4574140000000 1.0
C      1  0.5343340000000  0.5410410000000  0.4890850000000 1.0
C      1  0.5338330000000  0.5231070000000  0.5363990000000 1.0
C      1  0.5184430000000  0.5669320000000  0.5259710000000 1.0
C      1  0.5305250000000  0.4836570000000  0.5642740000000 1.0
C      1  0.5306510000000  0.4335250000000  0.5008130000000 1.0
C      1  0.5179620000000  0.4614850000000  0.4392700000000 1.0
C      1  0.5313100000000  0.5515850000000  0.4596380000000 1.0
C      1  0.5060850000000  0.5009470000000  0.4737980000000 1.0
C      1  0.5063160000000  0.5253780000000  0.4933600000000 1.0
C      1  0.5062680000000  0.5146430000000  0.5220350000000 1.0
C      1  0.5062710000000  0.4834980000000  0.5203960000000 1.0
C      1  0.5062640000000  0.4751940000000  0.4903140000000 1.0
C      1  0.5039790000000  0.5563290000000  0.5498430000000 1.0
C      1  0.5074540000000  0.4650480000000  0.5647900000000 1.0
C      1  0.5076540000000  0.4293080000000  0.4813560000000 1.0
C      1  0.5036490000000  0.4846350000000  0.4268460000000 1.0
C      1  0.5082530000000  0.5666750000000  0.4729090000000 1.0
C      1  0.4378740000000  0.4756530000000  0.5055030000000 1.0
C      1  0.4363780000000  0.4880900000000  0.4796600000000 1.0
C      1  0.4370890000000  0.5164600000000  0.4826490000000 1.0
C      1  0.4366280000000  0.5214540000000  0.5107500000000 1.0
C      1  0.4379970000000  0.4966740000000  0.5249510000000 1.0
C      1  0.5034180000000  0.5736970000000  0.5009060000000 1.0
C      1  0.5076590000000  0.5316900000000  0.5654730000000 1.0
C      1  0.5066980000000  0.4434210000000  0.5465570000000 1.0
C      1  0.5028480000000  0.4409180000000  0.4549870000000 1.0
C      1  0.5074590000000  0.5137780000000  0.4296730000000 1.0
END
