TITL C-245597-4513-19 8892.28306544079 125000 -358.251762243508 0 0 60 (C1) n - 1
REM
REM in /home/bkarasulu/work/CARBON/AIRSS/Generating-Clusters/AIREBO/Higher-Symm/Only-C60
REM
REM
REM
REM
REM
REM ./C.cell (28575a23ae977d3b5fae324c64b13b57)
REM AIRSS Version 0.9.1 bugfix July 2018 build 013d7b7c2542+ Fri, 06 Jul 2018 19:26:36 +0100
REM compiler GCC version 9.2.1 20190827 (Red Hat 9.2.1-1)
REM options -cpp -mtune=generic -march=x86-64 -g -O0 -fpre-include=/usr/include/finclude/math-vector-fortran.h
REM seed 1594162281 337308985 -190661290 -298180685 376824982 1119665545 1482226250 -1667316344 1640799240 1793050382 -1811068170 -958796923 2062109806 1105972869 823773707 -1902485536 -1794054013 806266258 1627747652 -1327996815 1632301169 -1183391596 -1263062156 -220494681 -1832255804 -565385404 522938455 1939671461 443729916 -1391176546 -1940264562 697309415 894220516
REM
CELL 1.54180   50.00000   50.00000   50.00000   90.00000   90.00000   90.00000
LATT -1
SFAC C  
C      1  0.4533040000000  0.5090150000000  0.5508070000000 1.0
C      1  0.4456360000000  0.4663090000000  0.5238660000000 1.0
C      1  0.4458020000000  0.4696640000000  0.4732980000000 1.0
C      1  0.4296830000000  0.5138460000000  0.4621170000000 1.0
C      1  0.4448040000000  0.5442130000000  0.5080420000000 1.0
C      1  0.4739740000000  0.5186210000000  0.5684460000000 1.0
C      1  0.4659150000000  0.4402110000000  0.5304540000000 1.0
C      1  0.4800040000000  0.4450210000000  0.4496340000000 1.0
C      1  0.4773250000000  0.5159720000000  0.4344800000000 1.0
C      1  0.4683350000000  0.5649630000000  0.5003230000000 1.0
C      1  0.5093700000000  0.4665570000000  0.4710080000000 1.0
C      1  0.5122520000000  0.5029380000000  0.4483150000000 1.0
C      1  0.5065210000000  0.5548840000000  0.4852020000000 1.0
C      1  0.5069220000000  0.5185960000000  0.5463640000000 1.0
C      1  0.5061900000000  0.4684190000000  0.5439250000000 1.0
C      1  0.4802500000000  0.5452930000000  0.5596050000000 1.0
C      1  0.4633650000000  0.4597030000000  0.5587250000000 1.0
C      1  0.4658500000000  0.4480840000000  0.4730560000000 1.0
C      1  0.4641190000000  0.4919450000000  0.4342860000000 1.0
C      1  0.4605080000000  0.5536200000000  0.4728060000000 1.0
C      1  0.4840110000000  0.5209170000000  0.5143500000000 1.0
C      1  0.4992060000000  0.4935980000000  0.5277220000000 1.0
C      1  0.4853750000000  0.4833110000000  0.5008790000000 1.0
C      1  0.5016780000000  0.4963980000000  0.4775080000000 1.0
C      1  0.4941290000000  0.5255780000000  0.4856100000000 1.0
C      1  0.4362850000000  0.5356860000000  0.4782550000000 1.0
C      1  0.4543300000000  0.5237870000000  0.5260440000000 1.0
C      1  0.4441750000000  0.4821360000000  0.5501010000000 1.0
C      1  0.4531580000000  0.4787570000000  0.5000380000000 1.0
C      1  0.4427530000000  0.4899450000000  0.4535870000000 1.0
C      1  0.4992850000000  0.5695710000000  0.5136250000000 1.0
C      1  0.5013930000000  0.4990300000000  0.5730110000000 1.0
C      1  0.4991010000000  0.4427860000000  0.5266960000000 1.0
C      1  0.5082110000000  0.4610710000000  0.4393510000000 1.0
C      1  0.5064730000000  0.5337310000000  0.4352500000000 1.0
C      1  0.4821040000000  0.5383210000000  0.4585110000000 1.0
C      1  0.4847420000000  0.5487810000000  0.5328730000000 1.0
C      1  0.4885740000000  0.4689250000000  0.5694700000000 1.0
C      1  0.4804080000000  0.4496500000000  0.5005290000000 1.0
C      1  0.4771840000000  0.4673900000000  0.4269630000000 1.0
C      1  0.5338420000000  0.5313520000000  0.5518690000000 1.0
C      1  0.5368060000000  0.4612700000000  0.5493140000000 1.0
C      1  0.5322940000000  0.4476820000000  0.4780850000000 1.0
C      1  0.5413590000000  0.5015830000000  0.4388170000000 1.0
C      1  0.5363700000000  0.5587060000000  0.4833430000000 1.0
C      1  0.5612350000000  0.4940330000000  0.5260240000000 1.0
C      1  0.5615030000000  0.4748000000000  0.5035740000000 1.0
C      1  0.5642460000000  0.4897840000000  0.4784010000000 1.0
C      1  0.5623410000000  0.5184750000000  0.4852770000000 1.0
C      1  0.5605380000000  0.5208810000000  0.5143720000000 1.0
C      1  0.5325790000000  0.5610960000000  0.5142040000000 1.0
C      1  0.5357550000000  0.5039270000000  0.5682730000000 1.0
C      1  0.5313580000000  0.4434670000000  0.5256480000000 1.0
C      1  0.5406610000000  0.4561900000000  0.4490730000000 1.0
C      1  0.5392210000000  0.5316820000000  0.4444940000000 1.0
C      1  0.5553260000000  0.4811220000000  0.4520890000000 1.0
C      1  0.5500970000000  0.5387830000000  0.4692900000000 1.0
C      1  0.5462370000000  0.5411070000000  0.5286390000000 1.0
C      1  0.5505000000000  0.4853960000000  0.5514580000000 1.0
C      1  0.5450290000000  0.4514210000000  0.5026260000000 1.0
END
