TITL C-245600-5259-32 -594.80864758278 125000 -335.399090312726 0 0 60 (C1) n - 1
REM
REM in /home/bkarasulu/work/CARBON/AIRSS/Generating-Clusters/AIREBO/Higher-Symm/Only-C60
REM
REM
REM
REM
REM
REM ./C.cell (28575a23ae977d3b5fae324c64b13b57)
REM AIRSS Version 0.9.1 bugfix July 2018 build 013d7b7c2542+ Fri, 06 Jul 2018 19:26:36 +0100
REM compiler GCC version 9.2.1 20190827 (Red Hat 9.2.1-1)
REM options -cpp -mtune=generic -march=x86-64 -g -O0 -fpre-include=/usr/include/finclude/math-vector-fortran.h
REM seed 536320080 -975120536 -257809065 -1534017250 1689492964 -962493360 2124465731 -1257346164 1859655266 -1079222942 1803978662 1494837987 -1931661682 -1760760634 -2094012172 382227820 690416507 -708846946 -843137426 -1019012176 -1890618229 -1013287860 223133411 591940816 316194592 -1619616298 1152215087 -748456454 -314947280 443865622 -1092640000 -388929163 671552616
REM
CELL 1.54180   50.00000   50.00000   50.00000   90.00000   90.00000   90.00000
LATT -1
SFAC C  
C      1  0.4581090000000  0.4546830000000  0.4795820000000 1.0
C      1  0.5055730000000  0.4695990000000  0.4444660000000 1.0
C      1  0.5564180000000  0.4787480000000  0.4867020000000 1.0
C      1  0.5268270000000  0.4718860000000  0.5441870000000 1.0
C      1  0.4692840000000  0.4588140000000  0.5341580000000 1.0
C      1  0.5389560000000  0.5388030000000  0.4806140000000 1.0
C      1  0.4922460000000  0.5349180000000  0.4456780000000 1.0
C      1  0.4501320000000  0.5407670000000  0.4827330000000 1.0
C      1  0.4677230000000  0.5408340000000  0.5363520000000 1.0
C      1  0.5286440000000  0.5366320000000  0.5345830000000 1.0
C      1  0.4534220000000  0.5281200000000  0.5562420000000 1.0
C      1  0.4725530000000  0.5173290000000  0.3985400000000 1.0
C      1  0.5434240000000  0.4991800000000  0.4067000000000 1.0
C      1  0.5719630000000  0.5125410000000  0.5258900000000 1.0
C      1  0.4998240000000  0.4848390000000  0.5929500000000 1.0
C      1  0.5540280000000  0.4800830000000  0.5466490000000 1.0
C      1  0.5673680000000  0.4837410000000  0.4588070000000 1.0
C      1  0.4878730000000  0.4465150000000  0.4265320000000 1.0
C      1  0.4246990000000  0.4886230000000  0.5864500000000 1.0
C      1  0.4531450000000  0.4707780000000  0.5520670000000 1.0
C      1  0.5308370000000  0.4271020000000  0.5090450000000 1.0
C      1  0.5034350000000  0.4204200000000  0.5265960000000 1.0
C      1  0.4787990000000  0.4143400000000  0.5050930000000 1.0
C      1  0.4914560000000  0.4162810000000  0.4741440000000 1.0
C      1  0.5232750000000  0.4258610000000  0.4764110000000 1.0
C      1  0.4699380000000  0.5841780000000  0.5046220000000 1.0
C      1  0.4973130000000  0.5823320000000  0.5234560000000 1.0
C      1  0.5236200000000  0.5821840000000  0.5034400000000 1.0
C      1  0.5124830000000  0.5815510000000  0.4717270000000 1.0
C      1  0.4794950000000  0.5821310000000  0.4726150000000 1.0
C      1  0.5259850000000  0.4819530000000  0.4277610000000 1.0
C      1  0.5720570000000  0.4909430000000  0.5098550000000 1.0
C      1  0.5119580000000  0.4775150000000  0.5706870000000 1.0
C      1  0.4374140000000  0.5159070000000  0.5739380000000 1.0
C      1  0.4637190000000  0.5073440000000  0.3759760000000 1.0
C      1  0.4835000000000  0.5257850000000  0.4213010000000 1.0
C      1  0.4177590000000  0.5169020000000  0.5999180000000 1.0
C      1  0.4892450000000  0.4904080000000  0.6162740000000 1.0
C      1  0.5539230000000  0.5265130000000  0.5407690000000 1.0
C      1  0.5552240000000  0.4912820000000  0.4356770000000 1.0
C      1  0.4949890000000  0.5617290000000  0.4515150000000 1.0
C      1  0.5398230000000  0.5656700000000  0.4801180000000 1.0
C      1  0.5233360000000  0.5634140000000  0.5309610000000 1.0
C      1  0.4695100000000  0.5682330000000  0.5336990000000 1.0
C      1  0.4517570000000  0.5676710000000  0.4825530000000 1.0
C      1  0.5043000000000  0.4369140000000  0.4521730000000 1.0
C      1  0.4614530000000  0.4279090000000  0.4806210000000 1.0
C      1  0.4732000000000  0.4314900000000  0.5328580000000 1.0
C      1  0.5252440000000  0.4423760000000  0.5379380000000 1.0
C      1  0.5396810000000  0.4510010000000  0.4890800000000 1.0
C      1  0.5226450000000  0.4787390000000  0.4916760000000 1.0
C      1  0.5123260000000  0.4865960000000  0.5209330000000 1.0
C      1  0.4843510000000  0.4735370000000  0.5152300000000 1.0
C      1  0.4782470000000  0.4720230000000  0.4884070000000 1.0
C      1  0.4996610000000  0.4853970000000  0.4699170000000 1.0
C      1  0.4719240000000  0.5248110000000  0.4903670000000 1.0
C      1  0.4813520000000  0.5262710000000  0.5163500000000 1.0
C      1  0.5109410000000  0.5175070000000  0.5185100000000 1.0
C      1  0.5178170000000  0.5241180000000  0.4883860000000 1.0
C      1  0.4937940000000  0.5162260000000  0.4695190000000 1.0
END
