TITL C-245600-5259-4 -0.0103361169974788 125000 -346.073697588801 0 0 60 (C1) n - 1
REM
REM in /home/bkarasulu/work/CARBON/AIRSS/Generating-Clusters/AIREBO/Higher-Symm/Only-C60
REM
REM
REM
REM
REM
REM ./C.cell (28575a23ae977d3b5fae324c64b13b57)
REM AIRSS Version 0.9.1 bugfix July 2018 build 013d7b7c2542+ Fri, 06 Jul 2018 19:26:36 +0100
REM compiler GCC version 9.2.1 20190827 (Red Hat 9.2.1-1)
REM options -cpp -mtune=generic -march=x86-64 -g -O0 -fpre-include=/usr/include/finclude/math-vector-fortran.h
REM seed 1131890602 -693727824 -1941332519 -165904549 496958375 1450348532 1918972059 848610336 -120606816 -1519392015 -1674732499 -1561266905 1751489480 -286513327 -571040643 -1608382430 480234410 -1681027388 1666799807 1499133269 -914209660 -1896416473 -132352924 1244952824 -1028329351 -1674881283 -243310039 -1850917675 1947444519 -979910251 -750878516 1042400339 2127186626
REM
CELL 1.54180   50.00000   50.00000   50.00000   90.00000   90.00000   90.00000
LATT -1
SFAC C  
C      1  0.4875950000000  0.4752520000000  0.5419140000000 1.0
C      1  0.4669000000000  0.5530560000000  0.5177620000000 1.0
C      1  0.5505420000000  0.4944760000000  0.4653680000000 1.0
C      1  0.4879980000000  0.4659490000000  0.4474040000000 1.0
C      1  0.4987770000000  0.5280300000000  0.5487060000000 1.0
C      1  0.5050440000000  0.5160040000000  0.4529520000000 1.0
C      1  0.5291400000000  0.5551520000000  0.4891140000000 1.0
C      1  0.5288580000000  0.4615750000000  0.5044720000000 1.0
C      1  0.4762640000000  0.4545630000000  0.4935810000000 1.0
C      1  0.4502630000000  0.5126100000000  0.5378970000000 1.0
C      1  0.4568500000000  0.4956060000000  0.4730650000000 1.0
C      1  0.5344800000000  0.5138600000000  0.5129850000000 1.0
C      1  0.5442650000000  0.4890800000000  0.4984060000000 1.0
C      1  0.5097100000000  0.5448370000000  0.4696140000000 1.0
C      1  0.4773150000000  0.5062110000000  0.5493360000000 1.0
C      1  0.4547450000000  0.4752220000000  0.4909040000000 1.0
C      1  0.5458580000000  0.5378100000000  0.5027360000000 1.0
C      1  0.4469530000000  0.5339570000000  0.5205220000000 1.0
C      1  0.4900870000000  0.5527130000000  0.5327730000000 1.0
C      1  0.5004460000000  0.4581410000000  0.5173370000000 1.0
C      1  0.4869430000000  0.4468200000000  0.4670250000000 1.0
C      1  0.5293710000000  0.5003870000000  0.4462240000000 1.0
C      1  0.4786140000000  0.4945820000000  0.4526960000000 1.0
C      1  0.5248010000000  0.5147640000000  0.5389700000000 1.0
C      1  0.4887760000000  0.5327010000000  0.4243100000000 1.0
C      1  0.5287250000000  0.4337490000000  0.4849310000000 1.0
C      1  0.4324490000000  0.4905540000000  0.5353420000000 1.0
C      1  0.5030870000000  0.5384630000000  0.5777010000000 1.0
C      1  0.5057990000000  0.4630700000000  0.4256640000000 1.0
C      1  0.4922230000000  0.4671630000000  0.5777590000000 1.0
C      1  0.4795520000000  0.4117020000000  0.5244880000000 1.0
C      1  0.4676200000000  0.5673910000000  0.4934640000000 1.0
C      1  0.5218160000000  0.5776110000000  0.5044260000000 1.0
C      1  0.5849660000000  0.4909630000000  0.4657980000000 1.0
C      1  0.5929520000000  0.5039980000000  0.5147830000000 1.0
C      1  0.4395590000000  0.5170310000000  0.4766860000000 1.0
C      1  0.4289500000000  0.5315700000000  0.4982610000000 1.0
C      1  0.5036520000000  0.4277830000000  0.5283460000000 1.0
C      1  0.5260360000000  0.4827740000000  0.4255570000000 1.0
C      1  0.5930200000000  0.5311350000000  0.5194030000000 1.0
C      1  0.4358730000000  0.4761200000000  0.5114810000000 1.0
C      1  0.5764430000000  0.4923630000000  0.4956370000000 1.0
C      1  0.5073750000000  0.4276910000000  0.4686850000000 1.0
C      1  0.4805340000000  0.5608030000000  0.4704350000000 1.0
C      1  0.5081110000000  0.5736920000000  0.5280790000000 1.0
C      1  0.4783840000000  0.4904220000000  0.5776160000000 1.0
C      1  0.5064780000000  0.5470590000000  0.6014870000000 1.0
C      1  0.4722320000000  0.5096220000000  0.4261850000000 1.0
C      1  0.4533120000000  0.5011060000000  0.4085040000000 1.0
C      1  0.5041910000000  0.4432230000000  0.4076030000000 1.0
C      1  0.5556620000000  0.4479800000000  0.4864560000000 1.0
C      1  0.4043990000000  0.5425870000000  0.4982640000000 1.0
C      1  0.5396130000000  0.5019490000000  0.5586160000000 1.0
C      1  0.5665080000000  0.4647280000000  0.4685990000000 1.0
C      1  0.4116890000000  0.4872260000000  0.5521610000000 1.0
C      1  0.4636420000000  0.4555560000000  0.5395800000000 1.0
C      1  0.4929850000000  0.5540630000000  0.4422740000000 1.0
C      1  0.4661320000000  0.4376580000000  0.5186300000000 1.0
C      1  0.5548540000000  0.4920820000000  0.5775160000000 1.0
C      1  0.5705830000000  0.5457540000000  0.5135120000000 1.0
END
