TITL C-245600-5259-27 3333.49557161598 125000 -333.816636441063 0 0 60 (C1) n - 1
REM
REM in /home/bkarasulu/work/CARBON/AIRSS/Generating-Clusters/AIREBO/Higher-Symm/Only-C60
REM
REM
REM
REM
REM
REM ./C.cell (28575a23ae977d3b5fae324c64b13b57)
REM AIRSS Version 0.9.1 bugfix July 2018 build 013d7b7c2542+ Fri, 06 Jul 2018 19:26:36 +0100
REM compiler GCC version 9.2.1 20190827 (Red Hat 9.2.1-1)
REM options -cpp -mtune=generic -march=x86-64 -g -O0 -fpre-include=/usr/include/finclude/math-vector-fortran.h
REM seed 2041792858 -484032091 -557881762 1567098632 -1633067994 -772460206 -1108476768 291237411 -2100801607 -264552551 890552956 956130222 541279407 -593325143 1051511495 1307072142 38660811 1442374770 1886342513 1569989103 1808575311 638562387 407156847 1388138048 1710464092 -215143848 34747178 1176692026 1966872882 -338243276 1138630471 993878471 -2007801745
REM
CELL 1.54180   50.00000   50.00000   50.00000   90.00000   90.00000   90.00000
LATT -1
SFAC C  
C      1  0.5172400000000  0.5240950000000  0.4604440000000 1.0
C      1  0.4633160000000  0.5302450000000  0.4697830000000 1.0
C      1  0.4576360000000  0.4789090000000  0.4685430000000 1.0
C      1  0.5104850000000  0.4625850000000  0.4671480000000 1.0
C      1  0.5494530000000  0.4924570000000  0.4640610000000 1.0
C      1  0.4504260000000  0.5012490000000  0.5135050000000 1.0
C      1  0.4858550000000  0.4506800000000  0.5090720000000 1.0
C      1  0.5593690000000  0.4594170000000  0.5065180000000 1.0
C      1  0.5298570000000  0.5442910000000  0.5070060000000 1.0
C      1  0.4769940000000  0.5492980000000  0.5140620000000 1.0
C      1  0.4446050000000  0.4557440000000  0.4786600000000 1.0
C      1  0.5292600000000  0.4386200000000  0.4718380000000 1.0
C      1  0.5689810000000  0.5066920000000  0.4862130000000 1.0
C      1  0.5111830000000  0.5544040000000  0.4688710000000 1.0
C      1  0.4366560000000  0.5348000000000  0.4777340000000 1.0
C      1  0.4283600000000  0.5211670000000  0.5000660000000 1.0
C      1  0.4572980000000  0.4402380000000  0.4982710000000 1.0
C      1  0.5454560000000  0.4340680000000  0.4918850000000 1.0
C      1  0.5781170000000  0.5284850000000  0.4975510000000 1.0
C      1  0.5001300000000  0.5651660000000  0.4903420000000 1.0
C      1  0.5426000000000  0.5607620000000  0.5318400000000 1.0
C      1  0.4727960000000  0.5720930000000  0.5377220000000 1.0
C      1  0.4352030000000  0.4862460000000  0.5389870000000 1.0
C      1  0.4540330000000  0.4411420000000  0.5538320000000 1.0
C      1  0.5751770000000  0.4488420000000  0.5341290000000 1.0
C      1  0.4657870000000  0.4364540000000  0.5292000000000 1.0
C      1  0.5639360000000  0.4257700000000  0.5156660000000 1.0
C      1  0.5613060000000  0.5451990000000  0.5113180000000 1.0
C      1  0.4820910000000  0.5822700000000  0.5089650000000 1.0
C      1  0.4167240000000  0.5075650000000  0.5253280000000 1.0
C      1  0.5141210000000  0.5228400000000  0.4932320000000 1.0
C      1  0.4826930000000  0.5264820000000  0.4947300000000 1.0
C      1  0.4716190000000  0.4944920000000  0.4915480000000 1.0
C      1  0.4976380000000  0.4743910000000  0.4946470000000 1.0
C      1  0.5480140000000  0.4838210000000  0.4964150000000 1.0
C      1  0.4722270000000  0.4762360000000  0.4449020000000 1.0
C      1  0.4887200000000  0.4540750000000  0.4459050000000 1.0
C      1  0.5508520000000  0.5022910000000  0.4340410000000 1.0
C      1  0.5334920000000  0.5214540000000  0.4323300000000 1.0
C      1  0.4749080000000  0.5254160000000  0.4462340000000 1.0
C      1  0.5399240000000  0.5770930000000  0.5520320000000 1.0
C      1  0.4635240000000  0.5780670000000  0.5614350000000 1.0
C      1  0.4437570000000  0.4671400000000  0.5561190000000 1.0
C      1  0.4525870000000  0.4229310000000  0.5735590000000 1.0
C      1  0.5916480000000  0.4546480000000  0.5542300000000 1.0
C      1  0.5183960000000  0.4955390000000  0.5364570000000 1.0
C      1  0.4992840000000  0.4974590000000  0.6407580000000 1.0
C      1  0.4946290000000  0.5013930000000  0.4055380000000 1.0
C      1  0.5010230000000  0.5039500000000  0.3530240000000 1.0
C      1  0.4965650000000  0.5022950000000  0.3792330000000 1.0
C      1  0.5095000000000  0.5038390000000  0.3009210000000 1.0
C      1  0.5048290000000  0.4988960000000  0.6147430000000 1.0
C      1  0.4894200000000  0.5005130000000  0.4355930000000 1.0
C      1  0.5173100000000  0.4910100000000  0.4525900000000 1.0
C      1  0.5041420000000  0.5033490000000  0.3265750000000 1.0
C      1  0.5144460000000  0.4979280000000  0.5624320000000 1.0
C      1  0.4859980000000  0.4960190000000  0.6918260000000 1.0
C      1  0.4917800000000  0.4977210000000  0.6663170000000 1.0
C      1  0.5107430000000  0.4977270000000  0.5888000000000 1.0
C      1  0.5201510000000  0.4937420000000  0.5058150000000 1.0
END
