TITL C-245597-4513-4 -427.63209838983 125000 -342.557362339919 0 0 60 (Ci) n - 1
REM
REM in /home/bkarasulu/work/CARBON/AIRSS/Generating-Clusters/AIREBO/Higher-Symm/Only-C60
REM
REM
REM
REM
REM
REM ./C.cell (28575a23ae977d3b5fae324c64b13b57)
REM AIRSS Version 0.9.1 bugfix July 2018 build 013d7b7c2542+ Fri, 06 Jul 2018 19:26:36 +0100
REM compiler GCC version 9.2.1 20190827 (Red Hat 9.2.1-1)
REM options -cpp -mtune=generic -march=x86-64 -g -O0 -fpre-include=/usr/include/finclude/math-vector-fortran.h
REM seed -837067191 -1654119266 335503415 2016123971 594887990 1250943425 -1948439149 865153458 -907943220 -1070894400 -452226404 -124280070 1737047427 1329681215 -426441266 1850089628 -585835388 1056075927 1418625506 579841314 1167293872 552308340 1950689674 -1523712870 -247926204 216914686 361216893 -2057726623 -1637425693 1047067407 935922073 -94423882 -404057236
REM
CELL 1.54180   50.00000   50.00000   50.00000   90.00000   90.00000   90.00000
LATT -1
SFAC C  
C      1  0.5183500000000  0.5377850000000  0.5777630000000 1.0
C      1  0.5772020000000  0.4679120000000  0.5282000000000 1.0
C      1  0.5617200000000  0.5312410000000  0.4479080000000 1.0
C      1  0.4816500000000  0.4622150000000  0.4222380000000 1.0
C      1  0.4227970000000  0.5320880000000  0.4718000000000 1.0
C      1  0.4382790000000  0.4687590000000  0.5520910000000 1.0
C      1  0.4651230000000  0.4896770000000  0.5913880000000 1.0
C      1  0.5599220000000  0.5040620000000  0.5700010000000 1.0
C      1  0.5920320000000  0.4960430000000  0.4850540000000 1.0
C      1  0.5348760000000  0.5103240000000  0.4086120000000 1.0
C      1  0.4400790000000  0.4959390000000  0.4299990000000 1.0
C      1  0.4079680000000  0.5039540000000  0.5149430000000 1.0
C      1  0.5241220000000  0.5312780000000  0.5462670000000 1.0
C      1  0.5543330000000  0.4665940000000  0.5043140000000 1.0
C      1  0.5281040000000  0.5326190000000  0.4533340000000 1.0
C      1  0.4758770000000  0.4687230000000  0.4537340000000 1.0
C      1  0.4456650000000  0.5334060000000  0.4956860000000 1.0
C      1  0.4718950000000  0.4673810000000  0.5466670000000 1.0
C      1  0.5130700000000  0.4851370000000  0.4827940000000 1.0
C      1  0.4923910000000  0.5203130000000  0.4840690000000 1.0
C      1  0.4809160000000  0.4833490000000  0.4937430000000 1.0
C      1  0.4869330000000  0.5148590000000  0.5172040000000 1.0
C      1  0.5076120000000  0.4796890000000  0.5159300000000 1.0
C      1  0.5190870000000  0.5166530000000  0.5062600000000 1.0
C      1  0.5128480000000  0.5504860000000  0.5263060000000 1.0
C      1  0.5314210000000  0.4472650000000  0.5016190000000 1.0
C      1  0.5166420000000  0.5513050000000  0.4737080000000 1.0
C      1  0.4871510000000  0.4495150000000  0.4736940000000 1.0
C      1  0.4685780000000  0.5527360000000  0.4983820000000 1.0
C      1  0.4833570000000  0.4486950000000  0.5262930000000 1.0
C      1  0.4609550000000  0.5162880000000  0.4426820000000 1.0
C      1  0.4339150000000  0.4872740000000  0.5062680000000 1.0
C      1  0.4794710000000  0.5084570000000  0.5758480000000 1.0
C      1  0.5390450000000  0.4837130000000  0.5573190000000 1.0
C      1  0.5660860000000  0.5127250000000  0.4937300000000 1.0
C      1  0.5205290000000  0.4915430000000  0.4241520000000 1.0
C      1  0.5428760000000  0.5329920000000  0.4231240000000 1.0
C      1  0.4520360000000  0.4707950000000  0.4296320000000 1.0
C      1  0.4123070000000  0.5288630000000  0.5016380000000 1.0
C      1  0.4571220000000  0.4670090000000  0.5768770000000 1.0
C      1  0.5479640000000  0.5292060000000  0.5703680000000 1.0
C      1  0.5876910000000  0.4711350000000  0.4983610000000 1.0
C      1  0.5163410000000  0.4520560000000  0.4769230000000 1.0
C      1  0.4870010000000  0.5520570000000  0.4751250000000 1.0
C      1  0.4735100000000  0.4526140000000  0.5002830000000 1.0
C      1  0.4836590000000  0.5479400000000  0.5230760000000 1.0
C      1  0.5129980000000  0.4479430000000  0.5248760000000 1.0
C      1  0.5264900000000  0.5473880000000  0.4997180000000 1.0
C      1  0.4824570000000  0.5016610000000  0.4584660000000 1.0
C      1  0.4583200000000  0.5044520000000  0.5020540000000 1.0
C      1  0.4854880000000  0.4975020000000  0.5464330000000 1.0
C      1  0.5175440000000  0.4983390000000  0.5415350000000 1.0
C      1  0.5416800000000  0.4955500000000  0.4979460000000 1.0
C      1  0.5145120000000  0.5024970000000  0.4535680000000 1.0
C      1  0.4299630000000  0.5211890000000  0.4481520000000 1.0
C      1  0.4242790000000  0.4843290000000  0.5355590000000 1.0
C      1  0.4931950000000  0.5304980000000  0.5861960000000 1.0
C      1  0.5700380000000  0.4788130000000  0.5518470000000 1.0
C      1  0.5757200000000  0.5156700000000  0.4644390000000 1.0
C      1  0.5068050000000  0.4695010000000  0.4138050000000 1.0
END
