TITL C-246168-3210-28 -0.00235712230867291 125000 -331.447905064918 0 0 60 (C1) n - 1
REM
REM in /home/bkarasulu/work/CARBON/AIRSS/Generating-Clusters/AIREBO/Higher-Symm/Only-C60
REM
REM
REM
REM
REM
REM ./C.cell (28575a23ae977d3b5fae324c64b13b57)
REM AIRSS Version 0.9.1 bugfix July 2018 build 013d7b7c2542+ Fri, 06 Jul 2018 19:26:36 +0100
REM compiler GCC version 9.2.1 20190827 (Red Hat 9.2.1-1)
REM options -cpp -mtune=generic -march=x86-64 -g -O0 -fpre-include=/usr/include/finclude/math-vector-fortran.h
REM seed 836636949 47262000 -809383142 -622523536 440456088 1057869507 1503955069 -607608007 -272138823 1788119379 1965097270 221007794 1216095742 -1534231436 -1626600289 1458843132 572674619 -1834360178 -1424619419 629702876 598644165 1569086528 903339540 692845295 1321956729 -601685459 395723451 -1798350527 -2017531531 1159743552 -748080499 -1298478126 2022150900
REM
CELL 1.54180   50.00000   50.00000   50.00000   90.00000   90.00000   90.00000
LATT -1
SFAC C  
C      1  0.5855640000000  0.5072700000000  0.5473610000000 1.0
C      1  0.4844240000000  0.5105600000000  0.5907840000000 1.0
C      1  0.4062500000000  0.5075630000000  0.5126030000000 1.0
C      1  0.4570390000000  0.5066420000000  0.4156540000000 1.0
C      1  0.5657560000000  0.5081910000000  0.4404080000000 1.0
C      1  0.4450830000000  0.4967840000000  0.4406100000000 1.0
C      1  0.5331210000000  0.4989170000000  0.4344630000000 1.0
C      1  0.5813600000000  0.4980090000000  0.5195780000000 1.0
C      1  0.5089070000000  0.5008150000000  0.5809790000000 1.0
C      1  0.4239850000000  0.4982000000000  0.5343390000000 1.0
C      1  0.5236650000000  0.5361020000000  0.5032620000000 1.0
C      1  0.5041800000000  0.5396690000000  0.5230250000000 1.0
C      1  0.4762940000000  0.5327710000000  0.5119450000000 1.0
C      1  0.4799910000000  0.5377230000000  0.4803480000000 1.0
C      1  0.5098250000000  0.5262980000000  0.4748360000000 1.0
C      1  0.5172610000000  0.4640740000000  0.5417370000000 1.0
C      1  0.4613280000000  0.4619790000000  0.5359840000000 1.0
C      1  0.4669440000000  0.4592740000000  0.4779330000000 1.0
C      1  0.5142570000000  0.4688910000000  0.4528470000000 1.0
C      1  0.5471400000000  0.4623790000000  0.4956630000000 1.0
C      1  0.4735270000000  0.4810800000000  0.5594140000000 1.0
C      1  0.4436240000000  0.4872880000000  0.4937850000000 1.0
C      1  0.4889170000000  0.4822360000000  0.4345170000000 1.0
C      1  0.5623150000000  0.4786250000000  0.4699350000000 1.0
C      1  0.5486780000000  0.4761690000000  0.5455060000000 1.0
C      1  0.4488640000000  0.5358570000000  0.5232240000000 1.0
C      1  0.4615410000000  0.5362920000000  0.4592280000000 1.0
C      1  0.5257950000000  0.5353130000000  0.4506520000000 1.0
C      1  0.5491070000000  0.5315720000000  0.5140880000000 1.0
C      1  0.5058120000000  0.5381710000000  0.5504000000000 1.0
C      1  0.5706160000000  0.5176570000000  0.5022370000000 1.0
C      1  0.5270800000000  0.5205590000000  0.5658580000000 1.0
C      1  0.4411880000000  0.5187200000000  0.5443530000000 1.0
C      1  0.4399640000000  0.5176530000000  0.4591410000000 1.0
C      1  0.5185730000000  0.5221880000000  0.4247970000000 1.0
C      1  0.5471170000000  0.4737460000000  0.4455270000000 1.0
C      1  0.5648390000000  0.4746370000000  0.5211100000000 1.0
C      1  0.5014320000000  0.4785390000000  0.5659510000000 1.0
C      1  0.4389720000000  0.4778320000000  0.5203150000000 1.0
C      1  0.4639350000000  0.4767280000000  0.4489050000000 1.0
C      1  0.4867820000000  0.5030120000000  0.5111680000000 1.0
C      1  0.4745260000000  0.4902950000000  0.4855170000000 1.0
C      1  0.5062820000000  0.4942760000000  0.4740270000000 1.0
C      1  0.5226190000000  0.4827170000000  0.4967120000000 1.0
C      1  0.5081590000000  0.4862350000000  0.5200970000000 1.0
C      1  0.4890810000000  0.4466860000000  0.4582890000000 1.0
C      1  0.5301410000000  0.4453870000000  0.4716140000000 1.0
C      1  0.5331750000000  0.4432490000000  0.5200650000000 1.0
C      1  0.4895060000000  0.4445140000000  0.5399290000000 1.0
C      1  0.4593320000000  0.4468230000000  0.5055840000000 1.0
C      1  0.4819860000000  0.5395390000000  0.5637490000000 1.0
C      1  0.4295900000000  0.5387310000000  0.5040000000000 1.0
C      1  0.4725070000000  0.5390260000000  0.4331090000000 1.0
C      1  0.5531220000000  0.5335870000000  0.4550030000000 1.0
C      1  0.5491170000000  0.5310510000000  0.5420670000000 1.0
C      1  0.4898330000000  0.5135930000000  0.4213600000000 1.0
C      1  0.5674650000000  0.5102010000000  0.4743310000000 1.0
C      1  0.5549890000000  0.5030590000000  0.5598760000000 1.0
C      1  0.4620570000000  0.5125540000000  0.5652220000000 1.0
C      1  0.4254670000000  0.5124930000000  0.4849760000000 1.0
END
