TITL C-246166-1561-10 0.000781143276865288 125000 -361.470385267498 0 0 60 (C1) n - 1
REM
REM in /home/bkarasulu/work/CARBON/AIRSS/Generating-Clusters/AIREBO/Higher-Symm/Only-C60
REM
REM
REM
REM
REM
REM ./C.cell (28575a23ae977d3b5fae324c64b13b57)
REM AIRSS Version 0.9.1 bugfix July 2018 build 013d7b7c2542+ Fri, 06 Jul 2018 19:26:36 +0100
REM compiler GCC version 9.2.1 20190827 (Red Hat 9.2.1-1)
REM options -cpp -mtune=generic -march=x86-64 -g -O0 -fpre-include=/usr/include/finclude/math-vector-fortran.h
REM seed 1322438450 262216000 -665484728 -1310201981 -316036549 1892556883 1416590646 662449753 1415221382 617678616 -170836269 567089173 1746622131 382460767 -1340596812 267950952 766654406 -23550074 298181813 648745880 -1662334068 -255335470 439799499 -351215483 -542910641 1920142989 -1265777988 1981444729 -1061160386 490723892 406562212 -1957177264 1999689723
REM
CELL 1.54180   50.00000   50.00000   50.00000   90.00000   90.00000   90.00000
LATT -1
SFAC C  
C      1  0.4968160000000  0.5307770000000  0.5622650000000 1.0
C      1  0.5641060000000  0.5007470000000  0.5182450000000 1.0
C      1  0.5132750000000  0.5600170000000  0.5062200000000 1.0
C      1  0.5079070000000  0.4789480000000  0.5601820000000 1.0
C      1  0.5100020000000  0.5304660000000  0.4342460000000 1.0
C      1  0.4938660000000  0.4787560000000  0.4436760000000 1.0
C      1  0.4324830000000  0.5116140000000  0.5293470000000 1.0
C      1  0.4300080000000  0.4940450000000  0.4801680000000 1.0
C      1  0.5615540000000  0.5077990000000  0.4668240000000 1.0
C      1  0.4677470000000  0.4347630000000  0.4918890000000 1.0
C      1  0.4645700000000  0.5588600000000  0.5053340000000 1.0
C      1  0.5214710000000  0.4388740000000  0.5023610000000 1.0
C      1  0.5364370000000  0.4904310000000  0.5621050000000 1.0
C      1  0.4872690000000  0.5612650000000  0.5203710000000 1.0
C      1  0.5562240000000  0.5208730000000  0.4934680000000 1.0
C      1  0.4842810000000  0.5015580000000  0.5591180000000 1.0
C      1  0.5197640000000  0.4990500000000  0.4365610000000 1.0
C      1  0.4654280000000  0.4930560000000  0.4425930000000 1.0
C      1  0.5081490000000  0.4361380000000  0.5318750000000 1.0
C      1  0.4974300000000  0.4398080000000  0.4806160000000 1.0
C      1  0.5096120000000  0.5622250000000  0.4730760000000 1.0
C      1  0.4307820000000  0.4668910000000  0.4922540000000 1.0
C      1  0.5663420000000  0.4694710000000  0.5070160000000 1.0
C      1  0.4324000000000  0.5188780000000  0.4958570000000 1.0
C      1  0.5642220000000  0.4608220000000  0.4805240000000 1.0
C      1  0.4825200000000  0.5555960000000  0.4621350000000 1.0
C      1  0.4572170000000  0.4812290000000  0.5590940000000 1.0
C      1  0.4374240000000  0.5413200000000  0.4726850000000 1.0
C      1  0.4409250000000  0.4628770000000  0.5180660000000 1.0
C      1  0.5564490000000  0.5397510000000  0.5206500000000 1.0
C      1  0.5225460000000  0.4403960000000  0.4624570000000 1.0
C      1  0.5314560000000  0.5622110000000  0.5533090000000 1.0
C      1  0.4811540000000  0.4427960000000  0.5378150000000 1.0
C      1  0.5430950000000  0.5175210000000  0.5636080000000 1.0
C      1  0.5452570000000  0.4759740000000  0.4380100000000 1.0
C      1  0.4618020000000  0.5201880000000  0.4370770000000 1.0
C      1  0.4600860000000  0.5578000000000  0.4782610000000 1.0
C      1  0.5624650000000  0.4803990000000  0.4604840000000 1.0
C      1  0.4799260000000  0.4619900000000  0.5588330000000 1.0
C      1  0.5469090000000  0.4383960000000  0.4788360000000 1.0
C      1  0.4615680000000  0.4433850000000  0.5179360000000 1.0
C      1  0.5377750000000  0.5595760000000  0.5256200000000 1.0
C      1  0.4371410000000  0.5317140000000  0.4459280000000 1.0
C      1  0.5638860000000  0.5228000000000  0.5443520000000 1.0
C      1  0.4403480000000  0.4829420000000  0.5372620000000 1.0
C      1  0.5235570000000  0.5377600000000  0.5662020000000 1.0
C      1  0.4838950000000  0.5374090000000  0.4407850000000 1.0
C      1  0.5209170000000  0.4596900000000  0.4424480000000 1.0
C      1  0.5324040000000  0.5482710000000  0.4528040000000 1.0
C      1  0.5249280000000  0.4523380000000  0.5517430000000 1.0
C      1  0.4826130000000  0.5495400000000  0.5448440000000 1.0
C      1  0.5449550000000  0.5193590000000  0.4470080000000 1.0
C      1  0.5526890000000  0.4792950000000  0.5420300000000 1.0
C      1  0.4625770000000  0.5224660000000  0.5434210000000 1.0
C      1  0.5430200000000  0.4535880000000  0.5237330000000 1.0
C      1  0.4470410000000  0.5395960000000  0.5184960000000 1.0
C      1  0.4789980000000  0.4597340000000  0.4641040000000 1.0
C      1  0.4477260000000  0.4494600000000  0.4686690000000 1.0
C      1  0.5363790000000  0.5448130000000  0.4864440000000 1.0
C      1  0.4462060000000  0.4816870000000  0.4586620000000 1.0
END
