TITL C-245599-5050-9 1428608.06506261 125000 -305.614743066738 0 0 60 (C1) n - 1
REM
REM in /home/bkarasulu/work/CARBON/AIRSS/Generating-Clusters/AIREBO/Higher-Symm/Only-C60
REM
REM
REM
REM
REM
REM ./C.cell (28575a23ae977d3b5fae324c64b13b57)
REM AIRSS Version 0.9.1 bugfix July 2018 build 013d7b7c2542+ Fri, 06 Jul 2018 19:26:36 +0100
REM compiler GCC version 9.2.1 20190827 (Red Hat 9.2.1-1)
REM options -cpp -mtune=generic -march=x86-64 -g -O0 -fpre-include=/usr/include/finclude/math-vector-fortran.h
REM seed 1966060276 -582865104 1692357209 1893690521 -408308933 -592990448 1391742382 -1238408376 -223405209 1002577144 896077337 -720901250 1635401156 1634256250 429163022 -1089761505 999601603 912311439 369058252 1908977622 1735714421 -516958305 -1973163100 619205421 316783027 -318000482 -657344850 -1868215342 1970157624 -116561140 131984860 1526910822 442807735
REM
CELL 1.54180   50.00000   50.00000   50.00000   90.00000   90.00000   90.00000
LATT -1
SFAC C  
C      1  0.5246250000000  0.5197540000000  0.4949800000000 1.0
C      1  0.5108010000000  0.5139360000000  0.5244410000000 1.0
C      1  0.4783550000000  0.5187580000000  0.5184690000000 1.0
C      1  0.4748410000000  0.5207820000000  0.4849110000000 1.0
C      1  0.5042650000000  0.5116310000000  0.4716950000000 1.0
C      1  0.5638270000000  0.4739320000000  0.4784650000000 1.0
C      1  0.5351410000000  0.4787870000000  0.5558660000000 1.0
C      1  0.4602830000000  0.4773970000000  0.5495160000000 1.0
C      1  0.4415480000000  0.4732180000000  0.4760810000000 1.0
C      1  0.5041500000000  0.4745710000000  0.4331420000000 1.0
C      1  0.5839750000000  0.5066200000000  0.5124810000000 1.0
C      1  0.4930250000000  0.4973140000000  0.5851340000000 1.0
C      1  0.4309460000000  0.5137220000000  0.5338380000000 1.0
C      1  0.4448820000000  0.4974830000000  0.4342590000000 1.0
C      1  0.5535660000000  0.4945180000000  0.4319360000000 1.0
C      1  0.4876180000000  0.4946000000000  0.4245890000000 1.0
C      1  0.5636510000000  0.4949360000000  0.4607740000000 1.0
C      1  0.5518490000000  0.4997530000000  0.5501110000000 1.0
C      1  0.4689590000000  0.4975960000000  0.5660380000000 1.0
C      1  0.4283610000000  0.4942260000000  0.4871650000000 1.0
C      1  0.5253720000000  0.4413010000000  0.4858560000000 1.0
C      1  0.5232260000000  0.4417270000000  0.5190370000000 1.0
C      1  0.4906530000000  0.4408240000000  0.5261840000000 1.0
C      1  0.4735550000000  0.4399530000000  0.4980810000000 1.0
C      1  0.4950710000000  0.4406790000000  0.4725630000000 1.0
C      1  0.5365210000000  0.5163390000000  0.4619800000000 1.0
C      1  0.5452040000000  0.5108490000000  0.5205430000000 1.0
C      1  0.4915030000000  0.5194820000000  0.5518930000000 1.0
C      1  0.4471380000000  0.5169290000000  0.5041050000000 1.0
C      1  0.4774830000000  0.5135420000000  0.4508280000000 1.0
C      1  0.4658720000000  0.5418440000000  0.5519620000000 1.0
C      1  0.4384600000000  0.5465010000000  0.4897020000000 1.0
C      1  0.4914740000000  0.5423450000000  0.4427740000000 1.0
C      1  0.5563300000000  0.5391580000000  0.4776010000000 1.0
C      1  0.5389640000000  0.5484130000000  0.5508780000000 1.0
C      1  0.5062460000000  0.4890280000000  0.5554820000000 1.0
C      1  0.4502120000000  0.4880420000000  0.5218030000000 1.0
C      1  0.4636040000000  0.4829530000000  0.4561400000000 1.0
C      1  0.5261790000000  0.4861330000000  0.4502570000000 1.0
C      1  0.5597830000000  0.4834490000000  0.5066580000000 1.0
C      1  0.4697440000000  0.5604790000000  0.4481660000000 1.0
C      1  0.5434030000000  0.5553220000000  0.4570690000000 1.0
C      1  0.5572120000000  0.5518610000000  0.5313910000000 1.0
C      1  0.4875330000000  0.5569710000000  0.5650410000000 1.0
C      1  0.4356200000000  0.5581980000000  0.5166000000000 1.0
C      1  0.5172090000000  0.4733270000000  0.4770250000000 1.0
C      1  0.5283560000000  0.4737720000000  0.5086680000000 1.0
C      1  0.5010520000000  0.4730840000000  0.5289210000000 1.0
C      1  0.4739860000000  0.4725200000000  0.5090000000000 1.0
C      1  0.4840350000000  0.4724100000000  0.4778180000000 1.0
C      1  0.5653070000000  0.5343120000000  0.5061030000000 1.0
C      1  0.5137970000000  0.5444080000000  0.5600740000000 1.0
C      1  0.4424250000000  0.5408710000000  0.5381820000000 1.0
C      1  0.4488570000000  0.5546300000000  0.4653370000000 1.0
C      1  0.5187790000000  0.5427870000000  0.4457160000000 1.0
C      1  0.5382130000000  0.4534750000000  0.5457850000000 1.0
C      1  0.4707640000000  0.4522840000000  0.5492110000000 1.0
C      1  0.4448940000000  0.4482150000000  0.4861160000000 1.0
C      1  0.4967860000000  0.4494260000000  0.4411160000000 1.0
C      1  0.5545110000000  0.4486170000000  0.4744440000000 1.0
END
