TITL C-245595-5410-2 4711.35146436508 125000 -345.512967231847 0 0 60 (C1) n - 1
REM
REM in /home/bkarasulu/work/CARBON/AIRSS/Generating-Clusters/AIREBO/Higher-Symm/Only-C60
REM
REM
REM
REM
REM
REM ./C.cell (28575a23ae977d3b5fae324c64b13b57)
REM AIRSS Version 0.9.1 bugfix July 2018 build 013d7b7c2542+ Fri, 06 Jul 2018 19:26:36 +0100
REM compiler GCC version 9.2.1 20190827 (Red Hat 9.2.1-1)
REM options -cpp -mtune=generic -march=x86-64 -g -O0 -fpre-include=/usr/include/finclude/math-vector-fortran.h
REM seed 128145230 -1336724427 296837117 1582171795 2085518919 -69714909 -1817500282 1370103762 -2087233346 1785348627 -1209754566 -289372590 -718033289 330792557 650308249 986205137 1297519375 2026625220 -1916522300 -1888584342 -2113684641 -172086302 168053301 423901311 512503602 182863139 -1586608581 -980238188 1632171613 -1422587641 -1796436212 -594733985 -2023160759
REM
CELL 1.54180   50.00000   50.00000   50.00000   90.00000   90.00000   90.00000
LATT -1
SFAC C  
C      1  0.5273200000000  0.5425350000000  0.5234200000000 1.0
C      1  0.5418230000000  0.5021320000000  0.5593790000000 1.0
C      1  0.5324000000000  0.4651140000000  0.5368860000000 1.0
C      1  0.5382980000000  0.4407460000000  0.4926630000000 1.0
C      1  0.5410470000000  0.4688220000000  0.4447740000000 1.0
C      1  0.5412430000000  0.5236180000000  0.4508400000000 1.0
C      1  0.5443830000000  0.5465310000000  0.4747620000000 1.0
C      1  0.4857160000000  0.5538980000000  0.4913060000000 1.0
C      1  0.4716460000000  0.5129050000000  0.5620770000000 1.0
C      1  0.4549920000000  0.4833240000000  0.5591760000000 1.0
C      1  0.4733990000000  0.4630520000000  0.5472810000000 1.0
C      1  0.4672320000000  0.4477490000000  0.5175390000000 1.0
C      1  0.4752150000000  0.4612940000000  0.4561180000000 1.0
C      1  0.4720470000000  0.5370420000000  0.4651060000000 1.0
C      1  0.4968900000000  0.5597900000000  0.4597340000000 1.0
C      1  0.4974840000000  0.5734730000000  0.5167690000000 1.0
C      1  0.4978260000000  0.5234810000000  0.5738660000000 1.0
C      1  0.4974610000000  0.4563600000000  0.5665110000000 1.0
C      1  0.4896800000000  0.4304560000000  0.5127690000000 1.0
C      1  0.4958570000000  0.4471800000000  0.4437670000000 1.0
C      1  0.5010200000000  0.5098910000000  0.4300860000000 1.0
C      1  0.5171370000000  0.4434660000000  0.5507630000000 1.0
C      1  0.5084040000000  0.4357660000000  0.4887320000000 1.0
C      1  0.5164030000000  0.4639570000000  0.4322410000000 1.0
C      1  0.5207660000000  0.5300410000000  0.4297650000000 1.0
C      1  0.5227090000000  0.5662890000000  0.4763470000000 1.0
C      1  0.5081660000000  0.5607430000000  0.5408240000000 1.0
C      1  0.5162060000000  0.5029540000000  0.5780380000000 1.0
C      1  0.5061530000000  0.4855140000000  0.4170450000000 1.0
C      1  0.5095520000000  0.5550520000000  0.4317280000000 1.0
C      1  0.5175250000000  0.5831230000000  0.4970540000000 1.0
C      1  0.5033660000000  0.5501080000000  0.5662240000000 1.0
C      1  0.5061350000000  0.4769800000000  0.5840010000000 1.0
C      1  0.5056770000000  0.4223880000000  0.5352420000000 1.0
C      1  0.5036300000000  0.4257140000000  0.4602420000000 1.0
C      1  0.5664310000000  0.5179240000000  0.4808730000000 1.0
C      1  0.5529690000000  0.5362720000000  0.5037220000000 1.0
C      1  0.5503440000000  0.5223170000000  0.5333790000000 1.0
C      1  0.5541910000000  0.4903500000000  0.5295440000000 1.0
C      1  0.5535860000000  0.4642380000000  0.5103050000000 1.0
C      1  0.5463250000000  0.4679710000000  0.4771990000000 1.0
C      1  0.5572580000000  0.4948830000000  0.4595170000000 1.0
C      1  0.5014400000000  0.4674420000000  0.4954710000000 1.0
C      1  0.4866330000000  0.4858780000000  0.4726110000000 1.0
C      1  0.4857310000000  0.5107960000000  0.4536740000000 1.0
C      1  0.4986540000000  0.5337520000000  0.5129520000000 1.0
C      1  0.4893740000000  0.5128070000000  0.5360190000000 1.0
C      1  0.5156530000000  0.4946320000000  0.5390050000000 1.0
C      1  0.4954600000000  0.4748000000000  0.5251740000000 1.0
C      1  0.4218380000000  0.5406200000000  0.4611450000000 1.0
C      1  0.4382540000000  0.5132550000000  0.5601760000000 1.0
C      1  0.4332980000000  0.4926460000000  0.5357800000000 1.0
C      1  0.4500750000000  0.4646030000000  0.4995940000000 1.0
C      1  0.4502910000000  0.4694570000000  0.4706150000000 1.0
C      1  0.4414870000000  0.4957610000000  0.4624860000000 1.0
C      1  0.4437020000000  0.5240610000000  0.4622720000000 1.0
C      1  0.4993670000000  0.5094330000000  0.4921350000000 1.0
C      1  0.4470410000000  0.4910840000000  0.5114330000000 1.0
C      1  0.5259630000000  0.5110570000000  0.4773800000000 1.0
C      1  0.4709990000000  0.5052510000000  0.5102190000000 1.0
END
