TITL C-246170-4966-24 1086084.55702908 125000 -268.778634267177 0 0 60 (C1) n - 1
REM
REM in /home/bkarasulu/work/CARBON/AIRSS/Generating-Clusters/AIREBO/Higher-Symm/Only-C60
REM
REM
REM
REM
REM
REM ./C.cell (28575a23ae977d3b5fae324c64b13b57)
REM AIRSS Version 0.9.1 bugfix July 2018 build 013d7b7c2542+ Fri, 06 Jul 2018 19:26:36 +0100
REM compiler GCC version 9.2.1 20190827 (Red Hat 9.2.1-1)
REM options -cpp -mtune=generic -march=x86-64 -g -O0 -fpre-include=/usr/include/finclude/math-vector-fortran.h
REM seed 718399724 18477289 -576852549 539000935 -1662497384 643689685 -953046643 998046686 -412839944 -904917617 -389878843 -1428088812 -149727173 -391090914 -817640801 -2079999847 -1824203111 1825249563 107031406 1760348310 -1861145007 1395985334 -422824364 459032585 -47419819 -1938397922 -576643433 -601989396 1255639069 1019114047 775994799 -1454272861 1289729446
REM
CELL 1.54180   50.00000   50.00000   50.00000   90.00000   90.00000   90.00000
LATT -1
SFAC C  
C      1  0.4723980000000  0.4893200000000  0.4474720000000 1.0
C      1  0.4691200000000  0.4854030000000  0.5538230000000 1.0
C      1  0.5634890000000  0.4845310000000  0.5018470000000 1.0
C      1  0.4677920000000  0.5172110000000  0.4435140000000 1.0
C      1  0.4681100000000  0.5145420000000  0.5539660000000 1.0
C      1  0.5616070000000  0.5137480000000  0.4995490000000 1.0
C      1  0.5228800000000  0.5398460000000  0.4471700000000 1.0
C      1  0.4487170000000  0.5446150000000  0.4991820000000 1.0
C      1  0.5263660000000  0.5449990000000  0.5458060000000 1.0
C      1  0.5281870000000  0.4565320000000  0.4524620000000 1.0
C      1  0.4461760000000  0.4555210000000  0.5018260000000 1.0
C      1  0.5260600000000  0.4532350000000  0.5465730000000 1.0
C      1  0.5374270000000  0.5590620000000  0.5205480000000 1.0
C      1  0.4976330000000  0.5615180000000  0.4521240000000 1.0
C      1  0.4655050000000  0.5586250000000  0.5197450000000 1.0
C      1  0.5361940000000  0.4397950000000  0.5204940000000 1.0
C      1  0.5018750000000  0.4434060000000  0.4565190000000 1.0
C      1  0.4646190000000  0.4391550000000  0.5231690000000 1.0
C      1  0.5589240000000  0.4693270000000  0.4455400000000 1.0
C      1  0.4249390000000  0.4698880000000  0.4790490000000 1.0
C      1  0.5191440000000  0.4639210000000  0.5782640000000 1.0
C      1  0.5536100000000  0.5265640000000  0.4421650000000 1.0
C      1  0.4269420000000  0.5296100000000  0.4776310000000 1.0
C      1  0.5210160000000  0.5339550000000  0.5776900000000 1.0
C      1  0.5190070000000  0.4356300000000  0.4917960000000 1.0
C      1  0.4855860000000  0.4362120000000  0.4853310000000 1.0
C      1  0.4967080000000  0.4359740000000  0.5174640000000 1.0
C      1  0.5205780000000  0.5653650000000  0.4927900000000 1.0
C      1  0.4884810000000  0.5651640000000  0.4846660000000 1.0
C      1  0.4978360000000  0.5630680000000  0.5179390000000 1.0
C      1  0.4740330000000  0.5412350000000  0.4651970000000 1.0
C      1  0.4853910000000  0.5406740000000  0.5407320000000 1.0
C      1  0.5444730000000  0.5417830000000  0.4920460000000 1.0
C      1  0.4729250000000  0.4596020000000  0.4639960000000 1.0
C      1  0.4860950000000  0.4592470000000  0.5402660000000 1.0
C      1  0.5441370000000  0.4585120000000  0.4931870000000 1.0
C      1  0.5075880000000  0.5171680000000  0.5513360000000 1.0
C      1  0.5351480000000  0.5177150000000  0.4698970000000 1.0
C      1  0.4580160000000  0.5165860000000  0.4822940000000 1.0
C      1  0.5086960000000  0.4820800000000  0.5514750000000 1.0
C      1  0.5391050000000  0.4832780000000  0.4704110000000 1.0
C      1  0.4563640000000  0.4821670000000  0.4833100000000 1.0
C      1  0.5126390000000  0.5142560000000  0.5184640000000 1.0
C      1  0.5050840000000  0.5166200000000  0.4853790000000 1.0
C      1  0.4799450000000  0.5151820000000  0.5082520000000 1.0
C      1  0.5154390000000  0.4809100000000  0.5181720000000 1.0
C      1  0.5094110000000  0.4836780000000  0.4869680000000 1.0
C      1  0.4784090000000  0.4819280000000  0.5092010000000 1.0
C      1  0.4242920000000  0.5124050000000  0.5307620000000 1.0
C      1  0.5632660000000  0.5132330000000  0.5500970000000 1.0
C      1  0.4981100000000  0.5113280000000  0.4112440000000 1.0
C      1  0.4229700000000  0.4869020000000  0.5322010000000 1.0
C      1  0.5639290000000  0.4874770000000  0.5517070000000 1.0
C      1  0.5032190000000  0.4888040000000  0.4217410000000 1.0
C      1  0.4529320000000  0.5218250000000  0.5278330000000 1.0
C      1  0.5452210000000  0.5207610000000  0.5257570000000 1.0
C      1  0.4943930000000  0.5344790000000  0.4315940000000 1.0
C      1  0.4512520000000  0.4744480000000  0.5284200000000 1.0
C      1  0.5476370000000  0.4767120000000  0.5283600000000 1.0
C      1  0.5029520000000  0.4832630000000  0.4535850000000 1.0
END
