TITL C-246167-7980-28 95283.7731385764 125000 -342.945649673558 0 0 60 (C1) n - 1
REM
REM in /home/bkarasulu/work/CARBON/AIRSS/Generating-Clusters/AIREBO/Higher-Symm/Only-C60
REM
REM
REM
REM
REM
REM ./C.cell (28575a23ae977d3b5fae324c64b13b57)
REM AIRSS Version 0.9.1 bugfix July 2018 build 013d7b7c2542+ Fri, 06 Jul 2018 19:26:36 +0100
REM compiler GCC version 9.2.1 20190827 (Red Hat 9.2.1-1)
REM options -cpp -mtune=generic -march=x86-64 -g -O0 -fpre-include=/usr/include/finclude/math-vector-fortran.h
REM seed 1837750269 1702716766 -632620916 724134892 1714937047 -659162840 -440256497 -1227031823 -2014848230 1371949283 1774759563 -167380562 -690946037 -1189536156 320119129 -998098899 881686265 556420971 -1988840922 711576794 1121743861 575746148 30847516 -1352430337 -816869720 219276398 1868302686 1959661535 -377943745 -511781107 1512116190 2037792314 1652947854
REM
CELL 1.54180   50.00000   50.00000   50.00000   90.00000   90.00000   90.00000
LATT -1
SFAC C  
C      1  0.5792020000000  0.4818680000000  0.4973090000000 1.0
C      1  0.4172260000000  0.4641810000000  0.5206980000000 1.0
C      1  0.5874800000000  0.5171640000000  0.5388140000000 1.0
C      1  0.4219280000000  0.5187670000000  0.4861540000000 1.0
C      1  0.4807520000000  0.4782210000000  0.5726320000000 1.0
C      1  0.5195850000000  0.4852170000000  0.4258530000000 1.0
C      1  0.5265660000000  0.5185910000000  0.5707040000000 1.0
C      1  0.4818890000000  0.5278150000000  0.4228150000000 1.0
C      1  0.5587380000000  0.5326700000000  0.5308270000000 1.0
C      1  0.4439220000000  0.5336550000000  0.4835770000000 1.0
C      1  0.5632940000000  0.4688200000000  0.4727150000000 1.0
C      1  0.4348560000000  0.4432840000000  0.5201530000000 1.0
C      1  0.5324330000000  0.5253640000000  0.5454160000000 1.0
C      1  0.4870650000000  0.5393530000000  0.4457210000000 1.0
C      1  0.4845830000000  0.4639410000000  0.5509980000000 1.0
C      1  0.5170380000000  0.4700640000000  0.4473430000000 1.0
C      1  0.4621670000000  0.4413560000000  0.5141400000000 1.0
C      1  0.5439020000000  0.4490020000000  0.4825180000000 1.0
C      1  0.4647150000000  0.5588660000000  0.4847230000000 1.0
C      1  0.5448450000000  0.5547860000000  0.5133610000000 1.0
C      1  0.5214670000000  0.4448130000000  0.4656200000000 1.0
C      1  0.4820230000000  0.4387780000000  0.5330390000000 1.0
C      1  0.4848330000000  0.5639420000000  0.4658950000000 1.0
C      1  0.5224710000000  0.5672120000000  0.5247160000000 1.0
C      1  0.4703660000000  0.4577390000000  0.4913410000000 1.0
C      1  0.5420020000000  0.4478930000000  0.5107570000000 1.0
C      1  0.4674690000000  0.5436720000000  0.5141170000000 1.0
C      1  0.5454100000000  0.5512950000000  0.4858990000000 1.0
C      1  0.4877730000000  0.4493850000000  0.4642010000000 1.0
C      1  0.5145710000000  0.4478950000000  0.5302980000000 1.0
C      1  0.5175030000000  0.5526500000000  0.4673940000000 1.0
C      1  0.4925320000000  0.5533720000000  0.5330500000000 1.0
C      1  0.5019810000000  0.4774640000000  0.4770790000000 1.0
C      1  0.4964220000000  0.4740310000000  0.5210790000000 1.0
C      1  0.5112120000000  0.5291350000000  0.5281970000000 1.0
C      1  0.4972220000000  0.5277260000000  0.4760270000000 1.0
C      1  0.4776450000000  0.4899830000000  0.4976480000000 1.0
C      1  0.5173460000000  0.4901540000000  0.5021980000000 1.0
C      1  0.5096850000000  0.5179830000000  0.5035300000000 1.0
C      1  0.4717840000000  0.5188160000000  0.4919770000000 1.0
C      1  0.4302190000000  0.4813250000000  0.4748770000000 1.0
C      1  0.5615750000000  0.4974440000000  0.5294370000000 1.0
C      1  0.4272330000000  0.5167080000000  0.5256480000000 1.0
C      1  0.5567750000000  0.5023900000000  0.4719400000000 1.0
C      1  0.4730980000000  0.4748940000000  0.4190700000000 1.0
C      1  0.5204330000000  0.4798630000000  0.5762480000000 1.0
C      1  0.5201390000000  0.5163840000000  0.4239030000000 1.0
C      1  0.4784730000000  0.5298180000000  0.5765760000000 1.0
C      1  0.4520970000000  0.4672630000000  0.4668370000000 1.0
C      1  0.5486910000000  0.4681110000000  0.5333520000000 1.0
C      1  0.4463530000000  0.5324690000000  0.5354750000000 1.0
C      1  0.5492790000000  0.5285470000000  0.4652350000000 1.0
C      1  0.4667440000000  0.4621660000000  0.4415680000000 1.0
C      1  0.5291770000000  0.4651660000000  0.5557580000000 1.0
C      1  0.5296780000000  0.5326870000000  0.4426740000000 1.0
C      1  0.4693460000000  0.5414450000000  0.5537090000000 1.0
C      1  0.5467290000000  0.4912810000000  0.5010030000000 1.0
C      1  0.4203060000000  0.4909340000000  0.5053970000000 1.0
C      1  0.4974700000000  0.5050290000000  0.5769240000000 1.0
C      1  0.4922770000000  0.4991510000000  0.4138380000000 1.0
END
