TITL C-245597-4513-7 0.00230749815153474 125000 -365.703622244209 0 0 60 (C1) n - 1
REM
REM in /home/bkarasulu/work/CARBON/AIRSS/Generating-Clusters/AIREBO/Higher-Symm/Only-C60
REM
REM
REM
REM
REM
REM ./C.cell (28575a23ae977d3b5fae324c64b13b57)
REM AIRSS Version 0.9.1 bugfix July 2018 build 013d7b7c2542+ Fri, 06 Jul 2018 19:26:36 +0100
REM compiler GCC version 9.2.1 20190827 (Red Hat 9.2.1-1)
REM options -cpp -mtune=generic -march=x86-64 -g -O0 -fpre-include=/usr/include/finclude/math-vector-fortran.h
REM seed 484724164 1560763005 -526850029 -2001058516 1057717814 1761755402 -600171278 -2129335908 -1729531387 1911905700 745665186 -655562780 997737534 -293716895 289982934 1231805161 -2018279677 -2061375293 690746498 -1931857828 -1749735837 1209394963 1901229417 -862032011 -1745831057 1366820559 -784822181 -1247646048 -1094708525 -1583676023 -778259009 1539869155 -1443101195
REM
CELL 1.54180   50.00000   50.00000   50.00000   90.00000   90.00000   90.00000
LATT -1
SFAC C  
C      1  0.5395110000000  0.5587910000000  0.5177810000000 1.0
C      1  0.5607410000000  0.5175040000000  0.5380940000000 1.0
C      1  0.5172310000000  0.5372130000000  0.5571650000000 1.0
C      1  0.5312860000000  0.4537150000000  0.4939210000000 1.0
C      1  0.4594080000000  0.5619800000000  0.4869090000000 1.0
C      1  0.4606420000000  0.4379440000000  0.5181860000000 1.0
C      1  0.5517630000000  0.4918920000000  0.4719830000000 1.0
C      1  0.4453540000000  0.5204300000000  0.4690260000000 1.0
C      1  0.4379630000000  0.4794310000000  0.5382760000000 1.0
C      1  0.5091610000000  0.4741990000000  0.4562040000000 1.0
C      1  0.4790460000000  0.5459950000000  0.4463090000000 1.0
C      1  0.4803830000000  0.4613390000000  0.5575070000000 1.0
C      1  0.5369450000000  0.5179580000000  0.5578130000000 1.0
C      1  0.5621490000000  0.5376110000000  0.5185610000000 1.0
C      1  0.5182690000000  0.5593360000000  0.5356640000000 1.0
C      1  0.5286510000000  0.4957580000000  0.4573780000000 1.0
C      1  0.4610590000000  0.4804520000000  0.5568410000000 1.0
C      1  0.4628610000000  0.5229120000000  0.4454260000000 1.0
C      1  0.5521590000000  0.4710060000000  0.4916000000000 1.0
C      1  0.4386080000000  0.4601960000000  0.5180690000000 1.0
C      1  0.4458210000000  0.5375150000000  0.4914840000000 1.0
C      1  0.5112620000000  0.4527630000000  0.4733660000000 1.0
C      1  0.4801130000000  0.4383150000000  0.5385200000000 1.0
C      1  0.4646850000000  0.5671550000000  0.4590670000000 1.0
C      1  0.4674160000000  0.4374890000000  0.4874570000000 1.0
C      1  0.4422320000000  0.4869960000000  0.4746020000000 1.0
C      1  0.4882230000000  0.4828460000000  0.4380030000000 1.0
C      1  0.4820470000000  0.5691090000000  0.5018750000000 1.0
C      1  0.5231500000000  0.4351740000000  0.5146280000000 1.0
C      1  0.5413550000000  0.5510950000000  0.4874210000000 1.0
C      1  0.4448990000000  0.5095470000000  0.5353800000000 1.0
C      1  0.5644780000000  0.4865790000000  0.5351010000000 1.0
C      1  0.5742510000000  0.5089520000000  0.4783920000000 1.0
C      1  0.4877960000000  0.5367260000000  0.5473840000000 1.0
C      1  0.5124060000000  0.4732140000000  0.5572700000000 1.0
C      1  0.5071300000000  0.5420670000000  0.4516310000000 1.0
C      1  0.4639030000000  0.4921020000000  0.4485490000000 1.0
C      1  0.4484220000000  0.4615320000000  0.4886500000000 1.0
C      1  0.4936970000000  0.4309300000000  0.4805030000000 1.0
C      1  0.4727220000000  0.5123450000000  0.5551230000000 1.0
C      1  0.5180120000000  0.5176980000000  0.4409030000000 1.0
C      1  0.5379220000000  0.4877260000000  0.5512960000000 1.0
C      1  0.4341470000000  0.5211180000000  0.5127050000000 1.0
C      1  0.5674630000000  0.5343600000000  0.4879010000000 1.0
C      1  0.5732330000000  0.4770440000000  0.5101940000000 1.0
C      1  0.4882000000000  0.5604440000000  0.5274030000000 1.0
C      1  0.5192080000000  0.5582230000000  0.4719070000000 1.0
C      1  0.5104290000000  0.4454710000000  0.5372910000000 1.0
C      1  0.6197980000000  0.4949110000000  0.4977450000000 1.0
C      1  0.5077750000000  0.6051450000000  0.4807270000000 1.0
C      1  0.5073370000000  0.3871910000000  0.5040870000000 1.0
C      1  0.3932660000000  0.4984510000000  0.4915590000000 1.0
C      1  0.4937270000000  0.4962330000000  0.6008450000000 1.0
C      1  0.4984650000000  0.5079910000000  0.3941680000000 1.0
C      1  0.5032330000000  0.5788770000000  0.4846220000000 1.0
C      1  0.5933180000000  0.4934700000000  0.4954560000000 1.0
C      1  0.5011890000000  0.5034660000000  0.4202960000000 1.0
C      1  0.4936000000000  0.4946990000000  0.5747810000000 1.0
C      1  0.5081720000000  0.4135040000000  0.5001140000000 1.0
C      1  0.4201760000000  0.5022490000000  0.4940390000000 1.0
END
