TITL C-245598-4421-20 0.0130526903982245 125000 -322.101476056557 0 0 60 (C1) n - 1
REM
REM in /home/bkarasulu/work/CARBON/AIRSS/Generating-Clusters/AIREBO/Higher-Symm/Only-C60
REM
REM
REM
REM
REM
REM ./C.cell (28575a23ae977d3b5fae324c64b13b57)
REM AIRSS Version 0.9.1 bugfix July 2018 build 013d7b7c2542+ Fri, 06 Jul 2018 19:26:36 +0100
REM compiler GCC version 9.2.1 20190827 (Red Hat 9.2.1-1)
REM options -cpp -mtune=generic -march=x86-64 -g -O0 -fpre-include=/usr/include/finclude/math-vector-fortran.h
REM seed -1704491480 -338055095 -2104647890 946010175 -537787942 2098367071 -161370620 528960108 -350002040 -1723216268 254543578 397053050 -2080622439 -1999061764 1656327951 -1396634854 1678915387 232191961 -1508777642 1119394786 912691845 -1739361933 -1442581575 2067756422 1416885863 -1507488941 -1904146887 623585361 495012704 375597186 -2132850747 -133063588 1293481982
REM
CELL 1.54180   50.00000   50.00000   50.00000   90.00000   90.00000   90.00000
LATT -1
SFAC C  
C      1  0.4716900000000  0.5343440000000  0.4476430000000 1.0
C      1  0.4820590000000  0.4537690000000  0.4478040000000 1.0
C      1  0.5443940000000  0.5021300000000  0.4488760000000 1.0
C      1  0.5284910000000  0.5477380000000  0.5083450000000 1.0
C      1  0.4454630000000  0.4997510000000  0.5114920000000 1.0
C      1  0.5402940000000  0.4442500000000  0.5115930000000 1.0
C      1  0.5359570000000  0.4083930000000  0.4809790000000 1.0
C      1  0.5435420000000  0.5762320000000  0.4947990000000 1.0
C      1  0.4077870000000  0.5241460000000  0.4803000000000 1.0
C      1  0.4873560000000  0.4688370000000  0.4955390000000 1.0
C      1  0.5258450000000  0.5032010000000  0.4953450000000 1.0
C      1  0.4816910000000  0.5210970000000  0.4938910000000 1.0
C      1  0.4618930000000  0.5351680000000  0.5437210000000 1.0
C      1  0.4856390000000  0.4411900000000  0.5451220000000 1.0
C      1  0.5524430000000  0.5145560000000  0.5460440000000 1.0
C      1  0.4919490000000  0.4674660000000  0.5577680000000 1.0
C      1  0.5275130000000  0.5060250000000  0.5549990000000 1.0
C      1  0.4791020000000  0.5163480000000  0.5568440000000 1.0
C      1  0.4919910000000  0.5869520000000  0.4807740000000 1.0
C      1  0.4337130000000  0.4561640000000  0.4757350000000 1.0
C      1  0.5734590000000  0.4661880000000  0.4784270000000 1.0
C      1  0.5671390000000  0.4949470000000  0.5306700000000 1.0
C      1  0.4757550000000  0.5568950000000  0.5291040000000 1.0
C      1  0.4665270000000  0.4326810000000  0.5277090000000 1.0
C      1  0.4270450000000  0.5445490000000  0.4780830000000 1.0
C      1  0.5085580000000  0.4169510000000  0.4810240000000 1.0
C      1  0.5484960000000  0.5455880000000  0.4809180000000 1.0
C      1  0.4703690000000  0.4938210000000  0.4808440000000 1.0
C      1  0.5154290000000  0.4749590000000  0.4822090000000 1.0
C      1  0.5117950000000  0.5263350000000  0.4789810000000 1.0
C      1  0.5045930000000  0.5278720000000  0.5182030000000 1.0
C      1  0.4721290000000  0.4868870000000  0.5200730000000 1.0
C      1  0.5058020000000  0.4940230000000  0.5212560000000 1.0
C      1  0.4395860000000  0.4849300000000  0.4820940000000 1.0
C      1  0.5448280000000  0.4678360000000  0.4937480000000 1.0
C      1  0.5061570000000  0.5590880000000  0.4853510000000 1.0
C      1  0.5646410000000  0.5311470000000  0.5045960000000 1.0
C      1  0.4413620000000  0.5481120000000  0.5043570000000 1.0
C      1  0.5053610000000  0.4248190000000  0.5104430000000 1.0
C      1  0.4421820000000  0.5278630000000  0.5241530000000 1.0
C      1  0.5137990000000  0.4506690000000  0.5289230000000 1.0
C      1  0.5527960000000  0.5388960000000  0.5309510000000 1.0
C      1  0.5898230000000  0.4874720000000  0.4848170000000 1.0
C      1  0.4664400000000  0.5880090000000  0.4906190000000 1.0
C      1  0.4457520000000  0.4362930000000  0.4848380000000 1.0
C      1  0.5058020000000  0.5225060000000  0.5492820000000 1.0
C      1  0.4744370000000  0.4886970000000  0.5509730000000 1.0
C      1  0.5208090000000  0.4770470000000  0.5467550000000 1.0
C      1  0.4157180000000  0.5024460000000  0.4944840000000 1.0
C      1  0.5497930000000  0.4204290000000  0.5021890000000 1.0
C      1  0.5476810000000  0.6011650000000  0.4956390000000 1.0
C      1  0.4885310000000  0.4317290000000  0.4639620000000 1.0
C      1  0.5563260000000  0.5160630000000  0.4687390000000 1.0
C      1  0.4560880000000  0.5467530000000  0.4673150000000 1.0
C      1  0.4739670000000  0.5543360000000  0.4952320000000 1.0
C      1  0.4768570000000  0.4364880000000  0.4955390000000 1.0
C      1  0.5595350000000  0.4982460000000  0.4976890000000 1.0
C      1  0.5194500000000  0.4924870000000  0.4539740000000 1.0
C      1  0.4916380000000  0.5165490000000  0.4539810000000 1.0
C      1  0.4847300000000  0.4804690000000  0.4542400000000 1.0
END
