TITL C-246169-6872-33 -0.00495924464829132 125000 -341.644743492376 0 0 60 (C1) n - 1
REM
REM in /home/bkarasulu/work/CARBON/AIRSS/Generating-Clusters/AIREBO/Higher-Symm/Only-C60
REM
REM
REM
REM
REM
REM ./C.cell (28575a23ae977d3b5fae324c64b13b57)
REM AIRSS Version 0.9.1 bugfix July 2018 build 013d7b7c2542+ Fri, 06 Jul 2018 19:26:36 +0100
REM compiler GCC version 9.2.1 20190827 (Red Hat 9.2.1-1)
REM options -cpp -mtune=generic -march=x86-64 -g -O0 -fpre-include=/usr/include/finclude/math-vector-fortran.h
REM seed -698801848 -2117083181 -800901792 799540879 11914216 1226647962 1118889195 301947846 -402959288 2067621757 1244087457 -949860761 367576144 -329015175 776289295 2079762034 -1402826972 -600610341 592092295 -1710396927 -1352401834 -1555286218 200480947 1868462403 1766389537 318449358 356329138 -544179679 -948762517 1020509823 -96129791 352764346 1881130508
REM
CELL 1.54180   50.00000   50.00000   50.00000   90.00000   90.00000   90.00000
LATT -1
SFAC C  
C      1  0.4495170000000  0.4638780000000  0.5111550000000 1.0
C      1  0.5229430000000  0.4517880000000  0.5163250000000 1.0
C      1  0.5658550000000  0.4954000000000  0.5140290000000 1.0
C      1  0.5169690000000  0.5563460000000  0.5187060000000 1.0
C      1  0.4488530000000  0.5401390000000  0.5178170000000 1.0
C      1  0.4551840000000  0.4567920000000  0.4783450000000 1.0
C      1  0.5204040000000  0.4389260000000  0.4846620000000 1.0
C      1  0.5623120000000  0.5040120000000  0.4812130000000 1.0
C      1  0.5215500000000  0.5625810000000  0.4854990000000 1.0
C      1  0.4577610000000  0.5389650000000  0.4898620000000 1.0
C      1  0.5021000000000  0.5354020000000  0.4881390000000 1.0
C      1  0.4583170000000  0.5065380000000  0.4805380000000 1.0
C      1  0.4765830000000  0.4795670000000  0.4841970000000 1.0
C      1  0.5095460000000  0.4712650000000  0.4840720000000 1.0
C      1  0.5302630000000  0.5245900000000  0.4927990000000 1.0
C      1  0.4879280000000  0.5297970000000  0.5136740000000 1.0
C      1  0.4694330000000  0.5067140000000  0.5119100000000 1.0
C      1  0.4855860000000  0.4788350000000  0.5146750000000 1.0
C      1  0.5164390000000  0.4840930000000  0.5122440000000 1.0
C      1  0.5348870000000  0.5056580000000  0.5143000000000 1.0
C      1  0.5380630000000  0.4640160000000  0.4712170000000 1.0
C      1  0.5557680000000  0.5353090000000  0.4759210000000 1.0
C      1  0.4874170000000  0.5614260000000  0.4719120000000 1.0
C      1  0.4318930000000  0.4975320000000  0.4663730000000 1.0
C      1  0.4731900000000  0.4337420000000  0.4700700000000 1.0
C      1  0.5512910000000  0.4572650000000  0.5271310000000 1.0
C      1  0.5564370000000  0.5277630000000  0.5285640000000 1.0
C      1  0.4857020000000  0.5611250000000  0.5267130000000 1.0
C      1  0.4387580000000  0.5091540000000  0.5263960000000 1.0
C      1  0.4745780000000  0.4490110000000  0.5273630000000 1.0
C      1  0.5696050000000  0.4458450000000  0.5090670000000 1.0
C      1  0.5760280000000  0.5473720000000  0.5172880000000 1.0
C      1  0.4743870000000  0.5854230000000  0.5118390000000 1.0
C      1  0.4127940000000  0.5017540000000  0.5104500000000 1.0
C      1  0.4733060000000  0.4193830000000  0.5164540000000 1.0
C      1  0.5601610000000  0.4427480000000  0.4831960000000 1.0
C      1  0.5745170000000  0.5530070000000  0.4923960000000 1.0
C      1  0.4760880000000  0.5853490000000  0.4863460000000 1.0
C      1  0.4096410000000  0.5008390000000  0.4829650000000 1.0
C      1  0.4725590000000  0.4130990000000  0.4895080000000 1.0
C      1  0.5025320000000  0.4538770000000  0.5406260000000 1.0
C      1  0.5516810000000  0.4832120000000  0.5425040000000 1.0
C      1  0.5288930000000  0.5382180000000  0.5367130000000 1.0
C      1  0.4681310000000  0.5402750000000  0.5458780000000 1.0
C      1  0.4544990000000  0.4822970000000  0.5393940000000 1.0
C      1  0.4983680000000  0.4428240000000  0.4590380000000 1.0
C      1  0.5525350000000  0.4875920000000  0.4599060000000 1.0
C      1  0.5276500000000  0.5427790000000  0.4582990000000 1.0
C      1  0.4691890000000  0.5380670000000  0.4589240000000 1.0
C      1  0.4512240000000  0.4780820000000  0.4534960000000 1.0
C      1  0.4857200000000  0.5206680000000  0.5590210000000 1.0
C      1  0.4768250000000  0.4917870000000  0.5602220000000 1.0
C      1  0.5029700000000  0.4757800000000  0.5584330000000 1.0
C      1  0.5278520000000  0.4933230000000  0.5591400000000 1.0
C      1  0.5162020000000  0.5214600000000  0.5565520000000 1.0
C      1  0.4841660000000  0.5172240000000  0.4461250000000 1.0
C      1  0.4764200000000  0.4884760000000  0.4432410000000 1.0
C      1  0.5022490000000  0.4699240000000  0.4432590000000 1.0
C      1  0.5249420000000  0.4921480000000  0.4460860000000 1.0
C      1  0.5133450000000  0.5195360000000  0.4478110000000 1.0
END
