TITL C-246170-4966-30 -79983.516584153 125000 -315.273065731546 0 0 60 (Ci) n - 1
REM
REM in /home/bkarasulu/work/CARBON/AIRSS/Generating-Clusters/AIREBO/Higher-Symm/Only-C60
REM
REM
REM
REM
REM
REM ./C.cell (28575a23ae977d3b5fae324c64b13b57)
REM AIRSS Version 0.9.1 bugfix July 2018 build 013d7b7c2542+ Fri, 06 Jul 2018 19:26:36 +0100
REM compiler GCC version 9.2.1 20190827 (Red Hat 9.2.1-1)
REM options -cpp -mtune=generic -march=x86-64 -g -O0 -fpre-include=/usr/include/finclude/math-vector-fortran.h
REM seed 2138202894 1025263548 -799893930 2111570055 -48042403 -223561471 -727174085 1266113263 1395144414 966388005 564670336 -905562607 -441894680 -659221826 -767069073 -1734874282 1248962315 1393840908 318147676 -1840044182 1675136818 1721731456 577509117 1142628432 1401830586 -1123103407 327317746 669279535 -893017313 923847293 1495164997 2104022077 -609735865
REM
CELL 1.54180   50.00000   50.00000   50.00000   90.00000   90.00000   90.00000
LATT -1
SFAC C  
C      1  0.5310050000000  0.4925450000000  0.4362280000000 1.0
C      1  0.4689620000000  0.5074410000000  0.5637610000000 1.0
C      1  0.5075790000000  0.4710270000000  0.5388460000000 1.0
C      1  0.4923950000000  0.5291020000000  0.4610190000000 1.0
C      1  0.5259710000000  0.5324990000000  0.4638140000000 1.0
C      1  0.4740040000000  0.4674730000000  0.5361980000000 1.0
C      1  0.4821510000000  0.5753120000000  0.4992940000000 1.0
C      1  0.5178700000000  0.4246520000000  0.5006150000000 1.0
C      1  0.4816460000000  0.4420520000000  0.5543110000000 1.0
C      1  0.5185260000000  0.5579170000000  0.4456070000000 1.0
C      1  0.5715860000000  0.4950290000000  0.5385180000000 1.0
C      1  0.4283790000000  0.5049940000000  0.4615280000000 1.0
C      1  0.5055670000000  0.4336260000000  0.5527470000000 1.0
C      1  0.4946490000000  0.5664760000000  0.4470760000000 1.0
C      1  0.4547640000000  0.5709820000000  0.5100280000000 1.0
C      1  0.5455300000000  0.4285780000000  0.4903060000000 1.0
C      1  0.5212000000000  0.4437350000000  0.5270640000000 1.0
C      1  0.4789120000000  0.5565360000000  0.4727280000000 1.0
C      1  0.4605740000000  0.4865860000000  0.4762920000000 1.0
C      1  0.5394210000000  0.5134690000000  0.5237330000000 1.0
C      1  0.4590490000000  0.4653770000000  0.4501790000000 1.0
C      1  0.5408880000000  0.5346510000000  0.5498700000000 1.0
C      1  0.4552280000000  0.4879870000000  0.5471870000000 1.0
C      1  0.5447400000000  0.5119770000000  0.4528330000000 1.0
C      1  0.5015510000000  0.5000860000000  0.4452600000000 1.0
C      1  0.4984170000000  0.4999590000000  0.5547470000000 1.0
C      1  0.5115300000000  0.5743880000000  0.5399660000000 1.0
C      1  0.4884460000000  0.4256470000000  0.4599750000000 1.0
C      1  0.5239190000000  0.5286460000000  0.4975480000000 1.0
C      1  0.4760390000000  0.4713550000000  0.5024660000000 1.0
C      1  0.5268390000000  0.5628670000000  0.4976300000000 1.0
C      1  0.4732120000000  0.4371240000000  0.5023460000000 1.0
C      1  0.4320020000000  0.4799750000000  0.4493240000000 1.0
C      1  0.5679190000000  0.5200120000000  0.5507930000000 1.0
C      1  0.4429310000000  0.4329110000000  0.5074210000000 1.0
C      1  0.5571310000000  0.5669920000000  0.4925620000000 1.0
C      1  0.4932340000000  0.4241550000000  0.4880800000000 1.0
C      1  0.5067980000000  0.5758570000000  0.5118470000000 1.0
C      1  0.5365280000000  0.4599000000000  0.5013690000000 1.0
C      1  0.4634100000000  0.5400990000000  0.4987030000000 1.0
C      1  0.5298440000000  0.4967550000000  0.4873560000000 1.0
C      1  0.4701220000000  0.5032380000000  0.5126880000000 1.0
C      1  0.5529040000000  0.4676630000000  0.4725970000000 1.0
C      1  0.4470090000000  0.5322920000000  0.5274460000000 1.0
C      1  0.4833840000000  0.4516490000000  0.4496290000000 1.0
C      1  0.5165550000000  0.5483970000000  0.5503650000000 1.0
C      1  0.5292830000000  0.4943140000000  0.5477670000000 1.0
C      1  0.4706870000000  0.5057720000000  0.4522690000000 1.0
C      1  0.5594510000000  0.4969670000000  0.4745090000000 1.0
C      1  0.4404940000000  0.5029880000000  0.5255160000000 1.0
C      1  0.4943500000000  0.5298060000000  0.5427690000000 1.0
C      1  0.5055860000000  0.4702330000000  0.4572350000000 1.0
C      1  0.4924630000000  0.5270850000000  0.5106900000000 1.0
C      1  0.5075090000000  0.4729230000000  0.4893100000000 1.0
C      1  0.4431640000000  0.4630260000000  0.5050680000000 1.0
C      1  0.5568140000000  0.5368800000000  0.4949000000000 1.0
C      1  0.4465270000000  0.5171340000000  0.4813960000000 1.0
C      1  0.5534290000000  0.4829000000000  0.5186430000000 1.0
C      1  0.5366010000000  0.4646860000000  0.4489760000000 1.0
C      1  0.4633230000000  0.5352980000000  0.5510490000000 1.0
END
