TITL C-246167-7980-25 -1292155.19865997 125000 -317.412112030344 0 0 60 (C1) n - 1
REM
REM in /home/bkarasulu/work/CARBON/AIRSS/Generating-Clusters/AIREBO/Higher-Symm/Only-C60
REM
REM
REM
REM
REM
REM ./C.cell (28575a23ae977d3b5fae324c64b13b57)
REM AIRSS Version 0.9.1 bugfix July 2018 build 013d7b7c2542+ Fri, 06 Jul 2018 19:26:36 +0100
REM compiler GCC version 9.2.1 20190827 (Red Hat 9.2.1-1)
REM options -cpp -mtune=generic -march=x86-64 -g -O0 -fpre-include=/usr/include/finclude/math-vector-fortran.h
REM seed 1644084272 73342711 440012755 -2061516432 1637992610 -137209386 812277817 -1673089817 -915803361 -1523036302 -120699605 -1323367913 866600735 1648398438 1833751983 -1934399584 79187581 1911602848 1158498036 1688528533 -1349805075 -1364381947 825025742 1145808201 1899396672 1624219908 -1755927753 978265072 -1754275107 -473314425 1484435740 -1413508678 1237977640
REM
CELL 1.54180   50.00000   50.00000   50.00000   90.00000   90.00000   90.00000
LATT -1
SFAC C  
C      1  0.5157440000000  0.4393200000000  0.5398860000000 1.0
C      1  0.5441460000000  0.5495310000000  0.5453150000000 1.0
C      1  0.4358900000000  0.5156680000000  0.5451220000000 1.0
C      1  0.4913880000000  0.4406720000000  0.4566180000000 1.0
C      1  0.4631470000000  0.5491750000000  0.4496290000000 1.0
C      1  0.5584620000000  0.5245740000000  0.4521750000000 1.0
C      1  0.4239300000000  0.5128820000000  0.5154460000000 1.0
C      1  0.5143470000000  0.4334550000000  0.5077450000000 1.0
C      1  0.5471570000000  0.5609640000000  0.5195750000000 1.0
C      1  0.5669710000000  0.5067160000000  0.4766190000000 1.0
C      1  0.4900790000000  0.4317620000000  0.4865850000000 1.0
C      1  0.4543460000000  0.5611720000000  0.4740740000000 1.0
C      1  0.4514150000000  0.4858280000000  0.4820410000000 1.0
C      1  0.5361870000000  0.4589720000000  0.4858890000000 1.0
C      1  0.5114060000000  0.5455560000000  0.4817490000000 1.0
C      1  0.5533690000000  0.4902920000000  0.5246710000000 1.0
C      1  0.4617760000000  0.4573220000000  0.5249020000000 1.0
C      1  0.4858830000000  0.5497370000000  0.5188160000000 1.0
C      1  0.4292570000000  0.4617510000000  0.5209480000000 1.0
C      1  0.5691770000000  0.4633870000000  0.5218190000000 1.0
C      1  0.5009090000000  0.5795930000000  0.5195510000000 1.0
C      1  0.5640080000000  0.4578820000000  0.4696190000000 1.0
C      1  0.4409800000000  0.4547820000000  0.4799880000000 1.0
C      1  0.4997230000000  0.5763000000000  0.4756710000000 1.0
C      1  0.5111610000000  0.5332780000000  0.5784410000000 1.0
C      1  0.4635140000000  0.4964180000000  0.5803250000000 1.0
C      1  0.5300210000000  0.4843690000000  0.5439900000000 1.0
C      1  0.5115430000000  0.5355610000000  0.4348930000000 1.0
C      1  0.5256500000000  0.4915970000000  0.4456800000000 1.0
C      1  0.4743320000000  0.4769090000000  0.4277460000000 1.0
C      1  0.4568270000000  0.5011430000000  0.5542960000000 1.0
C      1  0.5279590000000  0.4591110000000  0.5544250000000 1.0
C      1  0.5215160000000  0.5348290000000  0.5531930000000 1.0
C      1  0.5334730000000  0.5182410000000  0.4398060000000 1.0
C      1  0.4840300000000  0.4664070000000  0.4509840000000 1.0
C      1  0.4877700000000  0.5352990000000  0.4499420000000 1.0
C      1  0.5575420000000  0.4461780000000  0.5072320000000 1.0
C      1  0.5228980000000  0.5656490000000  0.5062760000000 1.0
C      1  0.4249010000000  0.4829960000000  0.5031790000000 1.0
C      1  0.4523610000000  0.4380990000000  0.4986200000000 1.0
C      1  0.4764870000000  0.5665220000000  0.4907730000000 1.0
C      1  0.5777790000000  0.4789370000000  0.4670080000000 1.0
C      1  0.5021800000000  0.4928160000000  0.5297120000000 1.0
C      1  0.5063850000000  0.5246310000000  0.5290800000000 1.0
C      1  0.4719640000000  0.4876980000000  0.5312080000000 1.0
C      1  0.4852070000000  0.4854120000000  0.4783370000000 1.0
C      1  0.4906560000000  0.5190870000000  0.4765800000000 1.0
C      1  0.5190740000000  0.4843660000000  0.4754580000000 1.0
C      1  0.4285740000000  0.5662220000000  0.4797760000000 1.0
C      1  0.4655020000000  0.4125360000000  0.4940390000000 1.0
C      1  0.5747690000000  0.5116720000000  0.5091400000000 1.0
C      1  0.5711610000000  0.5643780000000  0.5078630000000 1.0
C      1  0.5367860000000  0.4139880000000  0.5002160000000 1.0
C      1  0.4046510000000  0.5302030000000  0.5063570000000 1.0
C      1  0.5151790000000  0.4672830000000  0.5113100000000 1.0
C      1  0.5235950000000  0.5258440000000  0.5032200000000 1.0
C      1  0.4567590000000  0.5055810000000  0.5092130000000 1.0
C      1  0.4854200000000  0.4603490000000  0.5013300000000 1.0
C      1  0.4734330000000  0.5278850000000  0.5003730000000 1.0
C      1  0.5392450000000  0.5012120000000  0.4955290000000 1.0
END
