TITL C-245594-3654-8 -7.05461843134882e-05 125000 -294.06962163756 0 0 60 (C3) n - 1
REM
REM in /home/bkarasulu/work/CARBON/AIRSS/Generating-Clusters/AIREBO/Higher-Symm/Only-C60
REM
REM
REM
REM
REM
REM ./C.cell (28575a23ae977d3b5fae324c64b13b57)
REM AIRSS Version 0.9.1 bugfix July 2018 build 013d7b7c2542+ Fri, 06 Jul 2018 19:26:36 +0100
REM compiler GCC version 9.2.1 20190827 (Red Hat 9.2.1-1)
REM options -cpp -mtune=generic -march=x86-64 -g -O0 -fpre-include=/usr/include/finclude/math-vector-fortran.h
REM seed 152429979 -677152894 194593172 -34926633 110664952 -1076746068 1325228067 -383869382 548415407 -1051904679 -1604971770 1645299684 -538648055 827812381 9278857 -652585298 241487195 586966428 -338245082 -1375803530 -1567947203 -913593014 336698663 -1166378094 412644192 -755084530 1619828779 -1886608203 -2033934228 -1624987059 -1052942118 1811335110 122824686
REM
CELL 1.54180   50.00000   50.00000   50.00000   90.00000   90.00000   90.00000
LATT -1
SFAC C  
C      1  0.4282430000000  0.5114170000000  0.4678980000000 1.0
C      1  0.4678860000000  0.4282470000000  0.5114110000000 1.0
C      1  0.5114010000000  0.4678920000000  0.4282430000000 1.0
C      1  0.5733780000000  0.5114390000000  0.5361060000000 1.0
C      1  0.4256230000000  0.4800080000000  0.5381300000000 1.0
C      1  0.5768740000000  0.4787080000000  0.4621640000000 1.0
C      1  0.5381160000000  0.4256180000000  0.4799970000000 1.0
C      1  0.4621760000000  0.5768830000000  0.4787190000000 1.0
C      1  0.5361200000000  0.5733700000000  0.5114450000000 1.0
C      1  0.4787170000000  0.4621710000000  0.5768800000000 1.0
C      1  0.5114560000000  0.5361090000000  0.5733740000000 1.0
C      1  0.4800000000000  0.5381280000000  0.4256240000000 1.0
C      1  0.4244040000000  0.4792690000000  0.4643520000000 1.0
C      1  0.4674790000000  0.5739310000000  0.5107530000000 1.0
C      1  0.5123080000000  0.5350110000000  0.4296220000000 1.0
C      1  0.5761170000000  0.4791660000000  0.5408650000000 1.0
C      1  0.4296260000000  0.5123170000000  0.5350170000000 1.0
C      1  0.5739260000000  0.5107430000000  0.4674650000000 1.0
C      1  0.5408770000000  0.5761120000000  0.4791730000000 1.0
C      1  0.4643380000000  0.4244130000000  0.4792620000000 1.0
C      1  0.5350050000000  0.4296180000000  0.5123060000000 1.0
C      1  0.4791850000000  0.5408720000000  0.5761180000000 1.0
C      1  0.5107520000000  0.4674690000000  0.5739260000000 1.0
C      1  0.4792510000000  0.4643500000000  0.4244100000000 1.0
C      1  0.5321480000000  0.4575470000000  0.4841760000000 1.0
C      1  0.4841790000000  0.5321560000000  0.4575510000000 1.0
C      1  0.4575510000000  0.4841830000000  0.5321560000000 1.0
C      1  0.4705310000000  0.4588570000000  0.5161970000000 1.0
C      1  0.5327850000000  0.5428000000000  0.5164670000000 1.0
C      1  0.4680280000000  0.5449430000000  0.4835400000000 1.0
C      1  0.5164750000000  0.5327770000000  0.5428020000000 1.0
C      1  0.4835370000000  0.4680260000000  0.5449400000000 1.0
C      1  0.5161900000000  0.4705330000000  0.4588530000000 1.0
C      1  0.5449350000000  0.4835330000000  0.4680210000000 1.0
C      1  0.4588540000000  0.5162000000000  0.4705370000000 1.0
C      1  0.5428070000000  0.5164640000000  0.5327760000000 1.0
C      1  0.5345250000000  0.5444420000000  0.4842160000000 1.0
C      1  0.4835770000000  0.4694550000000  0.4565960000000 1.0
C      1  0.4604130000000  0.5163710000000  0.5312560000000 1.0
C      1  0.4700720000000  0.5434460000000  0.5160840000000 1.0
C      1  0.5312500000000  0.4604060000000  0.5163650000000 1.0
C      1  0.4694470000000  0.4565990000000  0.4835850000000 1.0
C      1  0.5160820000000  0.4700640000000  0.5434420000000 1.0
C      1  0.4842250000000  0.5345220000000  0.5444470000000 1.0
C      1  0.5163680000000  0.5312520000000  0.4604090000000 1.0
C      1  0.5434430000000  0.5160770000000  0.4700630000000 1.0
C      1  0.4565910000000  0.4835880000000  0.4694560000000 1.0
C      1  0.5444470000000  0.4842130000000  0.5345180000000 1.0
C      1  0.4985350000000  0.5256670000000  0.4018090000000 1.0
C      1  0.4953240000000  0.4770590000000  0.6007540000000 1.0
C      1  0.4770700000000  0.6007570000000  0.4953220000000 1.0
C      1  0.6007520000000  0.4953090000000  0.4770530000000 1.0
C      1  0.5268090000000  0.6003080000000  0.4960120000000 1.0
C      1  0.4778480000000  0.4008130000000  0.4973450000000 1.0
C      1  0.5256550000000  0.4018060000000  0.4985360000000 1.0
C      1  0.4960230000000  0.5267980000000  0.6003120000000 1.0
C      1  0.4018100000000  0.4985490000000  0.5256720000000 1.0
C      1  0.6003130000000  0.4960020000000  0.5267910000000 1.0
C      1  0.4008090000000  0.4973550000000  0.4778660000000 1.0
C      1  0.4973350000000  0.4778600000000  0.4008110000000 1.0
END
