TITL C-246165-5856-11 -0.00296029683872059 125000 -341.231578092013 0 0 60 (C1) n - 1
REM
REM in /home/bkarasulu/work/CARBON/AIRSS/Generating-Clusters/AIREBO/Higher-Symm/Only-C60
REM
REM
REM
REM
REM
REM ./C.cell (28575a23ae977d3b5fae324c64b13b57)
REM AIRSS Version 0.9.1 bugfix July 2018 build 013d7b7c2542+ Fri, 06 Jul 2018 19:26:36 +0100
REM compiler GCC version 9.2.1 20190827 (Red Hat 9.2.1-1)
REM options -cpp -mtune=generic -march=x86-64 -g -O0 -fpre-include=/usr/include/finclude/math-vector-fortran.h
REM seed 1173918295 1191604407 1173929267 -422921293 -574486430 1312420781 503097427 -138521516 187901879 628997464 940612479 -285439562 -1057922470 302632743 708776809 1355483728 32146513 -1996045852 1593531945 2039415575 1999412504 815140291 -1348748358 -779246560 -177747307 -550193502 -695139932 -654279256 -646241712 1686009804 969055320 -1003638173 -1376813789
REM
CELL 1.54180   50.00000   50.00000   50.00000   90.00000   90.00000   90.00000
LATT -1
SFAC C  
C      1  0.5719180000000  0.5006620000000  0.5125300000000 1.0
C      1  0.4278790000000  0.4976390000000  0.5086320000000 1.0
C      1  0.5465310000000  0.4999450000000  0.5559200000000 1.0
C      1  0.4470580000000  0.4984820000000  0.5547810000000 1.0
C      1  0.5278100000000  0.5455680000000  0.4598630000000 1.0
C      1  0.4743670000000  0.4563670000000  0.4575700000000 1.0
C      1  0.5557030000000  0.4504060000000  0.4544730000000 1.0
C      1  0.4383490000000  0.5504930000000  0.4537140000000 1.0
C      1  0.4320010000000  0.5395830000000  0.4810390000000 1.0
C      1  0.5658200000000  0.4598120000000  0.4816330000000 1.0
C      1  0.4167230000000  0.5135450000000  0.4863520000000 1.0
C      1  0.5836750000000  0.4835780000000  0.4906830000000 1.0
C      1  0.5557930000000  0.4831340000000  0.4508240000000 1.0
C      1  0.4471990000000  0.5200010000000  0.4497020000000 1.0
C      1  0.4753720000000  0.4750820000000  0.4816600000000 1.0
C      1  0.5262520000000  0.5238970000000  0.4837530000000 1.0
C      1  0.5243880000000  0.4484900000000  0.4529420000000 1.0
C      1  0.4808210000000  0.5587330000000  0.4613320000000 1.0
C      1  0.4511430000000  0.5383690000000  0.5276940000000 1.0
C      1  0.5470830000000  0.4600640000000  0.5284570000000 1.0
C      1  0.4772660000000  0.4586350000000  0.5594090000000 1.0
C      1  0.5578120000000  0.5586000000000  0.5607210000000 1.0
C      1  0.4816580000000  0.4785600000000  0.5316990000000 1.0
C      1  0.5161260000000  0.5171590000000  0.5366560000000 1.0
C      1  0.4372380000000  0.4415630000000  0.4293220000000 1.0
C      1  0.5411700000000  0.5420790000000  0.4286240000000 1.0
C      1  0.4481460000000  0.4707990000000  0.5519540000000 1.0
C      1  0.5421610000000  0.5299700000000  0.5510260000000 1.0
C      1  0.4774640000000  0.5455210000000  0.5353040000000 1.0
C      1  0.5216970000000  0.4499140000000  0.5341060000000 1.0
C      1  0.5715970000000  0.5246780000000  0.4708980000000 1.0
C      1  0.4343140000000  0.4743200000000  0.4659310000000 1.0
C      1  0.4787960000000  0.4351660000000  0.5151130000000 1.0
C      1  0.5180540000000  0.5647190000000  0.5185620000000 1.0
C      1  0.4361740000000  0.5124370000000  0.5326020000000 1.0
C      1  0.5606190000000  0.4866810000000  0.5356970000000 1.0
C      1  0.4694590000000  0.5126550000000  0.5679450000000 1.0
C      1  0.5267390000000  0.4855290000000  0.5683090000000 1.0
C      1  0.4696580000000  0.5310270000000  0.4707110000000 1.0
C      1  0.5302840000000  0.4753390000000  0.4720080000000 1.0
C      1  0.5384520000000  0.5600260000000  0.5361310000000 1.0
C      1  0.4605840000000  0.4449100000000  0.5343410000000 1.0
C      1  0.5065460000000  0.4681620000000  0.5524170000000 1.0
C      1  0.4900700000000  0.5257290000000  0.5516470000000 1.0
C      1  0.5435920000000  0.4748190000000  0.5016530000000 1.0
C      1  0.4551530000000  0.5254250000000  0.4999360000000 1.0
C      1  0.4946690000000  0.5503280000000  0.5134110000000 1.0
C      1  0.5044420000000  0.4475270000000  0.5114800000000 1.0
C      1  0.4943350000000  0.5259050000000  0.4936180000000 1.0
C      1  0.5046380000000  0.4734420000000  0.4942520000000 1.0
C      1  0.4443310000000  0.4769710000000  0.4954820000000 1.0
C      1  0.5574060000000  0.5217380000000  0.4973120000000 1.0
C      1  0.4762690000000  0.4991070000000  0.5050120000000 1.0
C      1  0.5218640000000  0.5004900000000  0.5074130000000 1.0
C      1  0.4976070000000  0.4438800000000  0.4489420000000 1.0
C      1  0.5048910000000  0.5651510000000  0.4600280000000 1.0
C      1  0.4274860000000  0.5018910000000  0.4602550000000 1.0
C      1  0.5773280000000  0.4971370000000  0.4637740000000 1.0
C      1  0.5601140000000  0.5424400000000  0.4533930000000 1.0
C      1  0.4479060000000  0.4557190000000  0.4493560000000 1.0
END
