TITL C-246168-3210-1 0.00199170517952953 125000 -300.167623341339 0 0 60 (C1) n - 1
REM
REM in /home/bkarasulu/work/CARBON/AIRSS/Generating-Clusters/AIREBO/Higher-Symm/Only-C60
REM
REM
REM
REM
REM
REM ./C.cell (28575a23ae977d3b5fae324c64b13b57)
REM AIRSS Version 0.9.1 bugfix July 2018 build 013d7b7c2542+ Fri, 06 Jul 2018 19:26:36 +0100
REM compiler GCC version 9.2.1 20190827 (Red Hat 9.2.1-1)
REM options -cpp -mtune=generic -march=x86-64 -g -O0 -fpre-include=/usr/include/finclude/math-vector-fortran.h
REM seed -1444546040 -1314651399 1257177453 -1467725964 -457551930 1940651306 -238827770 -1204988097 -898663892 416310798 1771489880 1153545963 -411403985 1520922592 -304442642 -258084754 2143118935 -1125174733 -208110527 1391245049 -637552983 -685248533 1322573726 -1799509036 -836999007 815184026 1755246617 -1813368379 1742161530 -1981087648 588465280 881786546 787572499
REM
CELL 1.54180   50.00000   50.00000   50.00000   90.00000   90.00000   90.00000
LATT -1
SFAC C  
C      1  0.4739250000000  0.4451700000000  0.4858810000000 1.0
C      1  0.5051300000000  0.4470520000000  0.4724480000000 1.0
C      1  0.5296600000000  0.4458520000000  0.4962550000000 1.0
C      1  0.5126680000000  0.4470850000000  0.5257300000000 1.0
C      1  0.4791820000000  0.4474250000000  0.5197260000000 1.0
C      1  0.4768570000000  0.5516870000000  0.4806110000000 1.0
C      1  0.5098060000000  0.5518390000000  0.4721810000000 1.0
C      1  0.5300600000000  0.5512170000000  0.4995730000000 1.0
C      1  0.5091020000000  0.5509770000000  0.5277640000000 1.0
C      1  0.4748720000000  0.5504360000000  0.5151720000000 1.0
C      1  0.4896670000000  0.5330620000000  0.5492020000000 1.0
C      1  0.4483390000000  0.5298540000000  0.5096300000000 1.0
C      1  0.4804960000000  0.5343790000000  0.4514730000000 1.0
C      1  0.5373130000000  0.5341220000000  0.4629010000000 1.0
C      1  0.5456990000000  0.5351760000000  0.5251590000000 1.0
C      1  0.4977530000000  0.4710130000000  0.5458880000000 1.0
C      1  0.4499150000000  0.4630760000000  0.5122430000000 1.0
C      1  0.4738780000000  0.4697470000000  0.4623680000000 1.0
C      1  0.5298160000000  0.4686630000000  0.4634610000000 1.0
C      1  0.5455410000000  0.4678650000000  0.5167590000000 1.0
C      1  0.4994990000000  0.5165880000000  0.4281380000000 1.0
C      1  0.5737520000000  0.5115790000000  0.4866610000000 1.0
C      1  0.5343650000000  0.5124360000000  0.5661720000000 1.0
C      1  0.4605190000000  0.5169260000000  0.5553270000000 1.0
C      1  0.4361430000000  0.5133330000000  0.4825240000000 1.0
C      1  0.5006730000000  0.4899990000000  0.4241020000000 1.0
C      1  0.5725940000000  0.4828130000000  0.4837010000000 1.0
C      1  0.5375850000000  0.4837900000000  0.5634990000000 1.0
C      1  0.4581170000000  0.4882410000000  0.5570200000000 1.0
C      1  0.4312190000000  0.4853000000000  0.4779210000000 1.0
C      1  0.4990280000000  0.4884330000000  0.5729220000000 1.0
C      1  0.4288360000000  0.4824480000000  0.5248910000000 1.0
C      1  0.4569030000000  0.4881090000000  0.4404320000000 1.0
C      1  0.5459470000000  0.4880350000000  0.4415350000000 1.0
C      1  0.5701690000000  0.4890870000000  0.5231040000000 1.0
C      1  0.4953180000000  0.5133230000000  0.5746070000000 1.0
C      1  0.4255070000000  0.5070480000000  0.5203560000000 1.0
C      1  0.4585500000000  0.5131250000000  0.4365370000000 1.0
C      1  0.5493400000000  0.5130840000000  0.4422870000000 1.0
C      1  0.5693700000000  0.5140900000000  0.5263020000000 1.0
C      1  0.5219500000000  0.5155360000000  0.4836370000000 1.0
C      1  0.5219060000000  0.5157580000000  0.5152670000000 1.0
C      1  0.4919910000000  0.5155020000000  0.5231910000000 1.0
C      1  0.4735730000000  0.5152240000000  0.4964270000000 1.0
C      1  0.4930600000000  0.5145670000000  0.4733730000000 1.0
C      1  0.5307030000000  0.4853990000000  0.4916660000000 1.0
C      1  0.5191560000000  0.4864730000000  0.5246210000000 1.0
C      1  0.4795040000000  0.4871750000000  0.5233230000000 1.0
C      1  0.4681910000000  0.4839540000000  0.4927340000000 1.0
C      1  0.5015560000000  0.4875650000000  0.4638940000000 1.0
C      1  0.4982340000000  0.4603410000000  0.4405780000000 1.0
C      1  0.5575440000000  0.4582250000000  0.4801430000000 1.0
C      1  0.5358070000000  0.4592790000000  0.5481930000000 1.0
C      1  0.4657880000000  0.4597160000000  0.5484800000000 1.0
C      1  0.4415950000000  0.4567840000000  0.4812770000000 1.0
C      1  0.5090050000000  0.5475720000000  0.4384530000000 1.0
C      1  0.5571140000000  0.5341830000000  0.4874700000000 1.0
C      1  0.5288600000000  0.5356330000000  0.5509710000000 1.0
C      1  0.4549190000000  0.5479720000000  0.5426390000000 1.0
C      1  0.4464320000000  0.5396580000000  0.4712000000000 1.0
END
