TITL C-246167-7980-9 -0.0106749146265068 125000 -323.419384585621 0 0 60 (C1) n - 1
REM
REM in /home/bkarasulu/work/CARBON/AIRSS/Generating-Clusters/AIREBO/Higher-Symm/Only-C60
REM
REM
REM
REM
REM
REM ./C.cell (28575a23ae977d3b5fae324c64b13b57)
REM AIRSS Version 0.9.1 bugfix July 2018 build 013d7b7c2542+ Fri, 06 Jul 2018 19:26:36 +0100
REM compiler GCC version 9.2.1 20190827 (Red Hat 9.2.1-1)
REM options -cpp -mtune=generic -march=x86-64 -g -O0 -fpre-include=/usr/include/finclude/math-vector-fortran.h
REM seed -444287520 -2111507015 -976974107 -1125340907 2133746005 -27730551 -657080700 -439582454 449400771 1296932741 -1302795913 -10572005 -127205730 -2049171063 -1606506125 677175215 -1179350662 -386108500 -1791537755 1438092659 817374483 819096739 377800459 -914670280 -1315077980 -288187625 -1705344859 605150446 393319741 -287263157 1417396944 -1891048686 806013279
REM
CELL 1.54180   50.00000   50.00000   50.00000   90.00000   90.00000   90.00000
LATT -1
SFAC C  
C      1  0.5288220000000  0.4872410000000  0.5621390000000 1.0
C      1  0.4697010000000  0.5142720000000  0.5639440000000 1.0
C      1  0.5308300000000  0.4886090000000  0.4321230000000 1.0
C      1  0.4748370000000  0.5152450000000  0.4297530000000 1.0
C      1  0.5418360000000  0.5566140000000  0.4836260000000 1.0
C      1  0.4577710000000  0.4444560000000  0.4751540000000 1.0
C      1  0.5412790000000  0.5535550000000  0.5120470000000 1.0
C      1  0.4661370000000  0.4460790000000  0.5261440000000 1.0
C      1  0.4924980000000  0.5606040000000  0.5155780000000 1.0
C      1  0.5138400000000  0.4356750000000  0.5169040000000 1.0
C      1  0.4920210000000  0.5608100000000  0.4871440000000 1.0
C      1  0.5115290000000  0.4337370000000  0.4848340000000 1.0
C      1  0.5067910000000  0.5234630000000  0.5177690000000 1.0
C      1  0.4940550000000  0.4780430000000  0.5115690000000 1.0
C      1  0.5019000000000  0.5222410000000  0.4868660000000 1.0
C      1  0.5012200000000  0.4827940000000  0.4808180000000 1.0
C      1  0.4345400000000  0.5037760000000  0.5289450000000 1.0
C      1  0.5641630000000  0.4915470000000  0.5259560000000 1.0
C      1  0.4402150000000  0.5063920000000  0.4707550000000 1.0
C      1  0.5585430000000  0.4916660000000  0.4712030000000 1.0
C      1  0.5570690000000  0.4858400000000  0.4431380000000 1.0
C      1  0.4475610000000  0.5133090000000  0.4432070000000 1.0
C      1  0.5559700000000  0.4833130000000  0.5537760000000 1.0
C      1  0.4430230000000  0.5179320000000  0.5549810000000 1.0
C      1  0.5165140000000  0.5619150000000  0.4717620000000 1.0
C      1  0.4802750000000  0.4269640000000  0.4832830000000 1.0
C      1  0.5189130000000  0.5633290000000  0.5269420000000 1.0
C      1  0.4839360000000  0.4294420000000  0.5129570000000 1.0
C      1  0.5071270000000  0.4711720000000  0.4431580000000 1.0
C      1  0.4983750000000  0.5305550000000  0.4272140000000 1.0
C      1  0.5032000000000  0.4685330000000  0.5588160000000 1.0
C      1  0.4940120000000  0.5327060000000  0.5592790000000 1.0
C      1  0.5553900000000  0.5237980000000  0.4825830000000 1.0
C      1  0.4468580000000  0.4758540000000  0.4842760000000 1.0
C      1  0.5503280000000  0.5210320000000  0.5161300000000 1.0
C      1  0.4510610000000  0.4760680000000  0.5181510000000 1.0
C      1  0.4804440000000  0.4517650000000  0.4519160000000 1.0
C      1  0.5161140000000  0.5525830000000  0.4435950000000 1.0
C      1  0.4753810000000  0.4492630000000  0.5552340000000 1.0
C      1  0.5204330000000  0.5523370000000  0.5532780000000 1.0
C      1  0.4517980000000  0.4724060000000  0.5519580000000 1.0
C      1  0.5444830000000  0.5312400000000  0.5480500000000 1.0
C      1  0.4556100000000  0.4749900000000  0.4512950000000 1.0
C      1  0.5423170000000  0.5325890000000  0.4520720000000 1.0
C      1  0.5193360000000  0.4664430000000  0.5289510000000 1.0
C      1  0.4772800000000  0.5336440000000  0.5296830000000 1.0
C      1  0.5206210000000  0.4589800000000  0.4718920000000 1.0
C      1  0.4734340000000  0.5370610000000  0.4778100000000 1.0
C      1  0.4755110000000  0.4875630000000  0.5643510000000 1.0
C      1  0.5224090000000  0.5139860000000  0.5616800000000 1.0
C      1  0.4785040000000  0.4871520000000  0.4349680000000 1.0
C      1  0.5250470000000  0.5158650000000  0.4319070000000 1.0
C      1  0.5252090000000  0.4996140000000  0.5243160000000 1.0
C      1  0.4741680000000  0.5008120000000  0.5213300000000 1.0
C      1  0.5257520000000  0.5013560000000  0.4911870000000 1.0
C      1  0.4758980000000  0.5047310000000  0.4884950000000 1.0
C      1  0.4461780000000  0.5289500000000  0.5167220000000 1.0
C      1  0.5490390000000  0.4696670000000  0.5127060000000 1.0
C      1  0.4447800000000  0.5294350000000  0.4887040000000 1.0
C      1  0.5481100000000  0.4689880000000  0.4849780000000 1.0
END
