TITL C-246165-5856-16 3993.28650129138 125000 -334.291008720851 0 0 60 (C1) n - 1
REM
REM in /home/bkarasulu/work/CARBON/AIRSS/Generating-Clusters/AIREBO/Higher-Symm/Only-C60
REM
REM
REM
REM
REM
REM ./C.cell (28575a23ae977d3b5fae324c64b13b57)
REM AIRSS Version 0.9.1 bugfix July 2018 build 013d7b7c2542+ Fri, 06 Jul 2018 19:26:36 +0100
REM compiler GCC version 9.2.1 20190827 (Red Hat 9.2.1-1)
REM options -cpp -mtune=generic -march=x86-64 -g -O0 -fpre-include=/usr/include/finclude/math-vector-fortran.h
REM seed 1581031731 -1502640161 289223528 -353348720 1524751211 1571885743 -817577954 -971492967 -2044848634 -566390941 -995610886 865963348 936609003 -1034338285 -149934117 -77816307 -1240890595 875069416 -748962187 -792105774 960019575 -2064579905 -1062488590 -1614090698 -1961543889 -1514652622 -1056901766 -2035584963 300104137 -72679030 -1922559583 -750723563 1253395736
REM
CELL 1.54180   50.00000   50.00000   50.00000   90.00000   90.00000   90.00000
LATT -1
SFAC C  
C      1  0.5293530000000  0.5153480000000  0.4986050000000 1.0
C      1  0.4743990000000  0.5200340000000  0.4978290000000 1.0
C      1  0.4956870000000  0.4640240000000  0.4961570000000 1.0
C      1  0.4613800000000  0.5355280000000  0.5627520000000 1.0
C      1  0.4885420000000  0.4466630000000  0.5627260000000 1.0
C      1  0.5513840000000  0.5176020000000  0.5621450000000 1.0
C      1  0.5333730000000  0.4643020000000  0.5303670000000 1.0
C      1  0.5130060000000  0.5519170000000  0.5318500000000 1.0
C      1  0.4550540000000  0.4860860000000  0.5283850000000 1.0
C      1  0.5008940000000  0.5367400000000  0.4423120000000 1.0
C      1  0.4681260000000  0.4813440000000  0.4419320000000 1.0
C      1  0.5302760000000  0.4815300000000  0.4432840000000 1.0
C      1  0.5101860000000  0.4201090000000  0.4706570000000 1.0
C      1  0.5630810000000  0.5474080000000  0.4715750000000 1.0
C      1  0.4281170000000  0.5301770000000  0.4724280000000 1.0
C      1  0.5136580000000  0.5201930000000  0.5251040000000 1.0
C      1  0.4836430000000  0.5044130000000  0.5266270000000 1.0
C      1  0.5033030000000  0.4768550000000  0.5234250000000 1.0
C      1  0.4778570000000  0.5291450000000  0.4220070000000 1.0
C      1  0.4859120000000  0.4657310000000  0.4208110000000 1.0
C      1  0.5366230000000  0.5043940000000  0.4220790000000 1.0
C      1  0.5387190000000  0.4957590000000  0.4730700000000 1.0
C      1  0.4849110000000  0.5381260000000  0.4723540000000 1.0
C      1  0.4748400000000  0.4651190000000  0.4711110000000 1.0
C      1  0.5152680000000  0.4575170000000  0.4358710000000 1.0
C      1  0.5293260000000  0.5345890000000  0.4359010000000 1.0
C      1  0.4561640000000  0.5074800000000  0.4367060000000 1.0
C      1  0.4919310000000  0.5575990000000  0.5515510000000 1.0
C      1  0.4571710000000  0.4653240000000  0.5493650000000 1.0
C      1  0.5487020000000  0.4802640000000  0.5498410000000 1.0
C      1  0.5522150000000  0.5528930000000  0.4497150000000 1.0
C      1  0.4287500000000  0.5176760000000  0.4507460000000 1.0
C      1  0.5203770000000  0.4284180000000  0.4493710000000 1.0
C      1  0.5066590000000  0.5677760000000  0.5045090000000 1.0
C      1  0.4403110000000  0.4720230000000  0.5035710000000 1.0
C      1  0.5519900000000  0.4611460000000  0.5041840000000 1.0
C      1  0.5058870000000  0.4747800000000  0.5573850000000 1.0
C      1  0.5187560000000  0.5221730000000  0.5579630000000 1.0
C      1  0.4795900000000  0.5071920000000  0.5602750000000 1.0
C      1  0.4628660000000  0.5382830000000  0.4496170000000 1.0
C      1  0.4850720000000  0.4468770000000  0.4474860000000 1.0
C      1  0.5516460000000  0.5130150000000  0.4498660000000 1.0
C      1  0.4632880000000  0.5561560000000  0.5395170000000 1.0
C      1  0.4698200000000  0.4387390000000  0.5386570000000 1.0
C      1  0.5660850000000  0.5032600000000  0.5388330000000 1.0
C      1  0.5310940000000  0.4368060000000  0.5128110000000 1.0
C      1  0.5381370000000  0.5602660000000  0.5126430000000 1.0
C      1  0.4319200000000  0.5025950000000  0.5131780000000 1.0
C      1  0.4759820000000  0.4776320000000  0.5723700000000 1.0
C      1  0.5277710000000  0.4929160000000  0.5698430000000 1.0
C      1  0.4938700000000  0.5347010000000  0.5741920000000 1.0
C      1  0.4820820000000  0.5592620000000  0.4948080000000 1.0
C      1  0.4574630000000  0.4526510000000  0.4934760000000 1.0
C      1  0.5582830000000  0.4863690000000  0.4946780000000 1.0
C      1  0.5543420000000  0.5375250000000  0.4994540000000 1.0
C      1  0.4419450000000  0.5280740000000  0.4999270000000 1.0
C      1  0.5042570000000  0.4321350000000  0.4984510000000 1.0
C      1  0.5663400000000  0.5079480000000  0.5112060000000 1.0
C      1  0.4596650000000  0.5541950000000  0.5117070000000 1.0
C      1  0.4726510000000  0.4351970000000  0.5107380000000 1.0
END
