TITL C-246169-6872-30 -0.000469937367068974 125000 -358.814104865801 0 0 60 (C1) n - 1
REM
REM in /home/bkarasulu/work/CARBON/AIRSS/Generating-Clusters/AIREBO/Higher-Symm/Only-C60
REM
REM
REM
REM
REM
REM ./C.cell (28575a23ae977d3b5fae324c64b13b57)
REM AIRSS Version 0.9.1 bugfix July 2018 build 013d7b7c2542+ Fri, 06 Jul 2018 19:26:36 +0100
REM compiler GCC version 9.2.1 20190827 (Red Hat 9.2.1-1)
REM options -cpp -mtune=generic -march=x86-64 -g -O0 -fpre-include=/usr/include/finclude/math-vector-fortran.h
REM seed -1399352237 106830298 -1379481551 1556404797 -1448226522 -1990935337 -2049055556 659942149 -1157335094 861602717 -1079935786 -1546576635 1915291202 230251780 2080038765 -209278759 1411697859 -1283164020 -1008024385 1665600008 -618621703 -83391980 332831263 2122202329 248259367 -1072977182 1292732140 2095390813 -938952509 -999398946 -1144274679 -286746585 1455091619
REM
CELL 1.54180   50.00000   50.00000   50.00000   90.00000   90.00000   90.00000
LATT -1
SFAC C  
C      1  0.4298080000000  0.4837890000000  0.4272370000000 1.0
C      1  0.4509670000000  0.5603860000000  0.4872410000000 1.0
C      1  0.4604420000000  0.5107030000000  0.5683970000000 1.0
C      1  0.4574070000000  0.4346080000000  0.5154210000000 1.0
C      1  0.4450260000000  0.4867900000000  0.5683140000000 1.0
C      1  0.4628070000000  0.5631450000000  0.5125330000000 1.0
C      1  0.4296750000000  0.5113050000000  0.4304250000000 1.0
C      1  0.4453430000000  0.4292490000000  0.4898540000000 1.0
C      1  0.5434060000000  0.5141020000000  0.5769600000000 1.0
C      1  0.5527930000000  0.4281220000000  0.5096690000000 1.0
C      1  0.5275380000000  0.4863650000000  0.4394230000000 1.0
C      1  0.5415690000000  0.5721690000000  0.4867960000000 1.0
C      1  0.5269780000000  0.5156320000000  0.4404510000000 1.0
C      1  0.5364340000000  0.4315280000000  0.4859350000000 1.0
C      1  0.5330240000000  0.4868630000000  0.5696510000000 1.0
C      1  0.5569080000000  0.5767170000000  0.5109950000000 1.0
C      1  0.5314920000000  0.5288810000000  0.4904800000000 1.0
C      1  0.5326440000000  0.5121670000000  0.5387060000000 1.0
C      1  0.5313840000000  0.4691370000000  0.5172950000000 1.0
C      1  0.5493290000000  0.4885030000000  0.4728860000000 1.0
C      1  0.5326710000000  0.5368680000000  0.5181940000000 1.0
C      1  0.5497650000000  0.5159680000000  0.4733050000000 1.0
C      1  0.5302360000000  0.4757730000000  0.4892950000000 1.0
C      1  0.5486690000000  0.4886140000000  0.5330790000000 1.0
C      1  0.4472130000000  0.4669280000000  0.4412920000000 1.0
C      1  0.4417240000000  0.5461320000000  0.4659580000000 1.0
C      1  0.4518760000000  0.5334460000000  0.5489390000000 1.0
C      1  0.4428270000000  0.4441420000000  0.5380230000000 1.0
C      1  0.4448150000000  0.4717670000000  0.5442690000000 1.0
C      1  0.4491770000000  0.5585080000000  0.5369920000000 1.0
C      1  0.4467280000000  0.5259920000000  0.4472280000000 1.0
C      1  0.4453760000000  0.4482080000000  0.4685980000000 1.0
C      1  0.4716590000000  0.5238550000000  0.4803650000000 1.0
C      1  0.4682020000000  0.5123600000000  0.5293670000000 1.0
C      1  0.4689950000000  0.4710250000000  0.5037340000000 1.0
C      1  0.4760890000000  0.4826400000000  0.4505430000000 1.0
C      1  0.4787580000000  0.5271220000000  0.5060190000000 1.0
C      1  0.4749000000000  0.5126960000000  0.4502430000000 1.0
C      1  0.4631040000000  0.4708380000000  0.4771070000000 1.0
C      1  0.4565010000000  0.4859830000000  0.5231400000000 1.0
C      1  0.4902790000000  0.5084990000000  0.5540250000000 1.0
C      1  0.4875110000000  0.4468470000000  0.5142130000000 1.0
C      1  0.5043650000000  0.4732070000000  0.4506150000000 1.0
C      1  0.5143830000000  0.5649150000000  0.4916450000000 1.0
C      1  0.5027930000000  0.5260420000000  0.4516480000000 1.0
C      1  0.5057760000000  0.4364580000000  0.4909850000000 1.0
C      1  0.5072230000000  0.4838650000000  0.5560530000000 1.0
C      1  0.4939490000000  0.5550350000000  0.5138300000000 1.0
C      1  0.5516380000000  0.5620460000000  0.4608840000000 1.0
C      1  0.5488190000000  0.5361810000000  0.5545450000000 1.0
C      1  0.5531970000000  0.4491190000000  0.5292300000000 1.0
C      1  0.5517570000000  0.4690580000000  0.4498850000000 1.0
C      1  0.5533250000000  0.5573680000000  0.5319610000000 1.0
C      1  0.5513490000000  0.5346740000000  0.4497720000000 1.0
C      1  0.5475540000000  0.4420780000000  0.4608910000000 1.0
C      1  0.5550410000000  0.4677600000000  0.5563300000000 1.0
C      1  0.5080130000000  0.5397370000000  0.4752760000000 1.0
C      1  0.5047600000000  0.5315980000000  0.5360200000000 1.0
C      1  0.5056810000000  0.4656730000000  0.5330900000000 1.0
C      1  0.5116570000000  0.4608160000000  0.4747460000000 1.0
END
