TITL C-245600-5259-23 0.000927644797729867 125000 -336.564139982149 0 0 60 (C2) n - 1
REM
REM in /home/bkarasulu/work/CARBON/AIRSS/Generating-Clusters/AIREBO/Higher-Symm/Only-C60
REM
REM
REM
REM
REM
REM ./C.cell (28575a23ae977d3b5fae324c64b13b57)
REM AIRSS Version 0.9.1 bugfix July 2018 build 013d7b7c2542+ Fri, 06 Jul 2018 19:26:36 +0100
REM compiler GCC version 9.2.1 20190827 (Red Hat 9.2.1-1)
REM options -cpp -mtune=generic -march=x86-64 -g -O0 -fpre-include=/usr/include/finclude/math-vector-fortran.h
REM seed 1913240362 1923384987 -278065185 1767829341 2014270630 -153902842 675029863 1030417203 -513172985 432177709 1852041454 -1065431495 47006147 1945975562 1039479002 1943059266 -1718651860 -71013326 1921037040 868599403 -657785169 -1694618372 523464235 834582856 2039656279 -1896115753 664025672 -1157789130 1716365657 1525699307 -258541124 -8208926 -1356616754
REM
CELL 1.54180   50.00000   50.00000   50.00000   90.00000   90.00000   90.00000
LATT -1
SFAC C  
C      1  0.4679230000000  0.5601680000000  0.5064800000000 1.0
C      1  0.5393420000000  0.4351350000000  0.5085080000000 1.0
C      1  0.5393120000000  0.5648790000000  0.4914600000000 1.0
C      1  0.4679400000000  0.4398200000000  0.4935470000000 1.0
C      1  0.4292640000000  0.5016590000000  0.4648620000000 1.0
C      1  0.5698830000000  0.5071650000000  0.4641940000000 1.0
C      1  0.5699150000000  0.4928600000000  0.5357480000000 1.0
C      1  0.4292940000000  0.4983150000000  0.5351970000000 1.0
C      1  0.4381670000000  0.4774320000000  0.4810330000000 1.0
C      1  0.5574890000000  0.5305060000000  0.4808580000000 1.0
C      1  0.5575160000000  0.4695150000000  0.5190940000000 1.0
C      1  0.4381750000000  0.5225460000000  0.5190180000000 1.0
C      1  0.5346300000000  0.5113900000000  0.4938200000000 1.0
C      1  0.4651350000000  0.4845420000000  0.4996180000000 1.0
C      1  0.4651300000000  0.5154460000000  0.5004110000000 1.0
C      1  0.5346390000000  0.4886220000000  0.5061510000000 1.0
C      1  0.5840820000000  0.5121230000000  0.5200170000000 1.0
C      1  0.4102580000000  0.4816720000000  0.5226200000000 1.0
C      1  0.4102330000000  0.5182950000000  0.4774540000000 1.0
C      1  0.5840700000000  0.4879080000000  0.4799140000000 1.0
C      1  0.5269090000000  0.4942690000000  0.5590130000000 1.0
C      1  0.4992920000000  0.5349900000000  0.5656030000000 1.0
C      1  0.4992500000000  0.4650100000000  0.4343980000000 1.0
C      1  0.5268580000000  0.5057400000000  0.4409650000000 1.0
C      1  0.4155820000000  0.5326160000000  0.5003900000000 1.0
C      1  0.5665060000000  0.4686130000000  0.4890860000000 1.0
C      1  0.5665040000000  0.5314110000000  0.5108590000000 1.0
C      1  0.4155940000000  0.4673540000000  0.4996800000000 1.0
C      1  0.5068520000000  0.4742200000000  0.5101000000000 1.0
C      1  0.4909680000000  0.5288650000000  0.5156640000000 1.0
C      1  0.4909660000000  0.4711310000000  0.4843440000000 1.0
C      1  0.5068350000000  0.5257820000000  0.4898950000000 1.0
C      1  0.5118690000000  0.5255310000000  0.5392460000000 1.0
C      1  0.5015430000000  0.4932000000000  0.5363950000000 1.0
C      1  0.5015100000000  0.5068000000000  0.4636040000000 1.0
C      1  0.5118460000000  0.4744730000000  0.4607440000000 1.0
C      1  0.4629710000000  0.4599750000000  0.4684470000000 1.0
C      1  0.5275780000000  0.5429850000000  0.4704420000000 1.0
C      1  0.5276180000000  0.4570250000000  0.5295350000000 1.0
C      1  0.4629820000000  0.5400110000000  0.5315830000000 1.0
C      1  0.4684520000000  0.5366050000000  0.5611960000000 1.0
C      1  0.5153660000000  0.4627320000000  0.5584500000000 1.0
C      1  0.5153040000000  0.5372730000000  0.4415380000000 1.0
C      1  0.4684150000000  0.4633840000000  0.4388300000000 1.0
C      1  0.5502210000000  0.4917580000000  0.4496550000000 1.0
C      1  0.4494800000000  0.5141040000000  0.4514110000000 1.0
C      1  0.4495250000000  0.4858780000000  0.5486310000000 1.0
C      1  0.5502600000000  0.5082600000000  0.5503030000000 1.0
C      1  0.5418880000000  0.4644250000000  0.4669310000000 1.0
C      1  0.4728620000000  0.5229150000000  0.4692170000000 1.0
C      1  0.4728960000000  0.4770760000000  0.5308050000000 1.0
C      1  0.5419030000000  0.5355900000000  0.5330340000000 1.0
C      1  0.4709470000000  0.5518800000000  0.4830680000000 1.0
C      1  0.5428560000000  0.4368690000000  0.4836800000000 1.0
C      1  0.5428460000000  0.5631470000000  0.5162850000000 1.0
C      1  0.4709800000000  0.4481100000000  0.5169560000000 1.0
C      1  0.4824390000000  0.5098010000000  0.5768730000000 1.0
C      1  0.4993090000000  0.4872260000000  0.5758560000000 1.0
C      1  0.4992420000000  0.5127740000000  0.4241450000000 1.0
C      1  0.4823790000000  0.4901920000000  0.4231420000000 1.0
END
