TITL C-246169-6872-32 -1495.30022990158 125000 -335.04503824976 0 0 60 (C1) n - 1
REM
REM in /home/bkarasulu/work/CARBON/AIRSS/Generating-Clusters/AIREBO/Higher-Symm/Only-C60
REM
REM
REM
REM
REM
REM ./C.cell (28575a23ae977d3b5fae324c64b13b57)
REM AIRSS Version 0.9.1 bugfix July 2018 build 013d7b7c2542+ Fri, 06 Jul 2018 19:26:36 +0100
REM compiler GCC version 9.2.1 20190827 (Red Hat 9.2.1-1)
REM options -cpp -mtune=generic -march=x86-64 -g -O0 -fpre-include=/usr/include/finclude/math-vector-fortran.h
REM seed -757861654 1809742760 895324028 -1193631714 1861743937 30923506 -1703380797 1430925682 -1557160929 1407123292 -2048462912 -1072295540 -1975242066 198909318 -822455251 -1613377036 -1850279597 1814001285 -2050488866 -1507219067 -427105237 1389213061 -2038578459 -993684076 -411900532 -1932445247 -1884041539 -1679935833 -1898349773 -34416723 1641032511 -1250290149 -529220300
REM
CELL 1.54180   50.00000   50.00000   50.00000   90.00000   90.00000   90.00000
LATT -1
SFAC C  
C      1  0.5435310000000  0.5270720000000  0.4608130000000 1.0
C      1  0.4908980000000  0.5693840000000  0.5184170000000 1.0
C      1  0.5245940000000  0.5095630000000  0.4377790000000 1.0
C      1  0.4757420000000  0.4509060000000  0.5383320000000 1.0
C      1  0.5562740000000  0.5740010000000  0.5179110000000 1.0
C      1  0.5696200000000  0.4931160000000  0.4959640000000 1.0
C      1  0.5144380000000  0.5533280000000  0.4751520000000 1.0
C      1  0.5033010000000  0.5789720000000  0.4938970000000 1.0
C      1  0.4404380000000  0.5067860000000  0.5061590000000 1.0
C      1  0.5604830000000  0.5167200000000  0.5086010000000 1.0
C      1  0.4591180000000  0.4934970000000  0.4328180000000 1.0
C      1  0.5183510000000  0.5425370000000  0.4432310000000 1.0
C      1  0.4436080000000  0.4674010000000  0.5029120000000 1.0
C      1  0.4837760000000  0.5464060000000  0.4824910000000 1.0
C      1  0.4919500000000  0.5228390000000  0.5675280000000 1.0
C      1  0.5511720000000  0.4797400000000  0.4794920000000 1.0
C      1  0.4988200000000  0.4948610000000  0.4370550000000 1.0
C      1  0.5250570000000  0.4385980000000  0.5076950000000 1.0
C      1  0.5055250000000  0.4241070000000  0.4946610000000 1.0
C      1  0.5470530000000  0.4940540000000  0.4559860000000 1.0
C      1  0.4882920000000  0.5334100000000  0.4349090000000 1.0
C      1  0.4394760000000  0.5242520000000  0.4840230000000 1.0
C      1  0.5101330000000  0.5088330000000  0.4947330000000 1.0
C      1  0.4433510000000  0.4558350000000  0.5418910000000 1.0
C      1  0.5035550000000  0.4629710000000  0.4740050000000 1.0
C      1  0.5116100000000  0.4497040000000  0.4463800000000 1.0
C      1  0.4435390000000  0.4740800000000  0.4747850000000 1.0
C      1  0.4967410000000  0.4642920000000  0.4282560000000 1.0
C      1  0.5238390000000  0.4572850000000  0.5588780000000 1.0
C      1  0.4781830000000  0.5117180000000  0.4172650000000 1.0
C      1  0.4647220000000  0.5570950000000  0.5159890000000 1.0
C      1  0.5272310000000  0.4663230000000  0.4936590000000 1.0
C      1  0.4678250000000  0.4657040000000  0.4346960000000 1.0
C      1  0.4838400000000  0.5241780000000  0.5043710000000 1.0
C      1  0.5347290000000  0.4895820000000  0.5381070000000 1.0
C      1  0.5119840000000  0.5568050000000  0.5342660000000 1.0
C      1  0.5346040000000  0.5325410000000  0.4929970000000 1.0
C      1  0.4804890000000  0.4420130000000  0.4837320000000 1.0
C      1  0.4370450000000  0.4857100000000  0.5308230000000 1.0
C      1  0.5627630000000  0.5179010000000  0.5366830000000 1.0
C      1  0.4710280000000  0.5339040000000  0.4570640000000 1.0
C      1  0.5431540000000  0.4795860000000  0.5695030000000 1.0
C      1  0.4828430000000  0.4928880000000  0.5590760000000 1.0
C      1  0.5355200000000  0.5561040000000  0.5172040000000 1.0
C      1  0.4563250000000  0.5075000000000  0.5463050000000 1.0
C      1  0.4870190000000  0.4811050000000  0.5274560000000 1.0
C      1  0.4963900000000  0.4623200000000  0.5611840000000 1.0
C      1  0.4641420000000  0.4490730000000  0.5084640000000 1.0
C      1  0.5668710000000  0.4977590000000  0.5602220000000 1.0
C      1  0.4692030000000  0.4972480000000  0.5100710000000 1.0
C      1  0.4599250000000  0.4543720000000  0.4599170000000 1.0
C      1  0.4637350000000  0.5305480000000  0.5311400000000 1.0
C      1  0.5350070000000  0.4407420000000  0.5341650000000 1.0
C      1  0.5153750000000  0.4858290000000  0.5161200000000 1.0
C      1  0.4587210000000  0.5033130000000  0.4653700000000 1.0
C      1  0.5130340000000  0.5361230000000  0.5539730000000 1.0
C      1  0.4515960000000  0.5497270000000  0.4882300000000 1.0
C      1  0.5351500000000  0.5201090000000  0.5508790000000 1.0
C      1  0.5560650000000  0.4631900000000  0.5360240000000 1.0
C      1  0.4911980000000  0.4944410000000  0.4702870000000 1.0
END
