TITL C-245598-4421-26 0.00466144331964911 125000 -372.060822984444 0 0 60 (C1) n - 1
REM
REM in /home/bkarasulu/work/CARBON/AIRSS/Generating-Clusters/AIREBO/Higher-Symm/Only-C60
REM
REM
REM
REM
REM
REM ./C.cell (28575a23ae977d3b5fae324c64b13b57)
REM AIRSS Version 0.9.1 bugfix July 2018 build 013d7b7c2542+ Fri, 06 Jul 2018 19:26:36 +0100
REM compiler GCC version 9.2.1 20190827 (Red Hat 9.2.1-1)
REM options -cpp -mtune=generic -march=x86-64 -g -O0 -fpre-include=/usr/include/finclude/math-vector-fortran.h
REM seed -1003764920 82597052 -1074590338 1540071056 -457257972 474113370 -1220034202 441394934 1731909510 -1759875984 653547010 1743088743 -511487001 236071194 1257856507 840353165 2117534212 -1376973933 -97617664 565024885 -1835651544 -1372510946 245820696 -1195370572 1647144847 45503235 -893468814 -2075559086 -838943930 -510290240 -54586961 603803367 1620948357
REM
CELL 1.54180   50.00000   50.00000   50.00000   90.00000   90.00000   90.00000
LATT -1
SFAC C  
C      1  0.5455630000000  0.5109710000000  0.5527580000000 1.0
C      1  0.4257400000000  0.5196520000000  0.5156230000000 1.0
C      1  0.5220520000000  0.5188750000000  0.4296940000000 1.0
C      1  0.5475970000000  0.4797990000000  0.5499250000000 1.0
C      1  0.4274090000000  0.4877600000000  0.5150550000000 1.0
C      1  0.5252970000000  0.4872310000000  0.4305110000000 1.0
C      1  0.5484110000000  0.5162770000000  0.4447590000000 1.0
C      1  0.4272840000000  0.5144620000000  0.4857300000000 1.0
C      1  0.5210210000000  0.5140980000000  0.5695910000000 1.0
C      1  0.5532440000000  0.4850770000000  0.4420130000000 1.0
C      1  0.4286640000000  0.4824660000000  0.4849580000000 1.0
C      1  0.5214450000000  0.4823880000000  0.5662420000000 1.0
C      1  0.4481130000000  0.5268850000000  0.4713150000000 1.0
C      1  0.5492160000000  0.5259030000000  0.4714810000000 1.0
C      1  0.4982110000000  0.5263270000000  0.5583510000000 1.0
C      1  0.4504070000000  0.4720200000000  0.4707710000000 1.0
C      1  0.5568180000000  0.4726340000000  0.4670430000000 1.0
C      1  0.4964630000000  0.4706100000000  0.5613570000000 1.0
C      1  0.4460310000000  0.5319720000000  0.5303380000000 1.0
C      1  0.5497440000000  0.5266260000000  0.5302940000000 1.0
C      1  0.4982510000000  0.5282390000000  0.4404370000000 1.0
C      1  0.4478440000000  0.4768660000000  0.5308860000000 1.0
C      1  0.5557620000000  0.4704990000000  0.5249840000000 1.0
C      1  0.5035760000000  0.4727480000000  0.4403390000000 1.0
C      1  0.4908780000000  0.4561390000000  0.5372970000000 1.0
C      1  0.4744920000000  0.4591980000000  0.4862970000000 1.0
C      1  0.5339440000000  0.4645750000000  0.4816310000000 1.0
C      1  0.4981590000000  0.5322260000000  0.5307150000000 1.0
C      1  0.4720320000000  0.5328960000000  0.4850930000000 1.0
C      1  0.5248230000000  0.5307800000000  0.4851030000000 1.0
C      1  0.5044400000000  0.4605480000000  0.4687660000000 1.0
C      1  0.4716030000000  0.4670690000000  0.5190330000000 1.0
C      1  0.5388980000000  0.4547290000000  0.5081950000000 1.0
C      1  0.4986740000000  0.5404120000000  0.4690760000000 1.0
C      1  0.4716230000000  0.5422580000000  0.5157490000000 1.0
C      1  0.5255440000000  0.5396430000000  0.5158390000000 1.0
C      1  0.4497210000000  0.5156860000000  0.4454880000000 1.0
C      1  0.5716390000000  0.5159750000000  0.4857720000000 1.0
C      1  0.4747850000000  0.5161540000000  0.5703110000000 1.0
C      1  0.4539550000000  0.4843440000000  0.4461350000000 1.0
C      1  0.5773630000000  0.4854290000000  0.4819100000000 1.0
C      1  0.4746730000000  0.4844030000000  0.5735250000000 1.0
C      1  0.4485110000000  0.5210420000000  0.5558680000000 1.0
C      1  0.5721550000000  0.5187490000000  0.5159250000000 1.0
C      1  0.4763050000000  0.5137350000000  0.4313320000000 1.0
C      1  0.4492950000000  0.4890710000000  0.5564700000000 1.0
C      1  0.5754760000000  0.4868790000000  0.5126180000000 1.0
C      1  0.4795880000000  0.4821450000000  0.4302480000000 1.0
C      1  0.5238200000000  0.5706740000000  0.5137680000000 1.0
C      1  0.4761690000000  0.5729220000000  0.5136290000000 1.0
C      1  0.5000630000000  0.5713520000000  0.4723780000000 1.0
C      1  0.5248730000000  0.4301870000000  0.5128570000000 1.0
C      1  0.4791290000000  0.4159330000000  0.5156160000000 1.0
C      1  0.4981930000000  0.4295570000000  0.4737890000000 1.0
C      1  0.5241660000000  0.5791990000000  0.4861890000000 1.0
C      1  0.4767290000000  0.5814120000000  0.4860550000000 1.0
C      1  0.5003780000000  0.5807350000000  0.5272570000000 1.0
C      1  0.5200050000000  0.4168210000000  0.4875880000000 1.0
C      1  0.4732110000000  0.4260450000000  0.4894670000000 1.0
C      1  0.5005260000000  0.4306950000000  0.5285550000000 1.0
END
