TITL C-246166-1561-13 -0.00224616313216185 125000 -350.631088214401 0 0 60 (C1) n - 1
REM
REM in /home/bkarasulu/work/CARBON/AIRSS/Generating-Clusters/AIREBO/Higher-Symm/Only-C60
REM
REM
REM
REM
REM
REM ./C.cell (28575a23ae977d3b5fae324c64b13b57)
REM AIRSS Version 0.9.1 bugfix July 2018 build 013d7b7c2542+ Fri, 06 Jul 2018 19:26:36 +0100
REM compiler GCC version 9.2.1 20190827 (Red Hat 9.2.1-1)
REM options -cpp -mtune=generic -march=x86-64 -g -O0 -fpre-include=/usr/include/finclude/math-vector-fortran.h
REM seed -585886773 1911919421 1488344246 1323163538 49260150 -1346510869 -484569237 -1394787084 1692247365 -1808700542 78394097 1488700507 -1917521970 -96822347 -1153364565 -942899498 1782611281 914799194 -1689128765 589654980 39949640 -200827163 739206505 662899261 972000423 144706968 1010155498 -1007372745 -151141198 1546259245 -2035423525 -265970396 -120374283
REM
CELL 1.54180   50.00000   50.00000   50.00000   90.00000   90.00000   90.00000
LATT -1
SFAC C  
C      1  0.4679310000000  0.4944850000000  0.5730850000000 1.0
C      1  0.4767220000000  0.5581220000000  0.5054120000000 1.0
C      1  0.4612090000000  0.5400670000000  0.4406330000000 1.0
C      1  0.4708180000000  0.4629200000000  0.4492460000000 1.0
C      1  0.4603940000000  0.4375200000000  0.5216750000000 1.0
C      1  0.5252720000000  0.4944970000000  0.4310560000000 1.0
C      1  0.5381730000000  0.5667320000000  0.4796910000000 1.0
C      1  0.5374590000000  0.5419060000000  0.5553610000000 1.0
C      1  0.5281180000000  0.4620270000000  0.5507610000000 1.0
C      1  0.5413510000000  0.4328600000000  0.4793510000000 1.0
C      1  0.4494600000000  0.5468130000000  0.4659020000000 1.0
C      1  0.4657770000000  0.4916530000000  0.4549590000000 1.0
C      1  0.4587020000000  0.4561640000000  0.4981430000000 1.0
C      1  0.4671340000000  0.4737300000000  0.5538750000000 1.0
C      1  0.4601190000000  0.5224470000000  0.5317280000000 1.0
C      1  0.5411150000000  0.5449880000000  0.5259660000000 1.0
C      1  0.5425600000000  0.4915760000000  0.5469660000000 1.0
C      1  0.5443120000000  0.4488590000000  0.5042870000000 1.0
C      1  0.5336590000000  0.4788250000000  0.4565890000000 1.0
C      1  0.5369940000000  0.5397090000000  0.4679170000000 1.0
C      1  0.5596190000000  0.4769650000000  0.5013570000000 1.0
C      1  0.5605680000000  0.4961480000000  0.5228730000000 1.0
C      1  0.5587710000000  0.5222170000000  0.5113400000000 1.0
C      1  0.5551970000000  0.5190590000000  0.4832320000000 1.0
C      1  0.5544920000000  0.4915540000000  0.4771080000000 1.0
C      1  0.4362220000000  0.4781810000000  0.4947600000000 1.0
C      1  0.4422810000000  0.4971280000000  0.4741560000000 1.0
C      1  0.4398590000000  0.5251210000000  0.4830820000000 1.0
C      1  0.4379450000000  0.5205400000000  0.5138650000000 1.0
C      1  0.4236890000000  0.4945410000000  0.5151450000000 1.0
C      1  0.5341880000000  0.5401170000000  0.4373220000000 1.0
C      1  0.5389400000000  0.4496940000000  0.4525660000000 1.0
C      1  0.5410520000000  0.4371890000000  0.5324040000000 1.0
C      1  0.5419600000000  0.5128420000000  0.5673340000000 1.0
C      1  0.5404290000000  0.5715280000000  0.5109590000000 1.0
C      1  0.4602900000000  0.5234060000000  0.5606940000000 1.0
C      1  0.4616810000000  0.4461070000000  0.5526660000000 1.0
C      1  0.4619830000000  0.4421800000000  0.4714740000000 1.0
C      1  0.4640900000000  0.5096940000000  0.4315410000000 1.0
C      1  0.4618370000000  0.5685300000000  0.4796510000000 1.0
C      1  0.4852570000000  0.4278630000000  0.5402820000000 1.0
C      1  0.4889060000000  0.5199430000000  0.5755630000000 1.0
C      1  0.4893290000000  0.5832160000000  0.4916160000000 1.0
C      1  0.4891070000000  0.5278910000000  0.4258170000000 1.0
C      1  0.4894770000000  0.4373510000000  0.4563910000000 1.0
C      1  0.5153280000000  0.4296670000000  0.4598420000000 1.0
C      1  0.5161640000000  0.5209930000000  0.4270420000000 1.0
C      1  0.5166800000000  0.5857060000000  0.4931760000000 1.0
C      1  0.5147520000000  0.5282760000000  0.5745680000000 1.0
C      1  0.5112460000000  0.4339430000000  0.5435990000000 1.0
C      1  0.4833910000000  0.4788310000000  0.4964240000000 1.0
C      1  0.4739640000000  0.4823830000000  0.5284530000000 1.0
C      1  0.4912810000000  0.5094210000000  0.5276070000000 1.0
C      1  0.4876180000000  0.5312110000000  0.5041730000000 1.0
C      1  0.4823190000000  0.5077980000000  0.4798990000000 1.0
C      1  0.5207460000000  0.4698690000000  0.5070740000000 1.0
C      1  0.5134100000000  0.4835510000000  0.4811060000000 1.0
C      1  0.5154580000000  0.5167260000000  0.4798170000000 1.0
C      1  0.5197340000000  0.5302760000000  0.5092740000000 1.0
C      1  0.5134590000000  0.4864420000000  0.5321450000000 1.0
END
