TITL C-246169-6872-13 -284855.741843127 125000 -336.910251833807 0 0 60 (C1) n - 1
REM
REM in /home/bkarasulu/work/CARBON/AIRSS/Generating-Clusters/AIREBO/Higher-Symm/Only-C60
REM
REM
REM
REM
REM
REM ./C.cell (28575a23ae977d3b5fae324c64b13b57)
REM AIRSS Version 0.9.1 bugfix July 2018 build 013d7b7c2542+ Fri, 06 Jul 2018 19:26:36 +0100
REM compiler GCC version 9.2.1 20190827 (Red Hat 9.2.1-1)
REM options -cpp -mtune=generic -march=x86-64 -g -O0 -fpre-include=/usr/include/finclude/math-vector-fortran.h
REM seed -1234378808 -351074434 1798691384 472215039 331088893 1384924173 -892983641 -2123255188 858181776 -286250942 -124827260 1209602393 -1540931766 828970711 2043680204 1287758822 373132619 -315966921 81024216 1953480976 -1218395632 1074904749 905428290 841739410 397017945 1201253186 1979721448 -720292429 -407133966 -1670688027 1511307720 -36211168 875500498
REM
CELL 1.54180   50.00000   50.00000   50.00000   90.00000   90.00000   90.00000
LATT -1
SFAC C  
C      1  0.5706980000000  0.5030740000000  0.5493020000000 1.0
C      1  0.5807990000000  0.4911370000000  0.4533290000000 1.0
C      1  0.4173640000000  0.4958180000000  0.4662690000000 1.0
C      1  0.4260530000000  0.4958020000000  0.5442060000000 1.0
C      1  0.4632940000000  0.4368090000000  0.5048020000000 1.0
C      1  0.4622500000000  0.5581970000000  0.4908320000000 1.0
C      1  0.5392280000000  0.4371300000000  0.4902630000000 1.0
C      1  0.5393270000000  0.5605310000000  0.5031900000000 1.0
C      1  0.4703610000000  0.5564190000000  0.4606130000000 1.0
C      1  0.4741500000000  0.4410230000000  0.5310720000000 1.0
C      1  0.5279540000000  0.5602190000000  0.5296830000000 1.0
C      1  0.5257420000000  0.4417570000000  0.4648790000000 1.0
C      1  0.4497950000000  0.5342690000000  0.4488700000000 1.0
C      1  0.4642940000000  0.4651450000000  0.5427660000000 1.0
C      1  0.5372090000000  0.5373060000000  0.5440610000000 1.0
C      1  0.5328430000000  0.4671650000000  0.4526770000000 1.0
C      1  0.5327910000000  0.5131190000000  0.4715030000000 1.0
C      1  0.5278960000000  0.4933360000000  0.5252810000000 1.0
C      1  0.4701480000000  0.5197210000000  0.5273930000000 1.0
C      1  0.4807090000000  0.4946580000000  0.4842950000000 1.0
C      1  0.4849890000000  0.5159830000000  0.5566010000000 1.0
C      1  0.4845420000000  0.4959920000000  0.4526530000000 1.0
C      1  0.5148240000000  0.5199480000000  0.4434240000000 1.0
C      1  0.5129280000000  0.4879050000000  0.5553450000000 1.0
C      1  0.5014040000000  0.4331290000000  0.5328080000000 1.0
C      1  0.5009180000000  0.5544930000000  0.4711710000000 1.0
C      1  0.4986190000000  0.4328100000000  0.4650630000000 1.0
C      1  0.4996670000000  0.5637350000000  0.5269520000000 1.0
C      1  0.5212300000000  0.4396820000000  0.5145230000000 1.0
C      1  0.5189140000000  0.5461900000000  0.4886860000000 1.0
C      1  0.4830120000000  0.4447150000000  0.4854520000000 1.0
C      1  0.4838040000000  0.5511130000000  0.5071640000000 1.0
C      1  0.5627640000000  0.5159590000000  0.5017330000000 1.0
C      1  0.5525920000000  0.4859250000000  0.4947410000000 1.0
C      1  0.4329860000000  0.5134600000000  0.4983790000000 1.0
C      1  0.4367660000000  0.4796810000000  0.5001450000000 1.0
C      1  0.5459700000000  0.5326440000000  0.4466400000000 1.0
C      1  0.5370110000000  0.4687640000000  0.5691450000000 1.0
C      1  0.4572320000000  0.5355240000000  0.5546730000000 1.0
C      1  0.4592650000000  0.4789240000000  0.4405430000000 1.0
C      1  0.5567520000000  0.4780700000000  0.4635910000000 1.0
C      1  0.5616190000000  0.5249520000000  0.5336720000000 1.0
C      1  0.4398500000000  0.4751770000000  0.5320590000000 1.0
C      1  0.4310020000000  0.5236260000000  0.4659930000000 1.0
C      1  0.4942120000000  0.4698350000000  0.4929180000000 1.0
C      1  0.4879010000000  0.5187290000000  0.5025920000000 1.0
C      1  0.5230910000000  0.4712570000000  0.5032990000000 1.0
C      1  0.5194620000000  0.5139880000000  0.4996200000000 1.0
C      1  0.4813390000000  0.4824390000000  0.5557710000000 1.0
C      1  0.4830990000000  0.5275330000000  0.4476270000000 1.0
C      1  0.5143580000000  0.4859210000000  0.4440160000000 1.0
C      1  0.5177540000000  0.5215050000000  0.5560460000000 1.0
C      1  0.5621310000000  0.4537070000000  0.4946120000000 1.0
C      1  0.5648670000000  0.5487160000000  0.5001560000000 1.0
C      1  0.4372470000000  0.4476670000000  0.5012910000000 1.0
C      1  0.4383780000000  0.5468040000000  0.4978120000000 1.0
C      1  0.4365430000000  0.5225050000000  0.5309770000000 1.0
C      1  0.4502490000000  0.4891150000000  0.4717440000000 1.0
C      1  0.5664030000000  0.5165420000000  0.4679280000000 1.0
C      1  0.5513980000000  0.4827010000000  0.5471450000000 1.0
END
