TITL C-245595-5410-3 -0.0001106245201332 125000 -306.555403151015 0 0 60 (C1) n - 1
REM
REM in /home/bkarasulu/work/CARBON/AIRSS/Generating-Clusters/AIREBO/Higher-Symm/Only-C60
REM
REM
REM
REM
REM
REM ./C.cell (28575a23ae977d3b5fae324c64b13b57)
REM AIRSS Version 0.9.1 bugfix July 2018 build 013d7b7c2542+ Fri, 06 Jul 2018 19:26:36 +0100
REM compiler GCC version 9.2.1 20190827 (Red Hat 9.2.1-1)
REM options -cpp -mtune=generic -march=x86-64 -g -O0 -fpre-include=/usr/include/finclude/math-vector-fortran.h
REM seed -1101476753 1624336941 -674662602 1612083089 -1643986866 -379579230 -201916872 532180593 -1636713271 597982663 -1624107377 -547663926 1967207940 -220294853 -228699794 -449249228 -1266245109 315796614 506969241 1329294030 -1841879468 977249951 -43354682 81648553 -278306061 411993748 -114983144 924146849 1767532064 -1047530919 -384878708 1786493012 860865233
REM
CELL 1.54180   50.00000   50.00000   50.00000   90.00000   90.00000   90.00000
LATT -1
SFAC C  
C      1  0.4627760000000  0.4618700000000  0.5541440000000 1.0
C      1  0.4391820000000  0.5386130000000  0.4943940000000 1.0
C      1  0.4681890000000  0.4611690000000  0.4408580000000 1.0
C      1  0.5335320000000  0.5448780000000  0.4450830000000 1.0
C      1  0.5676460000000  0.4594500000000  0.5140570000000 1.0
C      1  0.5253410000000  0.5384150000000  0.5578040000000 1.0
C      1  0.5634160000000  0.4692540000000  0.4870840000000 1.0
C      1  0.5520250000000  0.5290730000000  0.5387150000000 1.0
C      1  0.4930800000000  0.4707940000000  0.5671700000000 1.0
C      1  0.4414220000000  0.5305720000000  0.5275050000000 1.0
C      1  0.4453000000000  0.4705980000000  0.4632070000000 1.0
C      1  0.5040970000000  0.5306120000000  0.4351820000000 1.0
C      1  0.4216770000000  0.5077880000000  0.5128290000000 1.0
C      1  0.4455200000000  0.4954060000000  0.4400210000000 1.0
C      1  0.5236200000000  0.5103620000000  0.4178700000000 1.0
C      1  0.5765450000000  0.4942840000000  0.4854600000000 1.0
C      1  0.5495310000000  0.5073000000000  0.5643620000000 1.0
C      1  0.4705280000000  0.4941850000000  0.5762410000000 1.0
C      1  0.5069440000000  0.5485140000000  0.5167310000000 1.0
C      1  0.4926880000000  0.4484600000000  0.5163910000000 1.0
C      1  0.4818250000000  0.5506840000000  0.4960590000000 1.0
C      1  0.4940100000000  0.4502190000000  0.4841070000000 1.0
C      1  0.5119450000000  0.5446960000000  0.4840330000000 1.0
C      1  0.5224820000000  0.4475610000000  0.5030560000000 1.0
C      1  0.5510080000000  0.5232640000000  0.4601620000000 1.0
C      1  0.5696090000000  0.4853790000000  0.5314560000000 1.0
C      1  0.5103540000000  0.5162390000000  0.5725590000000 1.0
C      1  0.4426330000000  0.4843720000000  0.5482420000000 1.0
C      1  0.4329500000000  0.5155890000000  0.4749990000000 1.0
C      1  0.4794270000000  0.4837400000000  0.4224050000000 1.0
C      1  0.4606640000000  0.5131610000000  0.5497940000000 1.0
C      1  0.4393970000000  0.4871210000000  0.4924420000000 1.0
C      1  0.4747120000000  0.5128570000000  0.4393290000000 1.0
C      1  0.5277170000000  0.4870650000000  0.4327150000000 1.0
C      1  0.5624010000000  0.5116380000000  0.5110590000000 1.0
C      1  0.5226130000000  0.4868430000000  0.5606580000000 1.0
C      1  0.4694530000000  0.4999760000000  0.4969260000000 1.0
C      1  0.4901580000000  0.4968630000000  0.4632860000000 1.0
C      1  0.5354570000000  0.4958170000000  0.4611290000000 1.0
C      1  0.5330250000000  0.4978510000000  0.5009000000000 1.0
C      1  0.5180870000000  0.4949750000000  0.5287970000000 1.0
C      1  0.4784250000000  0.4970020000000  0.5266410000000 1.0
C      1  0.4753620000000  0.4743870000000  0.4778450000000 1.0
C      1  0.5116930000000  0.5195660000000  0.4664400000000 1.0
C      1  0.5298650000000  0.4720220000000  0.4822300000000 1.0
C      1  0.5256920000000  0.5250080000000  0.5192730000000 1.0
C      1  0.4954780000000  0.4735950000000  0.5344920000000 1.0
C      1  0.4720750000000  0.5277660000000  0.5143790000000 1.0
C      1  0.4592640000000  0.5556090000000  0.4769330000000 1.0
C      1  0.4942850000000  0.4489650000000  0.4529400000000 1.0
C      1  0.5394050000000  0.5574000000000  0.4760460000000 1.0
C      1  0.5433290000000  0.4446100000000  0.5244360000000 1.0
C      1  0.5020110000000  0.5547820000000  0.5455650000000 1.0
C      1  0.4644500000000  0.4463800000000  0.5281940000000 1.0
C      1  0.4425960000000  0.4678360000000  0.5203050000000 1.0
C      1  0.4536310000000  0.5321010000000  0.4578220000000 1.0
C      1  0.5059440000000  0.4696150000000  0.4320270000000 1.0
C      1  0.5607490000000  0.5358350000000  0.4872070000000 1.0
C      1  0.5467470000000  0.4671530000000  0.5470090000000 1.0
C      1  0.4860150000000  0.5328620000000  0.5609960000000 1.0
END
