TITL C-246164-9105-36 783403.95455009 125000 -308.369167720736 0 0 60 (C1) n - 1
REM
REM in /home/bkarasulu/work/CARBON/AIRSS/Generating-Clusters/AIREBO/Higher-Symm/Only-C60
REM
REM
REM
REM
REM
REM ./C.cell (28575a23ae977d3b5fae324c64b13b57)
REM AIRSS Version 0.9.1 bugfix July 2018 build 013d7b7c2542+ Fri, 06 Jul 2018 19:26:36 +0100
REM compiler GCC version 9.2.1 20190827 (Red Hat 9.2.1-1)
REM options -cpp -mtune=generic -march=x86-64 -g -O0 -fpre-include=/usr/include/finclude/math-vector-fortran.h
REM seed -1319607779 538655073 1295881996 1391545509 -2080814189 594618613 -797546172 -621196867 -1116121654 594768125 -1826814958 664789725 -711319136 1267205296 1678397729 1512983155 -2130537921 -2000762431 545351787 1759387860 1147700428 1878209835 -409863285 287273573 -756324398 862316047 -990319966 -806628983 1233438220 -329461071 -841386028 -805132204 1126399093
REM
CELL 1.54180   50.00000   50.00000   50.00000   90.00000   90.00000   90.00000
LATT -1
SFAC C  
C      1  0.4799980000000  0.4901850000000  0.4703220000000 1.0
C      1  0.4759190000000  0.4889160000000  0.5199540000000 1.0
C      1  0.4642260000000  0.5342210000000  0.5048760000000 1.0
C      1  0.4511600000000  0.5273150000000  0.5485460000000 1.0
C      1  0.4575790000000  0.5246100000000  0.4460400000000 1.0
C      1  0.4577510000000  0.4410750000000  0.5101770000000 1.0
C      1  0.4466250000000  0.4870670000000  0.5375940000000 1.0
C      1  0.4254950000000  0.5602300000000  0.5131320000000 1.0
C      1  0.4307220000000  0.4856850000000  0.4555780000000 1.0
C      1  0.4930830000000  0.4605270000000  0.5275440000000 1.0
C      1  0.4901820000000  0.5406420000000  0.5236200000000 1.0
C      1  0.5045990000000  0.5004470000000  0.4522490000000 1.0
C      1  0.4455400000000  0.4623370000000  0.4530390000000 1.0
C      1  0.4457520000000  0.4786820000000  0.5643060000000 1.0
C      1  0.4367530000000  0.5685290000000  0.4884700000000 1.0
C      1  0.4717670000000  0.4636630000000  0.4632470000000 1.0
C      1  0.4719070000000  0.4711990000000  0.5720760000000 1.0
C      1  0.4612510000000  0.5548310000000  0.4829800000000 1.0
C      1  0.4892240000000  0.4929590000000  0.5682510000000 1.0
C      1  0.4839220000000  0.5544350000000  0.4674430000000 1.0
C      1  0.4904770000000  0.4445020000000  0.4713410000000 1.0
C      1  0.5380190000000  0.4609770000000  0.4866300000000 1.0
C      1  0.5335360000000  0.5041110000000  0.5260870000000 1.0
C      1  0.5281620000000  0.5147950000000  0.4682770000000 1.0
C      1  0.5223210000000  0.4668890000000  0.5438050000000 1.0
C      1  0.5153980000000  0.5487300000000  0.5067760000000 1.0
C      1  0.5278920000000  0.4710500000000  0.4488360000000 1.0
C      1  0.4813390000000  0.5137830000000  0.5425420000000 1.0
C      1  0.4884470000000  0.5299160000000  0.4469060000000 1.0
C      1  0.4880810000000  0.4377060000000  0.5036310000000 1.0
C      1  0.5163020000000  0.4462270000000  0.4563970000000 1.0
C      1  0.5171590000000  0.4863200000000  0.5645690000000 1.0
C      1  0.5092570000000  0.5596970000000  0.4813570000000 1.0
C      1  0.4987490000000  0.5007460000000  0.4218220000000 1.0
C      1  0.4824140000000  0.4493570000000  0.5565990000000 1.0
C      1  0.4848100000000  0.5648440000000  0.5425910000000 1.0
C      1  0.5228700000000  0.5461100000000  0.4591500000000 1.0
C      1  0.5288630000000  0.4317570000000  0.4795190000000 1.0
C      1  0.5282400000000  0.5131440000000  0.5578520000000 1.0
C      1  0.4510110000000  0.4662460000000  0.5151900000000 1.0
C      1  0.4419180000000  0.5406320000000  0.5261800000000 1.0
C      1  0.4451110000000  0.5086470000000  0.4638670000000 1.0
C      1  0.5499000000000  0.4689870000000  0.5355760000000 1.0
C      1  0.5427800000000  0.5411640000000  0.5092610000000 1.0
C      1  0.5557370000000  0.4782850000000  0.4552610000000 1.0
C      1  0.5061580000000  0.5304350000000  0.5587770000000 1.0
C      1  0.5119880000000  0.5494700000000  0.4320910000000 1.0
C      1  0.5120350000000  0.4190380000000  0.4963010000000 1.0
C      1  0.5556400000000  0.5286910000000  0.5340060000000 1.0
C      1  0.5602310000000  0.5079510000000  0.4592850000000 1.0
C      1  0.5597610000000  0.4600430000000  0.5108310000000 1.0
C      1  0.5617720000000  0.4968660000000  0.5440390000000 1.0
C      1  0.5534950000000  0.5309880000000  0.4841610000000 1.0
C      1  0.5700750000000  0.4621480000000  0.4783970000000 1.0
C      1  0.4303860000000  0.4981770000000  0.5030550000000 1.0
C      1  0.4601880000000  0.5043730000000  0.4940500000000 1.0
C      1  0.5040800000000  0.4943000000000  0.5016640000000 1.0
C      1  0.5962450000000  0.5031930000000  0.5014700000000 1.0
C      1  0.5371810000000  0.4942160000000  0.4938330000000 1.0
C      1  0.5706390000000  0.4988970000000  0.4980690000000 1.0
END
