TITL C-246163-8212-8 0.000296856259545191 125000 -343.778691431469 0 0 60 (C2) n - 1
REM
REM in /home/bkarasulu/work/CARBON/AIRSS/Generating-Clusters/AIREBO/Higher-Symm/Only-C60
REM
REM
REM
REM
REM
REM ./C.cell (28575a23ae977d3b5fae324c64b13b57)
REM AIRSS Version 0.9.1 bugfix July 2018 build 013d7b7c2542+ Fri, 06 Jul 2018 19:26:36 +0100
REM compiler GCC version 9.2.1 20190827 (Red Hat 9.2.1-1)
REM options -cpp -mtune=generic -march=x86-64 -g -O0 -fpre-include=/usr/include/finclude/math-vector-fortran.h
REM seed 1424874898 -2010656053 933506943 52064378 -1372169487 -1255000799 -1659027587 -705130228 2086405608 -1531969009 -283381082 1126159718 1852788420 1707101973 793542479 -1932814590 1349220613 -1098301309 681467725 -291110491 1695895156 1656090680 64710780 -1354316285 -1156373820 1645987280 899162992 -1819009423 -81244483 1935480898 -86627152 -1251082310 1580208610
REM
CELL 1.54180   50.00000   50.00000   50.00000   90.00000   90.00000   90.00000
LATT -1
SFAC C  
C      1  0.4517170000000  0.5438960000000  0.4870080000000 1.0
C      1  0.4389900000000  0.4837420000000  0.4788600000000 1.0
C      1  0.4841980000000  0.4404230000000  0.4890190000000 1.0
C      1  0.5482830000000  0.4561040000000  0.4870080000000 1.0
C      1  0.5610100000000  0.5162580000000  0.4788600000000 1.0
C      1  0.5158020000000  0.5595760000000  0.4890190000000 1.0
C      1  0.4538260000000  0.4556030000000  0.4908690000000 1.0
C      1  0.4361560000000  0.5159620000000  0.4793810000000 1.0
C      1  0.4819850000000  0.5575450000000  0.4820200000000 1.0
C      1  0.5461740000000  0.5443970000000  0.4908690000000 1.0
C      1  0.5638440000000  0.4840380000000  0.4793810000000 1.0
C      1  0.5180150000000  0.4424550000000  0.4820210000000 1.0
C      1  0.5559630000000  0.4843240000000  0.5276080000000 1.0
C      1  0.5388710000000  0.5343720000000  0.5387070000000 1.0
C      1  0.4863330000000  0.5510040000000  0.5320680000000 1.0
C      1  0.4440370000000  0.5156770000000  0.5276070000000 1.0
C      1  0.4611290000000  0.4656290000000  0.5387070000000 1.0
C      1  0.5136670000000  0.4489960000000  0.5320680000000 1.0
C      1  0.5555690000000  0.5117360000000  0.5283690000000 1.0
C      1  0.5380420000000  0.4613970000000  0.5345630000000 1.0
C      1  0.4848390000000  0.4522090000000  0.5390290000000 1.0
C      1  0.4444300000000  0.4882640000000  0.5283690000000 1.0
C      1  0.4619580000000  0.5386030000000  0.5345620000000 1.0
C      1  0.5151610000000  0.5477920000000  0.5390290000000 1.0
C      1  0.4391970000000  0.5836050000000  0.5182370000000 1.0
C      1  0.3951130000000  0.4874660000000  0.5096960000000 1.0
C      1  0.4600010000000  0.4078480000000  0.5243300000000 1.0
C      1  0.5608030000000  0.4163950000000  0.5182380000000 1.0
C      1  0.6048870000000  0.5125340000000  0.5096960000000 1.0
C      1  0.5399990000000  0.5921520000000  0.5243290000000 1.0
C      1  0.4376590000000  0.4199400000000  0.5251500000000 1.0
C      1  0.3943830000000  0.5128860000000  0.5102310000000 1.0
C      1  0.4619940000000  0.5942920000000  0.5147380000000 1.0
C      1  0.5623400000000  0.5800600000000  0.5251490000000 1.0
C      1  0.6056170000000  0.4871140000000  0.5102320000000 1.0
C      1  0.5380060000000  0.4057080000000  0.5147390000000 1.0
C      1  0.5786290000000  0.4735310000000  0.5061320000000 1.0
C      1  0.5608620000000  0.5501760000000  0.5194440000000 1.0
C      1  0.4849040000000  0.5747650000000  0.5091150000000 1.0
C      1  0.4213710000000  0.5264690000000  0.5061320000000 1.0
C      1  0.4391380000000  0.4498240000000  0.5194450000000 1.0
C      1  0.5150960000000  0.4252350000000  0.5091160000000 1.0
C      1  0.5770190000000  0.5246460000000  0.5064560000000 1.0
C      1  0.5611490000000  0.4467060000000  0.5155440000000 1.0
C      1  0.4841560000000  0.4256440000000  0.5190570000000 1.0
C      1  0.4229810000000  0.4753540000000  0.5064560000000 1.0
C      1  0.4388510000000  0.5532950000000  0.5155440000000 1.0
C      1  0.5158430000000  0.5743560000000  0.5190560000000 1.0
C      1  0.4617040000000  0.5353490000000  0.4558510000000 1.0
C      1  0.4501530000000  0.4801560000000  0.4453460000000 1.0
C      1  0.4882670000000  0.4435420000000  0.4555020000000 1.0
C      1  0.5382960000000  0.4646500000000  0.4558510000000 1.0
C      1  0.5498470000000  0.5198440000000  0.4453460000000 1.0
C      1  0.5117340000000  0.5564570000000  0.4555020000000 1.0
C      1  0.4639330000000  0.4589020000000  0.4599710000000 1.0
C      1  0.4486550000000  0.5089860000000  0.4494610000000 1.0
C      1  0.4835550000000  0.5537520000000  0.4482370000000 1.0
C      1  0.5360670000000  0.5410970000000  0.4599700000000 1.0
C      1  0.5513450000000  0.4910130000000  0.4494620000000 1.0
C      1  0.5164450000000  0.4462480000000  0.4482380000000 1.0
END
