TITL C-246165-5856-24 750111.639186899 125000 -338.651240523674 0 0 60 (C1) n - 1
REM
REM in /home/bkarasulu/work/CARBON/AIRSS/Generating-Clusters/AIREBO/Higher-Symm/Only-C60
REM
REM
REM
REM
REM
REM ./C.cell (28575a23ae977d3b5fae324c64b13b57)
REM AIRSS Version 0.9.1 bugfix July 2018 build 013d7b7c2542+ Fri, 06 Jul 2018 19:26:36 +0100
REM compiler GCC version 9.2.1 20190827 (Red Hat 9.2.1-1)
REM options -cpp -mtune=generic -march=x86-64 -g -O0 -fpre-include=/usr/include/finclude/math-vector-fortran.h
REM seed 1544831178 268987313 1885188638 857579042 -1965507116 -281203336 -1124765116 -2112396400 22948661 -1840775143 -2118584611 310304357 -1803755428 -917694156 -864862476 1044745459 -72504147 -219349156 -1180874672 839168655 755320248 1448284716 866435456 -496465620 -291573980 -1097000488 1474927879 1596120518 2589772 -539664656 -2142683171 1672720932 -972574385
REM
CELL 1.54180   50.00000   50.00000   50.00000   90.00000   90.00000   90.00000
LATT -1
SFAC C  
C      1  0.4386280000000  0.4733160000000  0.5232910000000 1.0
C      1  0.5212430000000  0.4369820000000  0.4699240000000 1.0
C      1  0.4711760000000  0.5215100000000  0.4414030000000 1.0
C      1  0.4364290000000  0.5281300000000  0.4788790000000 1.0
C      1  0.5624500000000  0.5267360000000  0.5234460000000 1.0
C      1  0.5671390000000  0.4691100000000  0.4815040000000 1.0
C      1  0.5175010000000  0.5680130000000  0.5299550000000 1.0
C      1  0.4825120000000  0.5677750000000  0.4684500000000 1.0
C      1  0.4826660000000  0.4341430000000  0.5281830000000 1.0
C      1  0.4768250000000  0.4799760000000  0.5595830000000 1.0
C      1  0.5255780000000  0.4785160000000  0.4408210000000 1.0
C      1  0.5236100000000  0.5214890000000  0.5613750000000 1.0
C      1  0.4283590000000  0.4858160000000  0.4989490000000 1.0
C      1  0.4968780000000  0.4297880000000  0.4844630000000 1.0
C      1  0.4839960000000  0.4973490000000  0.4327090000000 1.0
C      1  0.4277780000000  0.5144030000000  0.5035530000000 1.0
C      1  0.5705850000000  0.5122920000000  0.4987980000000 1.0
C      1  0.5754440000000  0.4843630000000  0.5060300000000 1.0
C      1  0.4948750000000  0.5757950000000  0.5114800000000 1.0
C      1  0.5077740000000  0.5736830000000  0.4840560000000 1.0
C      1  0.5060420000000  0.4263260000000  0.5118700000000 1.0
C      1  0.4860580000000  0.5083700000000  0.5646850000000 1.0
C      1  0.5119080000000  0.5028090000000  0.4332020000000 1.0
C      1  0.5142870000000  0.4927360000000  0.5643730000000 1.0
C      1  0.5425890000000  0.4348210000000  0.4532610000000 1.0
C      1  0.4546610000000  0.5423350000000  0.4362780000000 1.0
C      1  0.4383110000000  0.4545920000000  0.5427990000000 1.0
C      1  0.5385510000000  0.5675570000000  0.5471340000000 1.0
C      1  0.4598170000000  0.5685160000000  0.4534620000000 1.0
C      1  0.4625220000000  0.4337230000000  0.5462380000000 1.0
C      1  0.4601800000000  0.4592250000000  0.5651850000000 1.0
C      1  0.5456420000000  0.4609770000000  0.4360670000000 1.0
C      1  0.5411290000000  0.5417970000000  0.5657770000000 1.0
C      1  0.4356340000000  0.5480700000000  0.4606040000000 1.0
C      1  0.5623160000000  0.5460370000000  0.5424680000000 1.0
C      1  0.5673480000000  0.4543450000000  0.4588040000000 1.0
C      1  0.4732190000000  0.4717800000000  0.4507970000000 1.0
C      1  0.4478760000000  0.4751710000000  0.4732130000000 1.0
C      1  0.4735070000000  0.4535410000000  0.4794900000000 1.0
C      1  0.4801320000000  0.5275420000000  0.5409920000000 1.0
C      1  0.5187080000000  0.5235170000000  0.4561530000000 1.0
C      1  0.5205720000000  0.4730750000000  0.5410090000000 1.0
C      1  0.4496750000000  0.5271270000000  0.5258840000000 1.0
C      1  0.5450240000000  0.5179000000000  0.4770880000000 1.0
C      1  0.5517910000000  0.4716830000000  0.5269050000000 1.0
C      1  0.4730900000000  0.5504210000000  0.5176530000000 1.0
C      1  0.5254640000000  0.5449480000000  0.4815880000000 1.0
C      1  0.5279250000000  0.4492910000000  0.5178860000000 1.0
C      1  0.5394080000000  0.4874660000000  0.4898900000000 1.0
C      1  0.4864220000000  0.5405740000000  0.4885810000000 1.0
C      1  0.4913220000000  0.4859550000000  0.5294010000000 1.0
C      1  0.5388500000000  0.5023420000000  0.5206110000000 1.0
C      1  0.4602870000000  0.5038430000000  0.4832420000000 1.0
C      1  0.4619820000000  0.4976210000000  0.5167120000000 1.0
C      1  0.4877190000000  0.4613110000000  0.5077540000000 1.0
C      1  0.5163530000000  0.4642790000000  0.4896330000000 1.0
C      1  0.5121800000000  0.5401280000000  0.5111710000000 1.0
C      1  0.4890450000000  0.5130890000000  0.4691060000000 1.0
C      1  0.5098210000000  0.5144580000000  0.5310910000000 1.0
C      1  0.5011830000000  0.4815180000000  0.4650910000000 1.0
END
