TITL C-246169-6872-14 -0.000323621910266318 125000 -342.223546404525 0 0 60 (C1) n - 1
REM
REM in /home/bkarasulu/work/CARBON/AIRSS/Generating-Clusters/AIREBO/Higher-Symm/Only-C60
REM
REM
REM
REM
REM
REM ./C.cell (28575a23ae977d3b5fae324c64b13b57)
REM AIRSS Version 0.9.1 bugfix July 2018 build 013d7b7c2542+ Fri, 06 Jul 2018 19:26:36 +0100
REM compiler GCC version 9.2.1 20190827 (Red Hat 9.2.1-1)
REM options -cpp -mtune=generic -march=x86-64 -g -O0 -fpre-include=/usr/include/finclude/math-vector-fortran.h
REM seed 712778390 833209570 1154778871 -2044100509 -20281445 -2140558111 -1270551769 -91806813 -52937810 2058943073 416965981 -1406736949 360369115 1388667681 -2040066273 -665517097 276036849 -1133945690 -1222641267 1651680219 -771127204 920781849 757484442 -881626772 -1211232333 -1968299763 -1381516678 -99724853 1461874682 1226404379 1514031923 446541109 -947971079
REM
CELL 1.54180   50.00000   50.00000   50.00000   90.00000   90.00000   90.00000
LATT -1
SFAC C  
C      1  0.4704160000000  0.5172390000000  0.5427330000000 1.0
C      1  0.5170960000000  0.5430540000000  0.4707820000000 1.0
C      1  0.5432340000000  0.4708210000000  0.5172080000000 1.0
C      1  0.4718930000000  0.4832240000000  0.4577010000000 1.0
C      1  0.5306670000000  0.5163380000000  0.4583420000000 1.0
C      1  0.5307040000000  0.4842130000000  0.5452050000000 1.0
C      1  0.5164750000000  0.4584200000000  0.5308030000000 1.0
C      1  0.4839260000000  0.5452830000000  0.5305690000000 1.0
C      1  0.4847000000000  0.4554360000000  0.4714140000000 1.0
C      1  0.5450770000000  0.5306270000000  0.4841510000000 1.0
C      1  0.4569970000000  0.4686320000000  0.4835590000000 1.0
C      1  0.4578030000000  0.5312960000000  0.5163180000000 1.0
C      1  0.5310600000000  0.5170210000000  0.5436880000000 1.0
C      1  0.4837890000000  0.5449250000000  0.4711490000000 1.0
C      1  0.4584500000000  0.4711620000000  0.5161330000000 1.0
C      1  0.5304990000000  0.4838440000000  0.4564910000000 1.0
C      1  0.4703690000000  0.5164800000000  0.4597420000000 1.0
C      1  0.4707910000000  0.4838720000000  0.5442250000000 1.0
C      1  0.4840430000000  0.4565250000000  0.5301950000000 1.0
C      1  0.5167800000000  0.5436250000000  0.5311370000000 1.0
C      1  0.5175430000000  0.4576510000000  0.4710100000000 1.0
C      1  0.4557140000000  0.5326330000000  0.4842650000000 1.0
C      1  0.5450090000000  0.4709200000000  0.4838670000000 1.0
C      1  0.5435300000000  0.5312010000000  0.5169700000000 1.0
C      1  0.5772880000000  0.5252530000000  0.4815810000000 1.0
C      1  0.5248060000000  0.4816000000000  0.5773500000000 1.0
C      1  0.4815860000000  0.5775450000000  0.5249250000000 1.0
C      1  0.5732480000000  0.4772890000000  0.5112970000000 1.0
C      1  0.4272770000000  0.5263890000000  0.5114280000000 1.0
C      1  0.4246170000000  0.4735050000000  0.4791180000000 1.0
C      1  0.5239650000000  0.5112250000000  0.4282630000000 1.0
C      1  0.4763860000000  0.4811570000000  0.4254510000000 1.0
C      1  0.4767630000000  0.5111590000000  0.5726990000000 1.0
C      1  0.4827650000000  0.4232210000000  0.4767130000000 1.0
C      1  0.5114200000000  0.5730840000000  0.4770820000000 1.0
C      1  0.5115320000000  0.4281170000000  0.5250420000000 1.0
C      1  0.4218970000000  0.5334100000000  0.4806860000000 1.0
C      1  0.4762500000000  0.4814990000000  0.5764100000000 1.0
C      1  0.5112850000000  0.5736640000000  0.5245870000000 1.0
C      1  0.4285240000000  0.4779180000000  0.5098420000000 1.0
C      1  0.5736280000000  0.5247880000000  0.5113510000000 1.0
C      1  0.5770750000000  0.4767380000000  0.4816140000000 1.0
C      1  0.4765750000000  0.5108910000000  0.4294010000000 1.0
C      1  0.5246630000000  0.4814660000000  0.4243110000000 1.0
C      1  0.5242810000000  0.5113550000000  0.5736870000000 1.0
C      1  0.5124530000000  0.4275110000000  0.4777170000000 1.0
C      1  0.4818640000000  0.5772750000000  0.4763510000000 1.0
C      1  0.4817300000000  0.4242170000000  0.5250230000000 1.0
C      1  0.4999540000000  0.5230270000000  0.4191150000000 1.0
C      1  0.5239950000000  0.4180910000000  0.5017360000000 1.0
C      1  0.4173630000000  0.5015400000000  0.5203530000000 1.0
C      1  0.5003580000000  0.4702830000000  0.5862120000000 1.0
C      1  0.5002640000000  0.5230780000000  0.5830200000000 1.0
C      1  0.5003640000000  0.4701300000000  0.4152580000000 1.0
C      1  0.5232670000000  0.5831280000000  0.5007450000000 1.0
C      1  0.4711040000000  0.4140600000000  0.5008480000000 1.0
C      1  0.4705740000000  0.5869070000000  0.5005260000000 1.0
C      1  0.4244580000000  0.5031570000000  0.4790930000000 1.0
C      1  0.5865710000000  0.5009360000000  0.4703490000000 1.0
C      1  0.5832790000000  0.5009440000000  0.5231630000000 1.0
END
