TITL C-245599-5050-16 -4.15066219278961e-07 125000 -408.48027627481 0 0 60 (Ih) n - 1
REM
REM in /home/bkarasulu/work/CARBON/AIRSS/Generating-Clusters/AIREBO/Higher-Symm/Only-C60
REM
REM
REM
REM
REM
REM ./C.cell (28575a23ae977d3b5fae324c64b13b57)
REM AIRSS Version 0.9.1 bugfix July 2018 build 013d7b7c2542+ Fri, 06 Jul 2018 19:26:36 +0100
REM compiler GCC version 9.2.1 20190827 (Red Hat 9.2.1-1)
REM options -cpp -mtune=generic -march=x86-64 -g -O0 -fpre-include=/usr/include/finclude/math-vector-fortran.h
REM seed -1987968516 1146548153 1346054721 1830807875 819639254 758237555 53044831 -884339333 1919728966 -1910378954 2020805428 -1055014398 -1911131213 -315188515 -1475689453 853065126 2019549769 -1964259690 613696930 -592093935 -55251834 -1370442274 -797197864 50920905 -1706486392 -1244218261 1239661377 -893491329 -1484427116 -951613088 -1960825302 -1027244501 826341314
REM
CELL 1.54180   50.00000   50.00000   50.00000   90.00000   90.00000   90.00000
LATT -1
SFAC C  
C      1  0.4714990000000  0.5605660000000  0.5233980000000 1.0
C      1  0.5605720000000  0.5234010000000  0.4715150000000 1.0
C      1  0.5233880000000  0.4714980000000  0.5605690000000 1.0
C      1  0.4715080000000  0.4394330000000  0.4765930000000 1.0
C      1  0.5284990000000  0.5605710000000  0.4766130000000 1.0
C      1  0.5284940000000  0.4394300000000  0.5233960000000 1.0
C      1  0.5605640000000  0.4766010000000  0.5285040000000 1.0
C      1  0.4394270000000  0.5233930000000  0.5284890000000 1.0
C      1  0.4394360000000  0.4766050000000  0.4714920000000 1.0
C      1  0.5234060000000  0.5285030000000  0.4394380000000 1.0
C      1  0.4766130000000  0.4715090000000  0.4394250000000 1.0
C      1  0.4765930000000  0.5284900000000  0.5605680000000 1.0
C      1  0.5284920000000  0.5605670000000  0.5234070000000 1.0
C      1  0.4394360000000  0.5233990000000  0.4714960000000 1.0
C      1  0.4765940000000  0.4714970000000  0.5605620000000 1.0
C      1  0.5285010000000  0.4394340000000  0.4766020000000 1.0
C      1  0.4715060000000  0.5605700000000  0.4766040000000 1.0
C      1  0.4715010000000  0.4394290000000  0.5233870000000 1.0
C      1  0.4394280000000  0.4765990000000  0.5284850000000 1.0
C      1  0.5605640000000  0.5233950000000  0.5285080000000 1.0
C      1  0.5605730000000  0.4766070000000  0.4715110000000 1.0
C      1  0.4766120000000  0.5285020000000  0.4394310000000 1.0
C      1  0.5234070000000  0.4715100000000  0.4394320000000 1.0
C      1  0.5233870000000  0.5284910000000  0.5605750000000 1.0
C      1  0.5461170000000  0.4855460000000  0.4481120000000 1.0
C      1  0.4855340000000  0.4481020000000  0.5461010000000 1.0
C      1  0.4481080000000  0.5461090000000  0.4855360000000 1.0
C      1  0.5461000000000  0.5144560000000  0.5519020000000 1.0
C      1  0.4538840000000  0.4855340000000  0.5518850000000 1.0
C      1  0.4538990000000  0.5144640000000  0.4481010000000 1.0
C      1  0.4855460000000  0.5518980000000  0.4538940000000 1.0
C      1  0.5144680000000  0.4481110000000  0.4538890000000 1.0
C      1  0.5144520000000  0.5518890000000  0.5461150000000 1.0
C      1  0.4481050000000  0.4538890000000  0.5144480000000 1.0
C      1  0.5518900000000  0.5461080000000  0.5144720000000 1.0
C      1  0.5518970000000  0.4538940000000  0.4855430000000 1.0
C      1  0.4539000000000  0.4855440000000  0.4480980000000 1.0
C      1  0.5144540000000  0.4481020000000  0.5461060000000 1.0
C      1  0.5518950000000  0.5461110000000  0.4855520000000 1.0
C      1  0.4538830000000  0.5144540000000  0.5518880000000 1.0
C      1  0.5461010000000  0.4855360000000  0.5518990000000 1.0
C      1  0.5461160000000  0.5144660000000  0.4481150000000 1.0
C      1  0.5144660000000  0.5518980000000  0.4538990000000 1.0
C      1  0.4855480000000  0.4481110000000  0.4538850000000 1.0
C      1  0.4855320000000  0.5518890000000  0.5461110000000 1.0
C      1  0.5518920000000  0.4538910000000  0.5144640000000 1.0
C      1  0.4481030000000  0.5461060000000  0.5144570000000 1.0
C      1  0.4481100000000  0.4538920000000  0.4855280000000 1.0
C      1  0.4859620000000  0.5695050000000  0.5000040000000 1.0
C      1  0.5140380000000  0.4304950000000  0.4999960000000 1.0
C      1  0.5695070000000  0.5000030000000  0.4859740000000 1.0
C      1  0.4999900000000  0.4859570000000  0.5695040000000 1.0
C      1  0.4859650000000  0.4304940000000  0.4999910000000 1.0
C      1  0.5140350000000  0.5695060000000  0.5000090000000 1.0
C      1  0.5695030000000  0.5000000000000  0.5140470000000 1.0
C      1  0.4304930000000  0.4999970000000  0.5140260000000 1.0
C      1  0.4304970000000  0.5000000000000  0.4859530000000 1.0
C      1  0.5000100000000  0.5140430000000  0.4304960000000 1.0
C      1  0.5000110000000  0.4859700000000  0.4304930000000 1.0
C      1  0.4999890000000  0.5140300000000  0.5695070000000 1.0
END
