TITL C-245599-5050-28 -2873713.26268747 125000 -335.876144282877 0 0 60 (C1) n - 1
REM
REM in /home/bkarasulu/work/CARBON/AIRSS/Generating-Clusters/AIREBO/Higher-Symm/Only-C60
REM
REM
REM
REM
REM
REM ./C.cell (28575a23ae977d3b5fae324c64b13b57)
REM AIRSS Version 0.9.1 bugfix July 2018 build 013d7b7c2542+ Fri, 06 Jul 2018 19:26:36 +0100
REM compiler GCC version 9.2.1 20190827 (Red Hat 9.2.1-1)
REM options -cpp -mtune=generic -march=x86-64 -g -O0 -fpre-include=/usr/include/finclude/math-vector-fortran.h
REM seed 2088030182 -810127669 -1011856628 1331634442 898033408 -989531871 850577677 -1062682304 900268890 -918061933 -494554745 -659905635 -375123971 -1890638469 -1035210650 -1118418419 517403760 1040707933 1167802047 2117916143 1947136564 -1671819150 1788983595 1216950000 436098859 -732146397 1714989206 1281205827 1897681697 800056249 -1690646907 1730600632 399491240
REM
CELL 1.54180   50.00000   50.00000   50.00000   90.00000   90.00000   90.00000
LATT -1
SFAC C  
C      1  0.4717470000000  0.5003670000000  0.4934560000000 1.0
C      1  0.4501550000000  0.5105380000000  0.5142480000000 1.0
C      1  0.5028560000000  0.4667910000000  0.4832860000000 1.0
C      1  0.4992870000000  0.5366720000000  0.5153920000000 1.0
C      1  0.4985710000000  0.5066170000000  0.4995060000000 1.0
C      1  0.5148090000000  0.4796160000000  0.5124200000000 1.0
C      1  0.5598500000000  0.4958030000000  0.4440770000000 1.0
C      1  0.5549660000000  0.5031210000000  0.5619840000000 1.0
C      1  0.5364380000000  0.4870250000000  0.5679180000000 1.0
C      1  0.5419680000000  0.5113730000000  0.4350480000000 1.0
C      1  0.5338330000000  0.5667980000000  0.5252030000000 1.0
C      1  0.5256650000000  0.4255620000000  0.4601150000000 1.0
C      1  0.4572860000000  0.4622090000000  0.4454760000000 1.0
C      1  0.4607920000000  0.5345420000000  0.5498300000000 1.0
C      1  0.4508610000000  0.5697960000000  0.5126090000000 1.0
C      1  0.4518300000000  0.4334770000000  0.4845700000000 1.0
C      1  0.4729120000000  0.4969820000000  0.5720730000000 1.0
C      1  0.4702030000000  0.5045820000000  0.4254130000000 1.0
C      1  0.5487910000000  0.4774060000000  0.4676400000000 1.0
C      1  0.5501740000000  0.5208850000000  0.5358130000000 1.0
C      1  0.5321170000000  0.4551200000000  0.4529970000000 1.0
C      1  0.5325450000000  0.5459360000000  0.5437950000000 1.0
C      1  0.5081930000000  0.5428430000000  0.5632530000000 1.0
C      1  0.5048950000000  0.4627260000000  0.4366940000000 1.0
C      1  0.4636710000000  0.5618140000000  0.5369880000000 1.0
C      1  0.4658500000000  0.4395700000000  0.4604700000000 1.0
C      1  0.4447610000000  0.5507650000000  0.4916500000000 1.0
C      1  0.4497880000000  0.4546330000000  0.5037620000000 1.0
C      1  0.5027150000000  0.5588840000000  0.4933780000000 1.0
C      1  0.5092610000000  0.4409110000000  0.5048310000000 1.0
C      1  0.4608470000000  0.5443470000000  0.4680880000000 1.0
C      1  0.4651930000000  0.4567200000000  0.5279120000000 1.0
C      1  0.5151660000000  0.4799680000000  0.5457010000000 1.0
C      1  0.5158330000000  0.5140150000000  0.4537170000000 1.0
C      1  0.4659760000000  0.4797390000000  0.5456140000000 1.0
C      1  0.4569320000000  0.5219310000000  0.4496330000000 1.0
C      1  0.5394390000000  0.5091960000000  0.4756990000000 1.0
C      1  0.5614660000000  0.4908190000000  0.5246320000000 1.0
C      1  0.5130660000000  0.5862530000000  0.5107660000000 1.0
C      1  0.5155920000000  0.4166510000000  0.4860440000000 1.0
C      1  0.5614230000000  0.4607570000000  0.5304000000000 1.0
C      1  0.5501560000000  0.5390900000000  0.4825150000000 1.0
C      1  0.4455370000000  0.4790550000000  0.4908290000000 1.0
C      1  0.4328010000000  0.5280130000000  0.5038880000000 1.0
C      1  0.5389270000000  0.4478810000000  0.5147830000000 1.0
C      1  0.5360560000000  0.5579070000000  0.4952040000000 1.0
C      1  0.5113620000000  0.5121910000000  0.5356850000000 1.0
C      1  0.4957810000000  0.4913960000000  0.4628420000000 1.0
C      1  0.5039770000000  0.4515190000000  0.5510660000000 1.0
C      1  0.5031990000000  0.5415340000000  0.4495350000000 1.0
C      1  0.4900310000000  0.4427430000000  0.5289200000000 1.0
C      1  0.4877800000000  0.5528640000000  0.4686240000000 1.0
C      1  0.4959430000000  0.4419510000000  0.4621520000000 1.0
C      1  0.4930590000000  0.5551620000000  0.5389360000000 1.0
C      1  0.4618020000000  0.4913970000000  0.4621910000000 1.0
C      1  0.4774570000000  0.5091910000000  0.5344020000000 1.0
C      1  0.4794480000000  0.4766850000000  0.4294660000000 1.0
C      1  0.4829970000000  0.5256090000000  0.5702640000000 1.0
C      1  0.5311950000000  0.5150610000000  0.5081960000000 1.0
C      1  0.5447700000000  0.4769930000000  0.4983980000000 1.0
END
