TITL C-246168-3210-15 0.00184380573159249 125000 -353.687492710142 0 0 60 (C1) n - 1
REM
REM in /home/bkarasulu/work/CARBON/AIRSS/Generating-Clusters/AIREBO/Higher-Symm/Only-C60
REM
REM
REM
REM
REM
REM ./C.cell (28575a23ae977d3b5fae324c64b13b57)
REM AIRSS Version 0.9.1 bugfix July 2018 build 013d7b7c2542+ Fri, 06 Jul 2018 19:26:36 +0100
REM compiler GCC version 9.2.1 20190827 (Red Hat 9.2.1-1)
REM options -cpp -mtune=generic -march=x86-64 -g -O0 -fpre-include=/usr/include/finclude/math-vector-fortran.h
REM seed -2065794617 1624449877 -1390858977 804260084 1144856718 1768985954 -1060378301 958180867 -2053576628 -1554710531 -1277748276 229897353 -651681885 -1388534293 -35891936 -740939421 -1211111091 1168097110 -1078591694 926282803 1919449391 1288424396 2074136270 -1685901485 -1635485430 1929852800 -329492834 1170851454 12690449 26376716 544670996 532344423 666181339
REM
CELL 1.54180   50.00000   50.00000   50.00000   90.00000   90.00000   90.00000
LATT -1
SFAC C  
C      1  0.5639540000000  0.4399680000000  0.5068630000000 1.0
C      1  0.5312070000000  0.4485170000000  0.5560480000000 1.0
C      1  0.4957510000000  0.4302970000000  0.5542850000000 1.0
C      1  0.4462800000000  0.4421470000000  0.5191300000000 1.0
C      1  0.4479840000000  0.4283620000000  0.4819150000000 1.0
C      1  0.4870650000000  0.4347450000000  0.4527070000000 1.0
C      1  0.5372750000000  0.4461680000000  0.4552490000000 1.0
C      1  0.5197640000000  0.5176050000000  0.4539130000000 1.0
C      1  0.5594860000000  0.5099850000000  0.4850230000000 1.0
C      1  0.5435190000000  0.5146630000000  0.5319170000000 1.0
C      1  0.4892740000000  0.5209410000000  0.5548100000000 1.0
C      1  0.4460450000000  0.5268830000000  0.5278940000000 1.0
C      1  0.4416430000000  0.5170850000000  0.4806500000000 1.0
C      1  0.4734330000000  0.5190950000000  0.4471930000000 1.0
C      1  0.5515970000000  0.5558790000000  0.4950680000000 1.0
C      1  0.5172340000000  0.5616320000000  0.5279540000000 1.0
C      1  0.4917610000000  0.5665540000000  0.5393470000000 1.0
C      1  0.4713440000000  0.5709510000000  0.5192180000000 1.0
C      1  0.4793920000000  0.5862110000000  0.4960810000000 1.0
C      1  0.4922820000000  0.5738990000000  0.4750530000000 1.0
C      1  0.5242380000000  0.5680430000000  0.4783640000000 1.0
C      1  0.5286800000000  0.4715240000000  0.4479350000000 1.0
C      1  0.5659020000000  0.4666080000000  0.5113740000000 1.0
C      1  0.5285030000000  0.4728380000000  0.5603500000000 1.0
C      1  0.4921060000000  0.4563520000000  0.5589590000000 1.0
C      1  0.4432200000000  0.4691490000000  0.5218780000000 1.0
C      1  0.4410220000000  0.4487630000000  0.4690050000000 1.0
C      1  0.4817450000000  0.4610480000000  0.4479470000000 1.0
C      1  0.5422900000000  0.4176370000000  0.5144970000000 1.0
C      1  0.5229080000000  0.4227050000000  0.5356560000000 1.0
C      1  0.4906510000000  0.4155370000000  0.5270450000000 1.0
C      1  0.4723710000000  0.4251070000000  0.5054110000000 1.0
C      1  0.4853750000000  0.4153760000000  0.4780920000000 1.0
C      1  0.5156140000000  0.4226910000000  0.4645420000000 1.0
C      1  0.5429310000000  0.4284320000000  0.4829360000000 1.0
C      1  0.4882520000000  0.5485200000000  0.5612910000000 1.0
C      1  0.4542790000000  0.5490980000000  0.5121880000000 1.0
C      1  0.4540170000000  0.5418110000000  0.4849210000000 1.0
C      1  0.4784770000000  0.5463270000000  0.4651230000000 1.0
C      1  0.5098550000000  0.5383850000000  0.4733710000000 1.0
C      1  0.5557850000000  0.5301790000000  0.5042230000000 1.0
C      1  0.5201660000000  0.5340280000000  0.5218890000000 1.0
C      1  0.4372160000000  0.5003540000000  0.5090370000000 1.0
C      1  0.4532250000000  0.5035500000000  0.4592730000000 1.0
C      1  0.4976860000000  0.5060280000000  0.4403120000000 1.0
C      1  0.5385980000000  0.4950310000000  0.4649460000000 1.0
C      1  0.5674030000000  0.4913170000000  0.5277930000000 1.0
C      1  0.5169000000000  0.5022930000000  0.5479230000000 1.0
C      1  0.4663370000000  0.5122380000000  0.5417720000000 1.0
C      1  0.4596410000000  0.4733910000000  0.4649180000000 1.0
C      1  0.5020860000000  0.4776920000000  0.4386780000000 1.0
C      1  0.5446990000000  0.4827710000000  0.4960720000000 1.0
C      1  0.5199510000000  0.4793540000000  0.5118610000000 1.0
C      1  0.4967540000000  0.4773230000000  0.5366490000000 1.0
C      1  0.4698350000000  0.4866640000000  0.5276140000000 1.0
C      1  0.4648610000000  0.4874980000000  0.4939730000000 1.0
C      1  0.5326310000000  0.5760570000000  0.5095800000000 1.0
C      1  0.4952810000000  0.4627980000000  0.4994430000000 1.0
C      1  0.4959790000000  0.4975130000000  0.4997400000000 1.0
C      1  0.5061360000000  0.5246330000000  0.4995500000000 1.0
END
