TITL C-246166-1561-31 0.000540221194597498 125000 -348.94705268425 0 0 60 (C1) n - 1
REM
REM in /home/bkarasulu/work/CARBON/AIRSS/Generating-Clusters/AIREBO/Higher-Symm/Only-C60
REM
REM
REM
REM
REM
REM ./C.cell (28575a23ae977d3b5fae324c64b13b57)
REM AIRSS Version 0.9.1 bugfix July 2018 build 013d7b7c2542+ Fri, 06 Jul 2018 19:26:36 +0100
REM compiler GCC version 9.2.1 20190827 (Red Hat 9.2.1-1)
REM options -cpp -mtune=generic -march=x86-64 -g -O0 -fpre-include=/usr/include/finclude/math-vector-fortran.h
REM seed -1415703122 -210275678 1503539333 -1743551024 -2137352918 752712787 -1804973832 827440136 97220795 -1967104645 -963171740 2142526313 -1712518183 572046037 303183124 -1323582197 -846054187 31642698 -1002070185 -2090944146 408712265 -773803642 -708826209 -407709207 -333202940 -446120687 -1547469871 -1276146231 908629305 1778326882 -512958136 -198913331 611653205
REM
CELL 1.54180   50.00000   50.00000   50.00000   90.00000   90.00000   90.00000
LATT -1
SFAC C  
C      1  0.4701560000000  0.5234330000000  0.5151270000000 1.0
C      1  0.4654540000000  0.5190090000000  0.4821920000000 1.0
C      1  0.4284490000000  0.4923480000000  0.5138230000000 1.0
C      1  0.4399120000000  0.4965490000000  0.4834070000000 1.0
C      1  0.5456050000000  0.5583500000000  0.5021110000000 1.0
C      1  0.5382350000000  0.5527680000000  0.4766140000000 1.0
C      1  0.5635420000000  0.5155880000000  0.5451430000000 1.0
C      1  0.5651160000000  0.5141900000000  0.4602060000000 1.0
C      1  0.4340120000000  0.4723290000000  0.5302650000000 1.0
C      1  0.4413120000000  0.4693370000000  0.4694050000000 1.0
C      1  0.4996390000000  0.5181810000000  0.4745020000000 1.0
C      1  0.4960500000000  0.5073350000000  0.5043870000000 1.0
C      1  0.4626000000000  0.5333490000000  0.4452830000000 1.0
C      1  0.4682190000000  0.5297320000000  0.5603530000000 1.0
C      1  0.5698700000000  0.5102090000000  0.5160990000000 1.0
C      1  0.5751960000000  0.5047540000000  0.4858860000000 1.0
C      1  0.4267190000000  0.5269450000000  0.4790270000000 1.0
C      1  0.4366590000000  0.5243120000000  0.5116350000000 1.0
C      1  0.4798060000000  0.5425980000000  0.5358490000000 1.0
C      1  0.4757570000000  0.5494040000000  0.4709020000000 1.0
C      1  0.4792860000000  0.4599340000000  0.4228700000000 1.0
C      1  0.4831000000000  0.4508950000000  0.5883960000000 1.0
C      1  0.4879390000000  0.4791330000000  0.4991380000000 1.0
C      1  0.4892510000000  0.4721350000000  0.4699950000000 1.0
C      1  0.4751130000000  0.4572190000000  0.5140450000000 1.0
C      1  0.4815310000000  0.4425280000000  0.4848000000000 1.0
C      1  0.4422970000000  0.5317450000000  0.5441370000000 1.0
C      1  0.4345930000000  0.5372860000000  0.4548650000000 1.0
C      1  0.5332520000000  0.5357790000000  0.4327410000000 1.0
C      1  0.5304640000000  0.5350140000000  0.5737880000000 1.0
C      1  0.5064680000000  0.5242690000000  0.4219280000000 1.0
C      1  0.5130860000000  0.5132480000000  0.5765380000000 1.0
C      1  0.5335890000000  0.4715990000000  0.5369580000000 1.0
C      1  0.5370430000000  0.4657160000000  0.4781520000000 1.0
C      1  0.4807660000000  0.5134820000000  0.4349330000000 1.0
C      1  0.4831030000000  0.5115080000000  0.5746250000000 1.0
C      1  0.4576660000000  0.4484730000000  0.4638290000000 1.0
C      1  0.4586130000000  0.4599310000000  0.5360280000000 1.0
C      1  0.5513270000000  0.5389070000000  0.4559420000000 1.0
C      1  0.5450300000000  0.5371960000000  0.5496760000000 1.0
C      1  0.5171880000000  0.5106130000000  0.4511620000000 1.0
C      1  0.5203960000000  0.5151250000000  0.5186980000000 1.0
C      1  0.5340060000000  0.4482070000000  0.5228220000000 1.0
C      1  0.5287320000000  0.4439910000000  0.4945060000000 1.0
C      1  0.5531180000000  0.4836820000000  0.4919950000000 1.0
C      1  0.5411030000000  0.4944530000000  0.5197220000000 1.0
C      1  0.4991330000000  0.5583880000000  0.5237090000000 1.0
C      1  0.4908050000000  0.5658420000000  0.4969550000000 1.0
C      1  0.5536770000000  0.4929100000000  0.4443200000000 1.0
C      1  0.5573890000000  0.4923050000000  0.5616200000000 1.0
C      1  0.4918300000000  0.4818850000000  0.4405330000000 1.0
C      1  0.4930800000000  0.4793200000000  0.5727370000000 1.0
C      1  0.5250570000000  0.4842660000000  0.5650700000000 1.0
C      1  0.5239510000000  0.4788380000000  0.4514320000000 1.0
C      1  0.5280660000000  0.5454340000000  0.5247030000000 1.0
C      1  0.5090360000000  0.5498050000000  0.4746440000000 1.0
C      1  0.4629760000000  0.4425590000000  0.4367250000000 1.0
C      1  0.4694240000000  0.4585940000000  0.5611410000000 1.0
C      1  0.5080840000000  0.3999210000000  0.4850550000000 1.0
C      1  0.5071240000000  0.4271460000000  0.4868520000000 1.0
END
