TITL C-245598-4421-9 -0.00130612539690181 125000 -344.036164486994 0 0 60 (C4) n - 1
REM
REM in /home/bkarasulu/work/CARBON/AIRSS/Generating-Clusters/AIREBO/Higher-Symm/Only-C60
REM
REM
REM
REM
REM
REM ./C.cell (28575a23ae977d3b5fae324c64b13b57)
REM AIRSS Version 0.9.1 bugfix July 2018 build 013d7b7c2542+ Fri, 06 Jul 2018 19:26:36 +0100
REM compiler GCC version 9.2.1 20190827 (Red Hat 9.2.1-1)
REM options -cpp -mtune=generic -march=x86-64 -g -O0 -fpre-include=/usr/include/finclude/math-vector-fortran.h
REM seed -1673721679 1734072235 -149435754 -310228666 1985958514 -1965959521 -33353094 -577214866 1067777270 -828786476 -1267933061 -321655263 -2100250922 1304967051 645051902 1071311036 -643936249 2104711876 1873875786 -829644729 1493137663 -1195330695 1234234690 724952006 986884574 1880589670 -1404575549 -538678186 -1765602972 -1444844125 1447107476 2127379118 2069226967
REM
CELL 1.54180   50.00000   50.00000   50.00000   90.00000   90.00000   90.00000
LATT -1
SFAC C  
C      1  0.5683060000000  0.4652320000000  0.4529500000000 1.0
C      1  0.5732470000000  0.5142210000000  0.4583770000000 1.0
C      1  0.5547980000000  0.5420650000000  0.4568430000000 1.0
C      1  0.5347680000000  0.5683060000000  0.4529500000000 1.0
C      1  0.4857790000000  0.5732470000000  0.4583770000000 1.0
C      1  0.4579350000000  0.5547980000000  0.4568430000000 1.0
C      1  0.4316940000000  0.5347680000000  0.4529500000000 1.0
C      1  0.4267530000000  0.4857790000000  0.4583770000000 1.0
C      1  0.4452020000000  0.4579350000000  0.4568430000000 1.0
C      1  0.4652320000000  0.4316940000000  0.4529500000000 1.0
C      1  0.5142210000000  0.4267530000000  0.4583770000000 1.0
C      1  0.5420650000000  0.4452020000000  0.4568430000000 1.0
C      1  0.5160380000000  0.5878590000000  0.4921690000000 1.0
C      1  0.4672290000000  0.5773830000000  0.5085640000000 1.0
C      1  0.4183500000000  0.5626860000000  0.4935490000000 1.0
C      1  0.4121410000000  0.5160380000000  0.4921690000000 1.0
C      1  0.4226170000000  0.4672290000000  0.5085640000000 1.0
C      1  0.4373140000000  0.4183500000000  0.4935490000000 1.0
C      1  0.4839620000000  0.4121410000000  0.4921690000000 1.0
C      1  0.5327710000000  0.4226170000000  0.5085640000000 1.0
C      1  0.5816500000000  0.4373140000000  0.4935490000000 1.0
C      1  0.5878590000000  0.4839620000000  0.4921690000000 1.0
C      1  0.5773830000000  0.5327710000000  0.5085640000000 1.0
C      1  0.5626860000000  0.5816500000000  0.4935490000000 1.0
C      1  0.5468200000000  0.5761050000000  0.5146840000000 1.0
C      1  0.5154380000000  0.5726550000000  0.5214650000000 1.0
C      1  0.4846680000000  0.5666140000000  0.5268270000000 1.0
C      1  0.4238950000000  0.5468200000000  0.5146840000000 1.0
C      1  0.4273450000000  0.5154380000000  0.5214650000000 1.0
C      1  0.4333860000000  0.4846680000000  0.5268270000000 1.0
C      1  0.4531800000000  0.4238950000000  0.5146840000000 1.0
C      1  0.4845620000000  0.4273450000000  0.5214650000000 1.0
C      1  0.5153320000000  0.4333860000000  0.5268270000000 1.0
C      1  0.5761050000000  0.4531800000000  0.5146840000000 1.0
C      1  0.5726550000000  0.4845610000000  0.5214650000000 1.0
C      1  0.5666140000000  0.5153320000000  0.5268270000000 1.0
C      1  0.5345020000000  0.5383360000000  0.5579450000000 1.0
C      1  0.5141120000000  0.5556480000000  0.5509360000000 1.0
C      1  0.4834940000000  0.5497130000000  0.5512260000000 1.0
C      1  0.4616640000000  0.5345020000000  0.5579450000000 1.0
C      1  0.4443520000000  0.5141120000000  0.5509360000000 1.0
C      1  0.4502870000000  0.4834940000000  0.5512260000000 1.0
C      1  0.4654980000000  0.4616640000000  0.5579450000000 1.0
C      1  0.4858880000000  0.4443520000000  0.5509360000000 1.0
C      1  0.5165060000000  0.4502870000000  0.5512260000000 1.0
C      1  0.5383360000000  0.4654980000000  0.5579450000000 1.0
C      1  0.5556480000000  0.4858880000000  0.5509360000000 1.0
C      1  0.5497130000000  0.5165060000000  0.5512260000000 1.0
C      1  0.4268770000000  0.5626080000000  0.4672250000000 1.0
C      1  0.4219830000000  0.5120610000000  0.4655010000000 1.0
C      1  0.4244590000000  0.4644270000000  0.4817370000000 1.0
C      1  0.4373920000000  0.4268770000000  0.4672250000000 1.0
C      1  0.4879390000000  0.4219830000000  0.4655010000000 1.0
C      1  0.5355730000000  0.4244590000000  0.4817370000000 1.0
C      1  0.5731230000000  0.4373920000000  0.4672250000000 1.0
C      1  0.5780170000000  0.4879390000000  0.4655010000000 1.0
C      1  0.5755410000000  0.5355730000000  0.4817370000000 1.0
C      1  0.5626080000000  0.5731230000000  0.4672250000000 1.0
C      1  0.5120610000000  0.5780170000000  0.4655010000000 1.0
C      1  0.4644270000000  0.5755410000000  0.4817370000000 1.0
END
