TITL C-245595-5410-22 -0.000886858283093338 125000 -339.70634420893 0 0 60 (C1) n - 1
REM
REM in /home/bkarasulu/work/CARBON/AIRSS/Generating-Clusters/AIREBO/Higher-Symm/Only-C60
REM
REM
REM
REM
REM
REM ./C.cell (28575a23ae977d3b5fae324c64b13b57)
REM AIRSS Version 0.9.1 bugfix July 2018 build 013d7b7c2542+ Fri, 06 Jul 2018 19:26:36 +0100
REM compiler GCC version 9.2.1 20190827 (Red Hat 9.2.1-1)
REM options -cpp -mtune=generic -march=x86-64 -g -O0 -fpre-include=/usr/include/finclude/math-vector-fortran.h
REM seed -1621736473 1041251528 -1230597133 633270738 895219580 145033107 1178760580 833708500 1540147370 -625738809 -307921536 849646501 -2107940707 1951256127 -1760818214 771765214 1232807057 -1146450767 -1531031114 630263898 -1168893321 -1149444446 -926095213 -741021064 -1312724818 1835690426 301002511 -1764851936 693572543 -1082009279 997182194 1049841035 535888374
REM
CELL 1.54180   50.00000   50.00000   50.00000   90.00000   90.00000   90.00000
LATT -1
SFAC C  
C      1  0.5338660000000  0.4830690000000  0.5547040000000 1.0
C      1  0.4648660000000  0.5162490000000  0.5561350000000 1.0
C      1  0.5387070000000  0.4880300000000  0.4458760000000 1.0
C      1  0.4681380000000  0.5184770000000  0.4437890000000 1.0
C      1  0.4672180000000  0.4821330000000  0.5555040000000 1.0
C      1  0.5330550000000  0.5171080000000  0.5549530000000 1.0
C      1  0.4641960000000  0.4854180000000  0.4482550000000 1.0
C      1  0.5352490000000  0.5216420000000  0.4417690000000 1.0
C      1  0.4851320000000  0.4652960000000  0.5335790000000 1.0
C      1  0.5144480000000  0.5363370000000  0.5349430000000 1.0
C      1  0.4842120000000  0.4618920000000  0.4625160000000 1.0
C      1  0.5182920000000  0.5392260000000  0.4625910000000 1.0
C      1  0.5145540000000  0.4684840000000  0.5330770000000 1.0
C      1  0.4840760000000  0.5358620000000  0.5357980000000 1.0
C      1  0.5181880000000  0.4653820000000  0.4608330000000 1.0
C      1  0.4855270000000  0.5353570000000  0.4651850000000 1.0
C      1  0.4412190000000  0.5142900000000  0.4633280000000 1.0
C      1  0.5660270000000  0.4871270000000  0.4644600000000 1.0
C      1  0.4349610000000  0.5171310000000  0.5399710000000 1.0
C      1  0.5628060000000  0.4786520000000  0.5376050000000 1.0
C      1  0.5602480000000  0.5164580000000  0.4635670000000 1.0
C      1  0.4368030000000  0.4839080000000  0.4663630000000 1.0
C      1  0.5602550000000  0.5083130000000  0.5386730000000 1.0
C      1  0.4385490000000  0.4876230000000  0.5417060000000 1.0
C      1  0.5372020000000  0.4524890000000  0.4834570000000 1.0
C      1  0.4647390000000  0.5499330000000  0.4852610000000 1.0
C      1  0.5317180000000  0.4495630000000  0.5134550000000 1.0
C      1  0.4728640000000  0.5562330000000  0.5109690000000 1.0
C      1  0.4630980000000  0.4475860000000  0.4850780000000 1.0
C      1  0.5373500000000  0.5514460000000  0.4860780000000 1.0
C      1  0.4740120000000  0.4433200000000  0.5104500000000 1.0
C      1  0.5269130000000  0.5571810000000  0.5111170000000 1.0
C      1  0.4672350000000  0.5171090000000  0.5164210000000 1.0
C      1  0.5219940000000  0.4881630000000  0.5108370000000 1.0
C      1  0.4826710000000  0.5145910000000  0.4902180000000 1.0
C      1  0.5091110000000  0.4856600000000  0.4827770000000 1.0
C      1  0.5298000000000  0.5175410000000  0.5146300000000 1.0
C      1  0.4683360000000  0.4852540000000  0.5152820000000 1.0
C      1  0.5146540000000  0.5186250000000  0.4866770000000 1.0
C      1  0.4780950000000  0.4843180000000  0.4856590000000 1.0
C      1  0.4760350000000  0.4683570000000  0.4239150000000 1.0
C      1  0.5262530000000  0.5287560000000  0.4133100000000 1.0
C      1  0.4760210000000  0.4716570000000  0.5833380000000 1.0
C      1  0.5248480000000  0.5267300000000  0.5834330000000 1.0
C      1  0.5266500000000  0.4704530000000  0.4220870000000 1.0
C      1  0.4758240000000  0.5266630000000  0.4153280000000 1.0
C      1  0.5265700000000  0.4718300000000  0.5826330000000 1.0
C      1  0.4739670000000  0.5262790000000  0.5843870000000 1.0
C      1  0.5653770000000  0.4664130000000  0.4831070000000 1.0
C      1  0.4399040000000  0.5343480000000  0.4841460000000 1.0
C      1  0.5598830000000  0.4630700000000  0.5143440000000 1.0
C      1  0.4370980000000  0.5260230000000  0.5118850000000 1.0
C      1  0.4388030000000  0.4644240000000  0.4872400000000 1.0
C      1  0.5605500000000  0.5338380000000  0.4862010000000 1.0
C      1  0.4382340000000  0.4755170000000  0.5141230000000 1.0
C      1  0.5608140000000  0.5214190000000  0.5122030000000 1.0
C      1  0.5014160000000  0.4728830000000  0.5929780000000 1.0
C      1  0.4996020000000  0.5249040000000  0.5933740000000 1.0
C      1  0.5010560000000  0.4685090000000  0.4139210000000 1.0
C      1  0.5007120000000  0.5254500000000  0.4045030000000 1.0
END
