TITL C-246164-9105-37 308891.931902344 125000 -332.450612547862 0 0 60 (C1) n - 1
REM
REM in /home/bkarasulu/work/CARBON/AIRSS/Generating-Clusters/AIREBO/Higher-Symm/Only-C60
REM
REM
REM
REM
REM
REM ./C.cell (28575a23ae977d3b5fae324c64b13b57)
REM AIRSS Version 0.9.1 bugfix July 2018 build 013d7b7c2542+ Fri, 06 Jul 2018 19:26:36 +0100
REM compiler GCC version 9.2.1 20190827 (Red Hat 9.2.1-1)
REM options -cpp -mtune=generic -march=x86-64 -g -O0 -fpre-include=/usr/include/finclude/math-vector-fortran.h
REM seed -1752683032 1297288452 1062965652 861386331 -1394655857 1954508137 1179177794 -1482964885 1687885299 188296160 -269705024 1344540731 -2011359744 369707111 -824419759 1793703949 695485996 1800644823 727270657 -419516654 1763376135 1038619261 1294226925 40807963 -762578908 -1825850899 554795652 -1329965537 -1906895082 -278680667 -752634623 -959578846 1065522797
REM
CELL 1.54180   50.00000   50.00000   50.00000   90.00000   90.00000   90.00000
LATT -1
SFAC C  
C      1  0.5380870000000  0.4340620000000  0.4956020000000 1.0
C      1  0.4799580000000  0.4932500000000  0.5697810000000 1.0
C      1  0.5599530000000  0.4859730000000  0.4987560000000 1.0
C      1  0.5574180000000  0.4769200000000  0.4500710000000 1.0
C      1  0.5012970000000  0.4297460000000  0.4620380000000 1.0
C      1  0.5225200000000  0.5165310000000  0.5604900000000 1.0
C      1  0.4360460000000  0.4740040000000  0.5100370000000 1.0
C      1  0.5346290000000  0.4916700000000  0.4346980000000 1.0
C      1  0.4857430000000  0.5114360000000  0.4357730000000 1.0
C      1  0.5134060000000  0.4426490000000  0.4416300000000 1.0
C      1  0.4841900000000  0.4950120000000  0.4814490000000 1.0
C      1  0.5208030000000  0.4622040000000  0.5177050000000 1.0
C      1  0.4621950000000  0.5371520000000  0.5561240000000 1.0
C      1  0.4570690000000  0.5006940000000  0.4748900000000 1.0
C      1  0.5026720000000  0.5733620000000  0.5253400000000 1.0
C      1  0.5117560000000  0.4320510000000  0.4881060000000 1.0
C      1  0.4540130000000  0.4406220000000  0.4731370000000 1.0
C      1  0.4960820000000  0.4683190000000  0.4941840000000 1.0
C      1  0.4991670000000  0.5221030000000  0.4841900000000 1.0
C      1  0.4567410000000  0.5053070000000  0.4480620000000 1.0
C      1  0.4057140000000  0.5350580000000  0.5095640000000 1.0
C      1  0.4888930000000  0.4395970000000  0.5095740000000 1.0
C      1  0.5400360000000  0.4583970000000  0.4284210000000 1.0
C      1  0.4589640000000  0.4533350000000  0.5011140000000 1.0
C      1  0.4713840000000  0.4704020000000  0.5283160000000 1.0
C      1  0.4654580000000  0.5097030000000  0.5534780000000 1.0
C      1  0.5518890000000  0.4599810000000  0.5127530000000 1.0
C      1  0.4455180000000  0.5636330000000  0.4991980000000 1.0
C      1  0.4131920000000  0.4667640000000  0.5202420000000 1.0
C      1  0.4732780000000  0.4252550000000  0.4608880000000 1.0
C      1  0.4926750000000  0.5250860000000  0.5147950000000 1.0
C      1  0.4944980000000  0.5492570000000  0.4684410000000 1.0
C      1  0.5696260000000  0.4828880000000  0.4735740000000 1.0
C      1  0.5745040000000  0.5541990000000  0.5274740000000 1.0
C      1  0.4910180000000  0.5424430000000  0.4386780000000 1.0
C      1  0.5238290000000  0.5259290000000  0.5284550000000 1.0
C      1  0.4805910000000  0.5545290000000  0.5151310000000 1.0
C      1  0.4720470000000  0.5619720000000  0.4845660000000 1.0
C      1  0.5338460000000  0.4670690000000  0.5624710000000 1.0
C      1  0.5452990000000  0.5503160000000  0.4860600000000 1.0
C      1  0.5156340000000  0.5047390000000  0.4505970000000 1.0
C      1  0.4441590000000  0.5032100000000  0.5029020000000 1.0
C      1  0.4838540000000  0.5491620000000  0.5700940000000 1.0
C      1  0.5280510000000  0.5093950000000  0.4810340000000 1.0
C      1  0.4508960000000  0.5494260000000  0.5296800000000 1.0
C      1  0.4690650000000  0.5036160000000  0.5237660000000 1.0
C      1  0.5152140000000  0.4932030000000  0.5064360000000 1.0
C      1  0.4309230000000  0.5293170000000  0.5134500000000 1.0
C      1  0.5112850000000  0.4889740000000  0.5627430000000 1.0
C      1  0.4683790000000  0.4389520000000  0.5366830000000 1.0
C      1  0.5107620000000  0.5435170000000  0.5619090000000 1.0
C      1  0.5237910000000  0.5577550000000  0.4772850000000 1.0
C      1  0.5921480000000  0.5315200000000  0.4899760000000 1.0
C      1  0.5692510000000  0.5393260000000  0.5042810000000 1.0
C      1  0.5211990000000  0.5593470000000  0.5394600000000 1.0
C      1  0.5498390000000  0.4592990000000  0.5450420000000 1.0
C      1  0.5075990000000  0.4655540000000  0.4211470000000 1.0
C      1  0.5475620000000  0.5163730000000  0.5076240000000 1.0
C      1  0.4999750000000  0.4807810000000  0.5343650000000 1.0
C      1  0.4944140000000  0.4876550000000  0.4162660000000 1.0
END
