TITL C-26740-8352-98 -645.18410351022 125000 -312.171945394595 0 0 60 (C1) n - 1
REM
REM in /home/nfs/bkarasulu/CARBON/AIRSS/Generating-Clusters/AIREBO/Higher-Symm/Only-C60
REM
REM
REM
REM
REM
REM ./C.cell (28575a23ae977d3b5fae324c64b13b57)
REM
REM compiler GCC version 9.2.1 20190827 (Red Hat 9.2.1-1)
REM options -cpp -mtune=generic -march=x86-64 -g -O0 -fpre-include=/usr/include/finclude/math-vector-fortran.h
REM seed -205652662 1648645265 -922090124 2023591055 -747226223 1368216603 -1129675467 1116285899 -705957166 -1855248254 -1926188083 -1969675680 -889047514 -1784521699 186366533 -1184524169 -674643061 752135257 -1523304554 -2069021001 -838328469 117535186 182502692 -1525385034 -318915866 -161268477 -815752912 -2043076081 354100065 1060415945 1019982355 844312548 -898272398
REM
CELL 1.54180   50.00000   50.00000   50.00000   90.00000   90.00000   90.00000
LATT -1
SFAC C  
C      1  0.4654450000000  0.4505790000000  0.4624710000000 1.0
C      1  0.4647060000000  0.4573900000000  0.5307520000000 1.0
C      1  0.4676970000000  0.5241550000000  0.5568650000000 1.0
C      1  0.4634710000000  0.5552710000000  0.5017520000000 1.0
C      1  0.4647020000000  0.5156490000000  0.4464750000000 1.0
C      1  0.5420740000000  0.5021230000000  0.4503300000000 1.0
C      1  0.5447410000000  0.4546130000000  0.4834240000000 1.0
C      1  0.5434810000000  0.4682640000000  0.5423810000000 1.0
C      1  0.5508590000000  0.5303940000000  0.5475270000000 1.0
C      1  0.5477810000000  0.5529320000000  0.4865080000000 1.0
C      1  0.4686130000000  0.4972420000000  0.5499310000000 1.0
C      1  0.4803240000000  0.5510850000000  0.5301520000000 1.0
C      1  0.4762930000000  0.5375390000000  0.4671220000000 1.0
C      1  0.4771140000000  0.4778540000000  0.4485180000000 1.0
C      1  0.4761960000000  0.4446280000000  0.5021870000000 1.0
C      1  0.4946030000000  0.4557910000000  0.5468700000000 1.0
C      1  0.4976530000000  0.5329320000000  0.5638300000000 1.0
C      1  0.4937940000000  0.5617090000000  0.4934770000000 1.0
C      1  0.4902450000000  0.5080660000000  0.4260810000000 1.0
C      1  0.4922410000000  0.4312800000000  0.4682660000000 1.0
C      1  0.5481300000000  0.5681270000000  0.5125640000000 1.0
C      1  0.5402890000000  0.5297910000000  0.4413060000000 1.0
C      1  0.5406440000000  0.4541640000000  0.4555510000000 1.0
C      1  0.5432170000000  0.4414490000000  0.5300470000000 1.0
C      1  0.5501100000000  0.5108400000000  0.5692390000000 1.0
C      1  0.5429070000000  0.5585860000000  0.5429390000000 1.0
C      1  0.5351520000000  0.5538380000000  0.4599820000000 1.0
C      1  0.5366130000000  0.4781960000000  0.4366110000000 1.0
C      1  0.5389300000000  0.4315200000000  0.5007130000000 1.0
C      1  0.5462600000000  0.4799920000000  0.5702890000000 1.0
C      1  0.4450750000000  0.4832160000000  0.5414120000000 1.0
C      1  0.4499570000000  0.5396640000000  0.5374040000000 1.0
C      1  0.4445310000000  0.5451920000000  0.4754650000000 1.0
C      1  0.4451850000000  0.4883430000000  0.4433620000000 1.0
C      1  0.4461480000000  0.4394070000000  0.4871450000000 1.0
C      1  0.4336960000000  0.4972000000000  0.5161950000000 1.0
C      1  0.4502890000000  0.5243640000000  0.5069850000000 1.0
C      1  0.4479480000000  0.5109440000000  0.4758180000000 1.0
C      1  0.4477520000000  0.4774630000000  0.4754730000000 1.0
C      1  0.4435380000000  0.4672200000000  0.5053760000000 1.0
C      1  0.4981400000000  0.5248900000000  0.5312000000000 1.0
C      1  0.5025680000000  0.5294920000000  0.4871470000000 1.0
C      1  0.4995700000000  0.5009980000000  0.4593540000000 1.0
C      1  0.4978270000000  0.4616050000000  0.4826980000000 1.0
C      1  0.4910950000000  0.4864510000000  0.5382980000000 1.0
C      1  0.5051890000000  0.4261140000000  0.4992780000000 1.0
C      1  0.5135240000000  0.4733800000000  0.5683130000000 1.0
C      1  0.5090550000000  0.5600320000000  0.5467360000000 1.0
C      1  0.5020900000000  0.5588820000000  0.4606230000000 1.0
C      1  0.5040170000000  0.4769920000000  0.4277390000000 1.0
C      1  0.5344900000000  0.5248180000000  0.4905490000000 1.0
C      1  0.5257890000000  0.4985340000000  0.4776000000000 1.0
C      1  0.5228950000000  0.4746600000000  0.5000900000000 1.0
C      1  0.5233390000000  0.4922800000000  0.5291960000000 1.0
C      1  0.5290200000000  0.5250010000000  0.5218220000000 1.0
C      1  0.5165320000000  0.5556380000000  0.5138570000000 1.0
C      1  0.5076820000000  0.5301070000000  0.4437650000000 1.0
C      1  0.5088590000000  0.4540460000000  0.4514380000000 1.0
C      1  0.5116470000000  0.4508830000000  0.5216610000000 1.0
C      1  0.5182670000000  0.5061850000000  0.5598400000000 1.0
END
