TITL C-26732-6566-29 0.00239516233501006 125000 -352.773930490104 0 0 60 (C2) n - 1
REM
REM in /home/nfs/bkarasulu/CARBON/AIRSS/Generating-Clusters/AIREBO/Higher-Symm/Only-C60
REM
REM
REM
REM
REM
REM ./C.cell (28575a23ae977d3b5fae324c64b13b57)
REM
REM compiler GCC version 9.2.1 20190827 (Red Hat 9.2.1-1)
REM options -cpp -mtune=generic -march=x86-64 -g -O0 -fpre-include=/usr/include/finclude/math-vector-fortran.h
REM seed -674824837 -1908176028 -1594247668 1565130251 -973055724 -629655565 -397143215 -1492044929 -1289960995 938597969 1971387744 -256592172 1130906729 1061171667 299976616 -1667992727 1327590129 1886626600 985867223 1772596717 -1089236219 1741680858 1495860096 -1339722323 -1526054768 1621634459 -1457391402 -1966321269 157831200 880669963 -1020794210 530516388 -2030350618
REM
CELL 1.54180   50.00000   50.00000   50.00000   90.00000   90.00000   90.00000
LATT -1
SFAC C  
C      1  0.5543690000000  0.5504280000000  0.4813910000000 1.0
C      1  0.4754950000000  0.5530710000000  0.5441480000000 1.0
C      1  0.5537910000000  0.4874390000000  0.5622910000000 1.0
C      1  0.4590520000000  0.5453010000000  0.5209590000000 1.0
C      1  0.5409460000000  0.4547040000000  0.5209740000000 1.0
C      1  0.4456320000000  0.4495670000000  0.4814010000000 1.0
C      1  0.5247110000000  0.5413310000000  0.4562460000000 1.0
C      1  0.4752920000000  0.4586580000000  0.4562550000000 1.0
C      1  0.5245020000000  0.4469400000000  0.5441630000000 1.0
C      1  0.4523260000000  0.4767860000000  0.4498020000000 1.0
C      1  0.5476780000000  0.5232020000000  0.4498000000000 1.0
C      1  0.4462050000000  0.5125770000000  0.5622840000000 1.0
C      1  0.5588820000000  0.4465270000000  0.4803510000000 1.0
C      1  0.4855270000000  0.4444580000000  0.5523850000000 1.0
C      1  0.5399890000000  0.5241630000000  0.5420950000000 1.0
C      1  0.4491170000000  0.4546790000000  0.5250060000000 1.0
C      1  0.5508810000000  0.5453270000000  0.5249980000000 1.0
C      1  0.4411190000000  0.5534680000000  0.4803330000000 1.0
C      1  0.5219670000000  0.4549300000000  0.4533830000000 1.0
C      1  0.4780370000000  0.5450580000000  0.4533700000000 1.0
C      1  0.5144690000000  0.5555550000000  0.5523720000000 1.0
C      1  0.4545260000000  0.5262020000000  0.4503130000000 1.0
C      1  0.5454770000000  0.4737850000000  0.4503230000000 1.0
C      1  0.4600080000000  0.4758470000000  0.5420980000000 1.0
C      1  0.5652700000000  0.5247520000000  0.4856740000000 1.0
C      1  0.4847170000000  0.5755120000000  0.5223730000000 1.0
C      1  0.5267050000000  0.4909110000000  0.5685860000000 1.0
C      1  0.4426920000000  0.5250110000000  0.5136910000000 1.0
C      1  0.5573070000000  0.4749930000000  0.5137020000000 1.0
C      1  0.4347310000000  0.4752450000000  0.4856750000000 1.0
C      1  0.5147890000000  0.5546650000000  0.4777020000000 1.0
C      1  0.4852130000000  0.4453290000000  0.4777150000000 1.0
C      1  0.5152810000000  0.4244930000000  0.5223930000000 1.0
C      1  0.4725750000000  0.4868200000000  0.4285460000000 1.0
C      1  0.5274300000000  0.5131610000000  0.4285440000000 1.0
C      1  0.4732900000000  0.5091060000000  0.5685820000000 1.0
C      1  0.5636630000000  0.4733770000000  0.4866750000000 1.0
C      1  0.4875690000000  0.4315390000000  0.5278830000000 1.0
C      1  0.5207250000000  0.5167590000000  0.5595720000000 1.0
C      1  0.4323250000000  0.4771200000000  0.5137430000000 1.0
C      1  0.5676740000000  0.5228830000000  0.5137420000000 1.0
C      1  0.4363380000000  0.5266200000000  0.4866630000000 1.0
C      1  0.5119300000000  0.4414080000000  0.4748110000000 1.0
C      1  0.4880720000000  0.5585850000000  0.4747950000000 1.0
C      1  0.5124290000000  0.5684690000000  0.5278660000000 1.0
C      1  0.4740520000000  0.5143120000000  0.4288400000000 1.0
C      1  0.5259530000000  0.4856700000000  0.4288460000000 1.0
C      1  0.4792710000000  0.4832560000000  0.5595750000000 1.0
C      1  0.5316670000000  0.4348650000000  0.4959250000000 1.0
C      1  0.5014340000000  0.5324570000000  0.4325470000000 1.0
C      1  0.4683330000000  0.5651340000000  0.4959060000000 1.0
C      1  0.5075020000000  0.4694310000000  0.5594900000000 1.0
C      1  0.4389790000000  0.5025410000000  0.5319230000000 1.0
C      1  0.4690270000000  0.4407540000000  0.5044580000000 1.0
C      1  0.5309730000000  0.5592470000000  0.5044450000000 1.0
C      1  0.4924930000000  0.5305850000000  0.5594810000000 1.0
C      1  0.4985700000000  0.4675250000000  0.4325550000000 1.0
C      1  0.5544910000000  0.4986610000000  0.4692060000000 1.0
C      1  0.4455110000000  0.5013310000000  0.4692020000000 1.0
C      1  0.5610180000000  0.4974670000000  0.5319280000000 1.0
END
