TITL C-26741-8371-142 -0.000465425487335603 125000 -331.700720596297 0 0 60 (C1) n - 1
REM
REM in /home/nfs/bkarasulu/CARBON/AIRSS/Generating-Clusters/AIREBO/Higher-Symm/Only-C60
REM
REM
REM
REM
REM
REM ./C.cell (28575a23ae977d3b5fae324c64b13b57)
REM
REM compiler GCC version 9.2.1 20190827 (Red Hat 9.2.1-1)
REM options -cpp -mtune=generic -march=x86-64 -g -O0 -fpre-include=/usr/include/finclude/math-vector-fortran.h
REM seed -1596074680 -2126817994 1773372674 296764641 -1872624689 1584383986 -1846991148 1929900881 309680639 -114867725 1110197866 1698023590 1926558429 1622774423 4360095 -886864712 1153821008 -383632599 -1143526417 -1453198725 1621692054 -951940331 1517000082 -134275809 1316360643 -1492368858 2124129135 1788214577 325797671 -211449781 -2084472726 -2006552778 -893143343
REM
CELL 1.54180   50.00000   50.00000   50.00000   90.00000   90.00000   90.00000
LATT -1
SFAC C  
C      1  0.5307350000000  0.4637730000000  0.4580730000000 1.0
C      1  0.4809680000000  0.4536880000000  0.4916100000000 1.0
C      1  0.4782920000000  0.5807440000000  0.4615850000000 1.0
C      1  0.4752680000000  0.4882910000000  0.5750640000000 1.0
C      1  0.4476220000000  0.5273650000000  0.4324650000000 1.0
C      1  0.5358680000000  0.4276450000000  0.4941740000000 1.0
C      1  0.5184290000000  0.5835830000000  0.4818380000000 1.0
C      1  0.4759410000000  0.5210640000000  0.4305830000000 1.0
C      1  0.4669650000000  0.4398390000000  0.5188900000000 1.0
C      1  0.4819070000000  0.5685030000000  0.4372170000000 1.0
C      1  0.5161490000000  0.4918830000000  0.4927310000000 1.0
C      1  0.4867750000000  0.4193780000000  0.5228180000000 1.0
C      1  0.5639160000000  0.5176330000000  0.4771710000000 1.0
C      1  0.6216350000000  0.4109360000000  0.5521460000000 1.0
C      1  0.5324780000000  0.5659050000000  0.4659560000000 1.0
C      1  0.5355370000000  0.4393590000000  0.4681420000000 1.0
C      1  0.4891240000000  0.5695110000000  0.4917980000000 1.0
C      1  0.4409380000000  0.5192930000000  0.4592260000000 1.0
C      1  0.4749130000000  0.4666500000000  0.4628580000000 1.0
C      1  0.4767040000000  0.5331560000000  0.5564750000000 1.0
C      1  0.5578700000000  0.4378970000000  0.5124190000000 1.0
C      1  0.5789580000000  0.5027610000000  0.5029660000000 1.0
C      1  0.5028870000000  0.5155440000000  0.5070720000000 1.0
C      1  0.4733410000000  0.5080890000000  0.5143780000000 1.0
C      1  0.4947440000000  0.5722680000000  0.5245580000000 1.0
C      1  0.4478140000000  0.4954180000000  0.5329860000000 1.0
C      1  0.5243350000000  0.6091490000000  0.4893170000000 1.0
C      1  0.4495110000000  0.4896510000000  0.4647540000000 1.0
C      1  0.4322470000000  0.5395820000000  0.4143640000000 1.0
C      1  0.4598900000000  0.4755110000000  0.5557780000000 1.0
C      1  0.5335470000000  0.5294350000000  0.4817230000000 1.0
C      1  0.5422840000000  0.4922410000000  0.4705210000000 1.0
C      1  0.4277010000000  0.4731360000000  0.5170190000000 1.0
C      1  0.4823280000000  0.4782240000000  0.5228470000000 1.0
C      1  0.4927200000000  0.5424120000000  0.4357250000000 1.0
C      1  0.4282820000000  0.4744920000000  0.4830560000000 1.0
C      1  0.5800570000000  0.4284720000000  0.5247640000000 1.0
C      1  0.5097080000000  0.4263700000000  0.5094590000000 1.0
C      1  0.4902690000000  0.5115100000000  0.5691180000000 1.0
C      1  0.4580060000000  0.5593300000000  0.4953890000000 1.0
C      1  0.6003250000000  0.4186180000000  0.5389610000000 1.0
C      1  0.4424860000000  0.5360540000000  0.4801060000000 1.0
C      1  0.5429070000000  0.4637050000000  0.5098440000000 1.0
C      1  0.5117570000000  0.4589630000000  0.4999970000000 1.0
C      1  0.5143400000000  0.5392990000000  0.4550330000000 1.0
C      1  0.4827630000000  0.3972950000000  0.5374930000000 1.0
C      1  0.5378320000000  0.5242550000000  0.5775540000000 1.0
C      1  0.5046190000000  0.4819820000000  0.4623160000000 1.0
C      1  0.5555580000000  0.4853570000000  0.4990450000000 1.0
C      1  0.5029980000000  0.5402110000000  0.4866630000000 1.0
C      1  0.4574580000000  0.4741110000000  0.5006000000000 1.0
C      1  0.5132650000000  0.5270800000000  0.5340170000000 1.0
C      1  0.5296120000000  0.4841630000000  0.5542200000000 1.0
C      1  0.4779960000000  0.4966470000000  0.4475560000000 1.0
C      1  0.4528920000000  0.5267310000000  0.5432400000000 1.0
C      1  0.5585930000000  0.5488540000000  0.4661490000000 1.0
C      1  0.4505350000000  0.4556470000000  0.5351690000000 1.0
C      1  0.5205900000000  0.5102130000000  0.5601270000000 1.0
C      1  0.4510780000000  0.5313210000000  0.5115230000000 1.0
C      1  0.4957330000000  0.5498040000000  0.5413540000000 1.0
END
