TITL C-26739-6686-151 -0.00164199926580952 125000 -321.381373945513 0 0 60 (C1) n - 1
REM
REM in /home/nfs/bkarasulu/CARBON/AIRSS/Generating-Clusters/AIREBO/Higher-Symm/Only-C60
REM
REM
REM
REM
REM
REM ./C.cell (28575a23ae977d3b5fae324c64b13b57)
REM
REM compiler GCC version 9.2.1 20190827 (Red Hat 9.2.1-1)
REM options -cpp -mtune=generic -march=x86-64 -g -O0 -fpre-include=/usr/include/finclude/math-vector-fortran.h
REM seed -2025848076 -657921286 -396764224 224342277 -88471304 1625858596 -109561834 1899013691 -1298344381 -1796471970 2015921271 2065545632 259537250 -450220798 771058968 -1018978993 -1108910753 1332637584 -1348466539 1864384087 -1460367020 -264977661 505903681 -1441781597 -1883380641 -1366691049 1867268370 -402798090 1420269683 -1054693482 -501659334 127961313 -118096125
REM
CELL 1.54180   50.00000   50.00000   50.00000   90.00000   90.00000   90.00000
LATT -1
SFAC C  
C      1  0.5728690000000  0.5114040000000  0.4816650000000 1.0
C      1  0.4216650000000  0.4816860000000  0.4883490000000 1.0
C      1  0.5755670000000  0.4826860000000  0.5192680000000 1.0
C      1  0.4317030000000  0.5131720000000  0.5136120000000 1.0
C      1  0.4466370000000  0.4774940000000  0.4482810000000 1.0
C      1  0.5519950000000  0.5179320000000  0.4556320000000 1.0
C      1  0.4478680000000  0.5198700000000  0.5427670000000 1.0
C      1  0.5507400000000  0.4800480000000  0.5472580000000 1.0
C      1  0.5172970000000  0.5102540000000  0.5409750000000 1.0
C      1  0.4923500000000  0.4922580000000  0.5434710000000 1.0
C      1  0.5105360000000  0.4932490000000  0.4600910000000 1.0
C      1  0.4824370000000  0.5071940000000  0.4567250000000 1.0
C      1  0.4771040000000  0.5502230000000  0.4833430000000 1.0
C      1  0.5325920000000  0.4578390000000  0.4790020000000 1.0
C      1  0.4678670000000  0.4554420000000  0.5186120000000 1.0
C      1  0.5251680000000  0.5497580000000  0.5211080000000 1.0
C      1  0.4589910000000  0.4928730000000  0.4759740000000 1.0
C      1  0.5358920000000  0.4976350000000  0.4776520000000 1.0
C      1  0.4674140000000  0.4990530000000  0.5247620000000 1.0
C      1  0.5383600000000  0.4970270000000  0.5205280000000 1.0
C      1  0.5150880000000  0.5144870000000  0.4932830000000 1.0
C      1  0.4859670000000  0.4877330000000  0.4911510000000 1.0
C      1  0.5126500000000  0.4833220000000  0.5067240000000 1.0
C      1  0.4904640000000  0.5158800000000  0.5118990000000 1.0
C      1  0.4986710000000  0.4595750000000  0.4769040000000 1.0
C      1  0.5054260000000  0.5401110000000  0.4749910000000 1.0
C      1  0.4961170000000  0.5419190000000  0.5280520000000 1.0
C      1  0.5003060000000  0.4581810000000  0.5246420000000 1.0
C      1  0.4969300000000  0.5314510000000  0.5580660000000 1.0
C      1  0.5002680000000  0.4641180000000  0.5575580000000 1.0
C      1  0.4971150000000  0.4671000000000  0.4437320000000 1.0
C      1  0.5026390000000  0.5314190000000  0.4440290000000 1.0
C      1  0.4825340000000  0.4406700000000  0.4933770000000 1.0
C      1  0.5271310000000  0.5556120000000  0.4938140000000 1.0
C      1  0.4763930000000  0.5581730000000  0.5093830000000 1.0
C      1  0.5200430000000  0.4439470000000  0.5067640000000 1.0
C      1  0.5279770000000  0.4718520000000  0.4316030000000 1.0
C      1  0.4701490000000  0.5397170000000  0.4383430000000 1.0
C      1  0.5294890000000  0.5394300000000  0.5638000000000 1.0
C      1  0.4684760000000  0.4708420000000  0.5668540000000 1.0
C      1  0.5252200000000  0.5095130000000  0.5757190000000 1.0
C      1  0.4671820000000  0.4961430000000  0.5804960000000 1.0
C      1  0.5299080000000  0.4972810000000  0.4182960000000 1.0
C      1  0.4722900000000  0.5100290000000  0.4241960000000 1.0
C      1  0.5707610000000  0.5088890000000  0.5404020000000 1.0
C      1  0.4316240000000  0.4902270000000  0.5390740000000 1.0
C      1  0.5684410000000  0.4879360000000  0.4574490000000 1.0
C      1  0.4220680000000  0.4936230000000  0.4612490000000 1.0
C      1  0.4695920000000  0.5194190000000  0.5657710000000 1.0
C      1  0.5280720000000  0.4810720000000  0.5660750000000 1.0
C      1  0.4698490000000  0.4794390000000  0.4310360000000 1.0
C      1  0.5297930000000  0.5200330000000  0.4340700000000 1.0
C      1  0.5618380000000  0.5188220000000  0.5091280000000 1.0
C      1  0.4498130000000  0.4786660000000  0.5054760000000 1.0
C      1  0.5528580000000  0.4762100000000  0.4978840000000 1.0
C      1  0.4368200000000  0.5178080000000  0.4803100000000 1.0
C      1  0.5498880000000  0.5355010000000  0.5368660000000 1.0
C      1  0.4507270000000  0.4682630000000  0.5440660000000 1.0
C      1  0.5470120000000  0.4679550000000  0.4528700000000 1.0
C      1  0.4573590000000  0.5405360000000  0.4655200000000 1.0
END
