TITL C-26733-8285-73 0.00277818417501277 125000 -356.070385801621 0 0 60 (C1) n - 1
REM
REM in /home/nfs/bkarasulu/CARBON/AIRSS/Generating-Clusters/AIREBO/Higher-Symm/Only-C60
REM
REM
REM
REM
REM
REM ./C.cell (28575a23ae977d3b5fae324c64b13b57)
REM
REM compiler GCC version 9.2.1 20190827 (Red Hat 9.2.1-1)
REM options -cpp -mtune=generic -march=x86-64 -g -O0 -fpre-include=/usr/include/finclude/math-vector-fortran.h
REM seed -978702542 726237358 -1954599782 -209484852 1341442138 -990104567 1467294681 373288083 1862098114 -2054051650 775254467 -1125192972 1479256291 -1340745718 1701559633 1770531660 -497202362 18758495 1932549576 -93005276 963208346 104455166 574561024 1184104546 1381083677 -74479675 -72123186 1004883217 -1566291141 1161054033 869408776 567106363 184228570
REM
CELL 1.54180   50.00000   50.00000   50.00000   90.00000   90.00000   90.00000
LATT -1
SFAC C  
C      1  0.5301260000000  0.4266370000000  0.4672710000000 1.0
C      1  0.5084390000000  0.4322880000000  0.4516340000000 1.0
C      1  0.4828550000000  0.4251040000000  0.4613180000000 1.0
C      1  0.4592080000000  0.4317490000000  0.4809440000000 1.0
C      1  0.4568940000000  0.4442690000000  0.5106940000000 1.0
C      1  0.4655590000000  0.4249770000000  0.5327410000000 1.0
C      1  0.4840930000000  0.4336970000000  0.5501510000000 1.0
C      1  0.5114770000000  0.4397170000000  0.5428890000000 1.0
C      1  0.5297260000000  0.4381540000000  0.5186360000000 1.0
C      1  0.5382730000000  0.4483210000000  0.4876150000000 1.0
C      1  0.5682110000000  0.4900410000000  0.4766210000000 1.0
C      1  0.5455340000000  0.4972300000000  0.4301230000000 1.0
C      1  0.5084800000000  0.4876290000000  0.4186770000000 1.0
C      1  0.4671970000000  0.4935600000000  0.4301370000000 1.0
C      1  0.4692500000000  0.4687710000000  0.4907530000000 1.0
C      1  0.4300480000000  0.4896170000000  0.5129650000000 1.0
C      1  0.4464700000000  0.4977030000000  0.5630610000000 1.0
C      1  0.4925030000000  0.4880370000000  0.5817200000000 1.0
C      1  0.5310510000000  0.4941650000000  0.5730970000000 1.0
C      1  0.5464360000000  0.4728600000000  0.5093420000000 1.0
C      1  0.4585230000000  0.4770380000000  0.5486830000000 1.0
C      1  0.4861900000000  0.4659760000000  0.5588370000000 1.0
C      1  0.5201210000000  0.4694460000000  0.5581080000000 1.0
C      1  0.5437330000000  0.4614760000000  0.5366220000000 1.0
C      1  0.5483170000000  0.4718900000000  0.4694110000000 1.0
C      1  0.5365930000000  0.4750490000000  0.4446780000000 1.0
C      1  0.5089030000000  0.4597000000000  0.4371190000000 1.0
C      1  0.4784960000000  0.4709550000000  0.4391490000000 1.0
C      1  0.4658790000000  0.4577280000000  0.4616370000000 1.0
C      1  0.4474130000000  0.4709570000000  0.5241560000000 1.0
C      1  0.4924750000000  0.5396610000000  0.5720180000000 1.0
C      1  0.5356080000000  0.5463590000000  0.5590860000000 1.0
C      1  0.5370350000000  0.5252320000000  0.5108050000000 1.0
C      1  0.5672360000000  0.5416570000000  0.4885550000000 1.0
C      1  0.5504960000000  0.5501990000000  0.4414660000000 1.0
C      1  0.5066550000000  0.5398090000000  0.4310530000000 1.0
C      1  0.4613800000000  0.5444060000000  0.4481430000000 1.0
C      1  0.4866020000000  0.5187300000000  0.4963580000000 1.0
C      1  0.4334800000000  0.5416550000000  0.5063870000000 1.0
C      1  0.4455920000000  0.5494340000000  0.5570420000000 1.0
C      1  0.5183920000000  0.5588320000000  0.5393560000000 1.0
C      1  0.5263620000000  0.5528820000000  0.5127280000000 1.0
C      1  0.5434600000000  0.5575080000000  0.4881410000000 1.0
C      1  0.5331690000000  0.5613550000000  0.4619150000000 1.0
C      1  0.5062900000000  0.5568970000000  0.4536540000000 1.0
C      1  0.4808190000000  0.5555770000000  0.4661030000000 1.0
C      1  0.4790590000000  0.5457850000000  0.4929470000000 1.0
C      1  0.4586790000000  0.5538900000000  0.5112660000000 1.0
C      1  0.4653160000000  0.5583520000000  0.5384350000000 1.0
C      1  0.4914800000000  0.5561970000000  0.5488840000000 1.0
C      1  0.4632640000000  0.5184560000000  0.4396870000000 1.0
C      1  0.4766390000000  0.4938960000000  0.4938100000000 1.0
C      1  0.4250840000000  0.5162340000000  0.5115340000000 1.0
C      1  0.4452610000000  0.5242970000000  0.5678840000000 1.0
C      1  0.4967710000000  0.5145360000000  0.5807870000000 1.0
C      1  0.5343980000000  0.5197510000000  0.5656290000000 1.0
C      1  0.5447420000000  0.5000470000000  0.5074040000000 1.0
C      1  0.5727980000000  0.5166240000000  0.4794560000000 1.0
C      1  0.5491130000000  0.5232950000000  0.4361080000000 1.0
C      1  0.5063510000000  0.5137050000000  0.4245740000000 1.0
END
