TITL C-26735-8354-151 -0.00121054817579547 125000 -320.322863840347 0 0 60 (C1) n - 1
REM
REM in /home/nfs/bkarasulu/CARBON/AIRSS/Generating-Clusters/AIREBO/Higher-Symm/Only-C60
REM
REM
REM
REM
REM
REM ./C.cell (28575a23ae977d3b5fae324c64b13b57)
REM
REM compiler GCC version 9.2.1 20190827 (Red Hat 9.2.1-1)
REM options -cpp -mtune=generic -march=x86-64 -g -O0 -fpre-include=/usr/include/finclude/math-vector-fortran.h
REM seed -1913307781 746873638 1731850480 585764476 1664706966 -697919458 490695629 -1671727354 -49416634 910372180 -198747979 -1279111221 -1321580415 -1321453146 1004805455 1114002639 677154209 1705693693 506332203 -118482292 -68208061 -926972533 -592619635 -1911050741 70128091 -771082158 173752783 221209106 1848460420 -435423677 -658113123 1875565305 1895302600
REM
CELL 1.54180   50.00000   50.00000   50.00000   90.00000   90.00000   90.00000
LATT -1
SFAC C  
C      1  0.4511170000000  0.4389920000000  0.5329720000000 1.0
C      1  0.4545440000000  0.4318500000000  0.4873920000000 1.0
C      1  0.4525540000000  0.4749530000000  0.4145460000000 1.0
C      1  0.4401140000000  0.5157000000000  0.4384830000000 1.0
C      1  0.4598790000000  0.5614100000000  0.5210490000000 1.0
C      1  0.4665080000000  0.5501470000000  0.5512360000000 1.0
C      1  0.4766560000000  0.4926460000000  0.5758020000000 1.0
C      1  0.5572300000000  0.5536670000000  0.5278700000000 1.0
C      1  0.5503510000000  0.5073020000000  0.5535320000000 1.0
C      1  0.5556130000000  0.4533570000000  0.5503670000000 1.0
C      1  0.5565490000000  0.4323940000000  0.5002640000000 1.0
C      1  0.5676970000000  0.4630900000000  0.4526520000000 1.0
C      1  0.5548100000000  0.5141830000000  0.4483150000000 1.0
C      1  0.5695960000000  0.5636150000000  0.4805200000000 1.0
C      1  0.4868360000000  0.5708510000000  0.5366670000000 1.0
C      1  0.4741110000000  0.5238160000000  0.5623670000000 1.0
C      1  0.4837230000000  0.4704880000000  0.5589960000000 1.0
C      1  0.4648550000000  0.4509950000000  0.5086280000000 1.0
C      1  0.4943470000000  0.4608090000000  0.4501130000000 1.0
C      1  0.4551700000000  0.4923930000000  0.4354990000000 1.0
C      1  0.4501650000000  0.5390170000000  0.4489480000000 1.0
C      1  0.5077680000000  0.4347670000000  0.5052890000000 1.0
C      1  0.5215140000000  0.4592000000000  0.4528620000000 1.0
C      1  0.5085470000000  0.5194590000000  0.4352080000000 1.0
C      1  0.5244080000000  0.5599150000000  0.4652240000000 1.0
C      1  0.5117770000000  0.5645820000000  0.5259450000000 1.0
C      1  0.5022740000000  0.5229590000000  0.5791320000000 1.0
C      1  0.5103090000000  0.4629160000000  0.5533630000000 1.0
C      1  0.4939670000000  0.5158530000000  0.4646520000000 1.0
C      1  0.5185700000000  0.5327440000000  0.4810220000000 1.0
C      1  0.5106450000000  0.5381480000000  0.5103660000000 1.0
C      1  0.5174920000000  0.5123320000000  0.5314100000000 1.0
C      1  0.5194470000000  0.4786460000000  0.5272000000000 1.0
C      1  0.5043330000000  0.4682030000000  0.5001550000000 1.0
C      1  0.5284250000000  0.4664560000000  0.4790350000000 1.0
C      1  0.4765120000000  0.4879540000000  0.4560410000000 1.0
C      1  0.4687570000000  0.5381110000000  0.4697780000000 1.0
C      1  0.4650610000000  0.5460790000000  0.4956860000000 1.0
C      1  0.4822620000000  0.5286760000000  0.5166890000000 1.0
C      1  0.4844400000000  0.5040750000000  0.5374850000000 1.0
C      1  0.4697480000000  0.4737950000000  0.5325900000000 1.0
C      1  0.4777680000000  0.4630170000000  0.4795480000000 1.0
C      1  0.5474720000000  0.5745290000000  0.4682140000000 1.0
C      1  0.5379610000000  0.5717770000000  0.5324850000000 1.0
C      1  0.5236080000000  0.5159590000000  0.5646660000000 1.0
C      1  0.5318490000000  0.4466270000000  0.5623050000000 1.0
C      1  0.5318750000000  0.4218030000000  0.5026410000000 1.0
C      1  0.5454810000000  0.4557360000000  0.4378250000000 1.0
C      1  0.5354630000000  0.5189010000000  0.4307120000000 1.0
C      1  0.5668580000000  0.4592040000000  0.5188680000000 1.0
C      1  0.5599810000000  0.4629670000000  0.4857720000000 1.0
C      1  0.5665570000000  0.4926420000000  0.4705190000000 1.0
C      1  0.5479020000000  0.5194360000000  0.4801520000000 1.0
C      1  0.5640350000000  0.5388260000000  0.4989250000000 1.0
C      1  0.5503650000000  0.5217020000000  0.5250890000000 1.0
C      1  0.5507700000000  0.4822600000000  0.5353400000000 1.0
C      1  0.4625650000000  0.5056270000000  0.5040560000000 1.0
C      1  0.4905760000000  0.4983430000000  0.4924920000000 1.0
C      1  0.4355980000000  0.5030090000000  0.5044130000000 1.0
C      1  0.4094530000000  0.5021490000000  0.5027800000000 1.0
END
