TITL C-26728-8286-127 -0.00438889898999284 125000 -343.610762126838 0 0 60 (C1) n - 1
REM
REM in /home/nfs/bkarasulu/CARBON/AIRSS/Generating-Clusters/AIREBO/Higher-Symm/Only-C60
REM
REM
REM
REM
REM
REM ./C.cell (28575a23ae977d3b5fae324c64b13b57)
REM
REM compiler GCC version 9.2.1 20190827 (Red Hat 9.2.1-1)
REM options -cpp -mtune=generic -march=x86-64 -g -O0 -fpre-include=/usr/include/finclude/math-vector-fortran.h
REM seed 402813477 -1638590641 1340340237 193676418 1461448586 -510690920 -292371205 675341892 469419464 -1381355845 1596955429 1156755070 -1937327259 -1582011640 1673819426 -750077983 616786422 106525151 704097485 -1389789400 -2125300408 1218319380 -1505707457 1698210105 -1342391557 533294690 -901171278 -1247835051 -196832110 1142839549 1491205730 1552655310 -1341511916
REM
CELL 1.54180   50.00000   50.00000   50.00000   90.00000   90.00000   90.00000
LATT -1
SFAC C  
C      1  0.5732560000000  0.5177000000000  0.4559120000000 1.0
C      1  0.4318020000000  0.4747470000000  0.5430710000000 1.0
C      1  0.4954660000000  0.5511230000000  0.5811290000000 1.0
C      1  0.4974040000000  0.4537420000000  0.4179980000000 1.0
C      1  0.4794080000000  0.5311630000000  0.4329000000000 1.0
C      1  0.5226920000000  0.4799920000000  0.5703990000000 1.0
C      1  0.4998130000000  0.4336250000000  0.5347580000000 1.0
C      1  0.5147360000000  0.5700510000000  0.4666200000000 1.0
C      1  0.4448010000000  0.4214180000000  0.4518280000000 1.0
C      1  0.5505170000000  0.5339410000000  0.5425260000000 1.0
C      1  0.4592030000000  0.5240670000000  0.5163940000000 1.0
C      1  0.5367440000000  0.4746280000000  0.4811710000000 1.0
C      1  0.4852990000000  0.5688220000000  0.4674920000000 1.0
C      1  0.5281440000000  0.4419360000000  0.5362510000000 1.0
C      1  0.4626900000000  0.5662770000000  0.5389190000000 1.0
C      1  0.5241340000000  0.4324510000000  0.4609880000000 1.0
C      1  0.4679380000000  0.5589440000000  0.5655810000000 1.0
C      1  0.5220670000000  0.4402370000000  0.4340820000000 1.0
C      1  0.5313960000000  0.4079800000000  0.4693300000000 1.0
C      1  0.4484300000000  0.5879470000000  0.5318190000000 1.0
C      1  0.5532450000000  0.4337190000000  0.5318970000000 1.0
C      1  0.4634490000000  0.5836920000000  0.4718160000000 1.0
C      1  0.4869070000000  0.4228780000000  0.5125710000000 1.0
C      1  0.5332320000000  0.5801240000000  0.4850950000000 1.0
C      1  0.4731690000000  0.5477070000000  0.5199430000000 1.0
C      1  0.5183760000000  0.4542270000000  0.4783270000000 1.0
C      1  0.5042290000000  0.5455260000000  0.5197060000000 1.0
C      1  0.4881900000000  0.4620010000000  0.4825360000000 1.0
C      1  0.4223520000000  0.4918740000000  0.5231470000000 1.0
C      1  0.5801700000000  0.4987980000000  0.4753740000000 1.0
C      1  0.4864860000000  0.4887950000000  0.4981480000000 1.0
C      1  0.5133270000000  0.5173090000000  0.5046520000000 1.0
C      1  0.5191850000000  0.5582150000000  0.5677740000000 1.0
C      1  0.4724250000000  0.4545070000000  0.4309040000000 1.0
C      1  0.5139520000000  0.5682570000000  0.5414970000000 1.0
C      1  0.4738070000000  0.4687570000000  0.4552050000000 1.0
C      1  0.5233850000000  0.5016000000000  0.4758970000000 1.0
C      1  0.4758070000000  0.5016370000000  0.5280630000000 1.0
C      1  0.4573110000000  0.4574330000000  0.5548890000000 1.0
C      1  0.5496220000000  0.5382120000000  0.4451980000000 1.0
C      1  0.5645570000000  0.4775430000000  0.4840010000000 1.0
C      1  0.4328800000000  0.5150390000000  0.5119910000000 1.0
C      1  0.5511990000000  0.5085420000000  0.4347960000000 1.0
C      1  0.4505820000000  0.4861500000000  0.5663930000000 1.0
C      1  0.5121370000000  0.4698370000000  0.5462200000000 1.0
C      1  0.4931120000000  0.5378840000000  0.4567720000000 1.0
C      1  0.5251090000000  0.5481220000000  0.4505580000000 1.0
C      1  0.4834150000000  0.4517230000000  0.5507980000000 1.0
C      1  0.5069160000000  0.4909950000000  0.5252380000000 1.0
C      1  0.4935230000000  0.5147680000000  0.4771320000000 1.0
C      1  0.5306650000000  0.4928350000000  0.4449700000000 1.0
C      1  0.4688850000000  0.5052650000000  0.5581680000000 1.0
C      1  0.4521850000000  0.4280710000000  0.4773140000000 1.0
C      1  0.5378870000000  0.5449300000000  0.5197020000000 1.0
C      1  0.5435730000000  0.5437560000000  0.5677190000000 1.0
C      1  0.4510870000000  0.4361750000000  0.4293170000000 1.0
C      1  0.4753770000000  0.5282000000000  0.5710090000000 1.0
C      1  0.5208210000000  0.4720410000000  0.4305280000000 1.0
C      1  0.4737960000000  0.4367490000000  0.4924110000000 1.0
C      1  0.5477280000000  0.5653170000000  0.5031570000000 1.0
END
