TITL C-26732-6566-80 0.0272157394176174 125000 -326.017253999905 0 0 60 (C1) n - 1
REM
REM in /home/nfs/bkarasulu/CARBON/AIRSS/Generating-Clusters/AIREBO/Higher-Symm/Only-C60
REM
REM
REM
REM
REM
REM ./C.cell (28575a23ae977d3b5fae324c64b13b57)
REM
REM compiler GCC version 9.2.1 20190827 (Red Hat 9.2.1-1)
REM options -cpp -mtune=generic -march=x86-64 -g -O0 -fpre-include=/usr/include/finclude/math-vector-fortran.h
REM seed 95235449 1534147090 547949675 1535665822 1144764735 1419649259 -246817277 -2097813549 36230216 -994393724 -817055404 1787852340 13032976 1994159284 -10830507 1574574703 -557850463 -1504144804 -1482025010 -408427582 -194518634 1429887943 -1640812347 693048050 -891944352 762508514 -258635580 1803481156 -1058761131 386698853 429279920 -1520496865 565167881
REM
CELL 1.54180   50.00000   50.00000   50.00000   90.00000   90.00000   90.00000
LATT -1
SFAC C  
C      1  0.4621570000000  0.5543510000000  0.4594490000000 1.0
C      1  0.5747500000000  0.4823360000000  0.4787380000000 1.0
C      1  0.4736250000000  0.4534360000000  0.5625730000000 1.0
C      1  0.4687250000000  0.4546380000000  0.5351930000000 1.0
C      1  0.5663870000000  0.5428280000000  0.5623780000000 1.0
C      1  0.5386500000000  0.4391600000000  0.4660620000000 1.0
C      1  0.5561680000000  0.5232810000000  0.5382630000000 1.0
C      1  0.4482190000000  0.4754960000000  0.5263170000000 1.0
C      1  0.4394890000000  0.5320300000000  0.4648680000000 1.0
C      1  0.4568750000000  0.5326570000000  0.4359010000000 1.0
C      1  0.5284640000000  0.4789120000000  0.4276990000000 1.0
C      1  0.5358220000000  0.5428860000000  0.5517970000000 1.0
C      1  0.5302480000000  0.5601500000000  0.4662170000000 1.0
C      1  0.4481920000000  0.4537860000000  0.4550620000000 1.0
C      1  0.5284640000000  0.4772560000000  0.5779900000000 1.0
C      1  0.5194560000000  0.4140640000000  0.5249620000000 1.0
C      1  0.4558170000000  0.5625050000000  0.5284130000000 1.0
C      1  0.4690840000000  0.4370580000000  0.4743130000000 1.0
C      1  0.4420370000000  0.5314450000000  0.5258640000000 1.0
C      1  0.5669590000000  0.4720320000000  0.5245480000000 1.0
C      1  0.5694900000000  0.5308680000000  0.4964050000000 1.0
C      1  0.5183370000000  0.5132580000000  0.4082760000000 1.0
C      1  0.4638600000000  0.4680790000000  0.4339500000000 1.0
C      1  0.4639440000000  0.5394560000000  0.5506060000000 1.0
C      1  0.5173190000000  0.4619530000000  0.5056260000000 1.0
C      1  0.4641220000000  0.5149250000000  0.5078940000000 1.0
C      1  0.5048300000000  0.5143470000000  0.4591580000000 1.0
C      1  0.5135700000000  0.5354870000000  0.4826760000000 1.0
C      1  0.4729300000000  0.4673110000000  0.4828900000000 1.0
C      1  0.4748620000000  0.5450600000000  0.5075770000000 1.0
C      1  0.4401350000000  0.4758100000000  0.4799710000000 1.0
C      1  0.5409140000000  0.5170490000000  0.4883100000000 1.0
C      1  0.5345240000000  0.4778750000000  0.5259290000000 1.0
C      1  0.5211580000000  0.4840420000000  0.5523810000000 1.0
C      1  0.4893010000000  0.5287070000000  0.5537410000000 1.0
C      1  0.4830780000000  0.4811370000000  0.4575150000000 1.0
C      1  0.4865550000000  0.4675570000000  0.5092140000000 1.0
C      1  0.5467410000000  0.5066040000000  0.5185040000000 1.0
C      1  0.4721460000000  0.5115340000000  0.4558850000000 1.0
C      1  0.4840930000000  0.5555370000000  0.4782960000000 1.0
C      1  0.5282890000000  0.4658200000000  0.4771300000000 1.0
C      1  0.5070570000000  0.5495720000000  0.5129400000000 1.0
C      1  0.5485390000000  0.4895950000000  0.4742500000000 1.0
C      1  0.4524100000000  0.5063200000000  0.4813440000000 1.0
C      1  0.4766420000000  0.4926540000000  0.5258760000000 1.0
C      1  0.4912700000000  0.4986930000000  0.5514340000000 1.0
C      1  0.5104910000000  0.5426820000000  0.5423570000000 1.0
C      1  0.5144990000000  0.4823470000000  0.4545590000000 1.0
C      1  0.5831740000000  0.4861990000000  0.5056730000000 1.0
C      1  0.4839000000000  0.4768220000000  0.5746980000000 1.0
C      1  0.5084210000000  0.5749500000000  0.4801340000000 1.0
C      1  0.5854380000000  0.5139740000000  0.5116010000000 1.0
C      1  0.4299610000000  0.4850990000000  0.5082150000000 1.0
C      1  0.4207070000000  0.5100740000000  0.5146150000000 1.0
C      1  0.4753210000000  0.4923320000000  0.4200190000000 1.0
C      1  0.4987810000000  0.5069970000000  0.4265150000000 1.0
C      1  0.5053630000000  0.4743390000000  0.5936220000000 1.0
C      1  0.5068150000000  0.4309110000000  0.5073020000000 1.0
C      1  0.5139840000000  0.5822410000000  0.5079120000000 1.0
C      1  0.4874400000000  0.4214770000000  0.4883910000000 1.0
END
