TITL C-26730-8313-4 -6.14338115927744 125000 -368.272511965917 0 0 60 (Ci) n - 1
REM
REM in /home/nfs/bkarasulu/CARBON/AIRSS/Generating-Clusters/AIREBO/Higher-Symm/Only-C60
REM
REM
REM
REM
REM
REM ./C.cell (28575a23ae977d3b5fae324c64b13b57)
REM
REM compiler GCC version 9.2.1 20190827 (Red Hat 9.2.1-1)
REM options -cpp -mtune=generic -march=x86-64 -g -O0 -fpre-include=/usr/include/finclude/math-vector-fortran.h
REM seed 1543001120 -1553578468 -722275989 -1548230492 774358136 -1761730017 884652782 -747314449 -570055342 -1496270771 -1290325384 316434441 -700077435 335310272 -909150764 -1582299111 -63761342 -1930790304 802821406 -1437682545 1023092376 411575182 -760510749 202750209 -1031936710 1861178266 1811874832 1988925252 2030935392 -891509080 -1277706142 -230167950 -1302374547
REM
CELL 1.54180   50.00000   50.00000   50.00000   90.00000   90.00000   90.00000
LATT -1
SFAC C  
C      1  0.4703950000000  0.4994910000000  0.4347170000000 1.0
C      1  0.5139270000000  0.5245230000000  0.4354200000000 1.0
C      1  0.5138200000000  0.4745340000000  0.4387600000000 1.0
C      1  0.4715200000000  0.5007570000000  0.5637940000000 1.0
C      1  0.5149950000000  0.4751540000000  0.5665080000000 1.0
C      1  0.5153130000000  0.5257460000000  0.5635230000000 1.0
C      1  0.5296050000000  0.5005090000000  0.5652830000000 1.0
C      1  0.4860730000000  0.4754770000000  0.5645800000000 1.0
C      1  0.4861800000000  0.5254650000000  0.5612400000000 1.0
C      1  0.5284800000000  0.4992420000000  0.4362060000000 1.0
C      1  0.4850050000000  0.5248460000000  0.4334920000000 1.0
C      1  0.4846870000000  0.4742540000000  0.4364780000000 1.0
C      1  0.4762980000000  0.4583130000000  0.4598210000000 1.0
C      1  0.4733140000000  0.5426840000000  0.4530830000000 1.0
C      1  0.5475450000000  0.5019530000000  0.4574950000000 1.0
C      1  0.4791640000000  0.5402720000000  0.5370720000000 1.0
C      1  0.4758190000000  0.4585340000000  0.5434810000000 1.0
C      1  0.5494740000000  0.4978690000000  0.5446330000000 1.0
C      1  0.5237020000000  0.5416880000000  0.5401800000000 1.0
C      1  0.5266860000000  0.4573150000000  0.5469170000000 1.0
C      1  0.4524550000000  0.4980460000000  0.5425040000000 1.0
C      1  0.5208360000000  0.4597270000000  0.4629280000000 1.0
C      1  0.5241810000000  0.5414650000000  0.4565180000000 1.0
C      1  0.4505250000000  0.5021320000000  0.4553670000000 1.0
C      1  0.5326950000000  0.4223290000000  0.4898860000000 1.0
C      1  0.4169030000000  0.5101660000000  0.4899390000000 1.0
C      1  0.5480300000000  0.5680570000000  0.4904460000000 1.0
C      1  0.5334430000000  0.5786150000000  0.5113320000000 1.0
C      1  0.4174810000000  0.4904690000000  0.5092620000000 1.0
C      1  0.5486450000000  0.4321090000000  0.5103750000000 1.0
C      1  0.4673050000000  0.5776710000000  0.5101140000000 1.0
C      1  0.5830970000000  0.4898340000000  0.5100610000000 1.0
C      1  0.4519690000000  0.4319420000000  0.5095550000000 1.0
C      1  0.4665570000000  0.4213850000000  0.4886680000000 1.0
C      1  0.5825190000000  0.5095310000000  0.4907380000000 1.0
C      1  0.4513550000000  0.5678920000000  0.4896250000000 1.0
C      1  0.4351440000000  0.4781410000000  0.5276850000000 1.0
C      1  0.5154200000000  0.5679960000000  0.5305950000000 1.0
C      1  0.5524370000000  0.4519420000000  0.5306460000000 1.0
C      1  0.4332100000000  0.5224810000000  0.4702030000000 1.0
C      1  0.5139200000000  0.4327850000000  0.4710980000000 1.0
C      1  0.5496890000000  0.5467110000000  0.4719390000000 1.0
C      1  0.5648560000000  0.5218580000000  0.4723140000000 1.0
C      1  0.4845800000000  0.4320050000000  0.4694060000000 1.0
C      1  0.4475630000000  0.5480580000000  0.4693540000000 1.0
C      1  0.5667900000000  0.4775190000000  0.5297960000000 1.0
C      1  0.4860790000000  0.5672150000000  0.5289020000000 1.0
C      1  0.4503110000000  0.4532890000000  0.5280610000000 1.0
C      1  0.5180450000000  0.5232710000000  0.5166750000000 1.0
C      1  0.5180430000000  0.4681810000000  0.5185930000000 1.0
C      1  0.4690490000000  0.4956800000000  0.5158290000000 1.0
C      1  0.5143980000000  0.4777530000000  0.4874620000000 1.0
C      1  0.5129090000000  0.5315380000000  0.4849060000000 1.0
C      1  0.4659250000000  0.5037150000000  0.4833460000000 1.0
C      1  0.4819540000000  0.4767290000000  0.4833260000000 1.0
C      1  0.4819570000000  0.5318210000000  0.4814080000000 1.0
C      1  0.5309510000000  0.5043190000000  0.4841700000000 1.0
C      1  0.4856020000000  0.5222470000000  0.5125380000000 1.0
C      1  0.4870920000000  0.4684620000000  0.5150950000000 1.0
C      1  0.5340750000000  0.4962860000000  0.5166530000000 1.0
END
