TITL C-26741-8371-68 0.000202575133004417 125000 -322.251460103953 0 0 60 (C1) n - 1
REM
REM in /home/nfs/bkarasulu/CARBON/AIRSS/Generating-Clusters/AIREBO/Higher-Symm/Only-C60
REM
REM
REM
REM
REM
REM ./C.cell (28575a23ae977d3b5fae324c64b13b57)
REM
REM compiler GCC version 9.2.1 20190827 (Red Hat 9.2.1-1)
REM options -cpp -mtune=generic -march=x86-64 -g -O0 -fpre-include=/usr/include/finclude/math-vector-fortran.h
REM seed -1528094587 1266898926 -254841110 1369859094 -938646488 -603717173 -384268402 198841147 766768507 -1134469142 -1339869334 1966252587 1542661706 -1515430226 -1163644932 -1336768436 1067067774 695198081 -1745051362 -1620533810 742010784 529123755 -94407903 -1664107427 -2048804034 -1679586183 -391622446 1561322662 2100119036 -30320633 1299460203 -340892268 -991708813
REM
CELL 1.54180   50.00000   50.00000   50.00000   90.00000   90.00000   90.00000
LATT -1
SFAC C  
C      1  0.4359190000000  0.5151430000000  0.4818210000000 1.0
C      1  0.4499750000000  0.5438760000000  0.5197770000000 1.0
C      1  0.4859960000000  0.5558160000000  0.4835120000000 1.0
C      1  0.5218970000000  0.5603480000000  0.5202690000000 1.0
C      1  0.5492780000000  0.5422770000000  0.4792860000000 1.0
C      1  0.5584030000000  0.5135600000000  0.5239700000000 1.0
C      1  0.5641020000000  0.4848870000000  0.4817840000000 1.0
C      1  0.5500190000000  0.4561490000000  0.5197360000000 1.0
C      1  0.5139570000000  0.4441460000000  0.4835100000000 1.0
C      1  0.4781080000000  0.4396740000000  0.5202540000000 1.0
C      1  0.4507090000000  0.4577340000000  0.4792690000000 1.0
C      1  0.4415840000000  0.4864470000000  0.5239760000000 1.0
C      1  0.4985130000000  0.4716070000000  0.4413330000000 1.0
C      1  0.4876650000000  0.4793880000000  0.5678490000000 1.0
C      1  0.4689050000000  0.4845000000000  0.4354150000000 1.0
C      1  0.4696650000000  0.5083270000000  0.5673320000000 1.0
C      1  0.4722030000000  0.5180110000000  0.4306940000000 1.0
C      1  0.4878730000000  0.5342530000000  0.5544640000000 1.0
C      1  0.5015170000000  0.5283440000000  0.4413340000000 1.0
C      1  0.5123120000000  0.5205610000000  0.5678460000000 1.0
C      1  0.5311450000000  0.5154900000000  0.4354410000000 1.0
C      1  0.5303070000000  0.4916430000000  0.5673010000000 1.0
C      1  0.5278390000000  0.4818930000000  0.4306810000000 1.0
C      1  0.5121380000000  0.4657790000000  0.5544610000000 1.0
C      1  0.5280220000000  0.5001470000000  0.5166810000000 1.0
C      1  0.5303590000000  0.4806930000000  0.4820800000000 1.0
C      1  0.5080220000000  0.4759710000000  0.5067230000000 1.0
C      1  0.4893780000000  0.4673960000000  0.4800070000000 1.0
C      1  0.4831720000000  0.4705790000000  0.5274070000000 1.0
C      1  0.4642300000000  0.4878800000000  0.4749350000000 1.0
C      1  0.4719580000000  0.4998800000000  0.5166930000000 1.0
C      1  0.4696650000000  0.5193110000000  0.4820710000000 1.0
C      1  0.4919700000000  0.5240220000000  0.5067480000000 1.0
C      1  0.5106100000000  0.5326010000000  0.4800120000000 1.0
C      1  0.5168350000000  0.5294450000000  0.5274060000000 1.0
C      1  0.5357620000000  0.5121350000000  0.4749690000000 1.0
C      1  0.4302780000000  0.4610170000000  0.5055660000000 1.0
C      1  0.4234580000000  0.4923570000000  0.4968700000000 1.0
C      1  0.4312210000000  0.5400100000000  0.5006000000000 1.0
C      1  0.4721490000000  0.5591820000000  0.5134520000000 1.0
C      1  0.5035160000000  0.5790860000000  0.4997040000000 1.0
C      1  0.5481400000000  0.5632980000000  0.5059870000000 1.0
C      1  0.5697160000000  0.5390030000000  0.5055870000000 1.0
C      1  0.5765320000000  0.5076710000000  0.4968520000000 1.0
C      1  0.5687700000000  0.4600030000000  0.5005560000000 1.0
C      1  0.5278470000000  0.4408360000000  0.5134330000000 1.0
C      1  0.4965150000000  0.4208310000000  0.4997620000000 1.0
C      1  0.4518660000000  0.4367230000000  0.5059760000000 1.0
C      1  0.4920390000000  0.5597360000000  0.5347730000000 1.0
C      1  0.5288550000000  0.5445300000000  0.4530090000000 1.0
C      1  0.5404040000000  0.5188390000000  0.5495660000000 1.0
C      1  0.5519830000000  0.4937910000000  0.4512890000000 1.0
C      1  0.5389600000000  0.4780660000000  0.5375610000000 1.0
C      1  0.5239240000000  0.4613250000000  0.4581170000000 1.0
C      1  0.5079690000000  0.4402850000000  0.5347630000000 1.0
C      1  0.4711360000000  0.4554670000000  0.4530020000000 1.0
C      1  0.4595830000000  0.4811500000000  0.5495600000000 1.0
C      1  0.4479870000000  0.5062560000000  0.4513010000000 1.0
C      1  0.4610360000000  0.5219490000000  0.5376010000000 1.0
C      1  0.4761020000000  0.5386750000000  0.4580670000000 1.0
END
