TITL C-26727-7196-191 -0.00215616825359272 125000 -344.944608072095 0 0 60 (C1) n - 1
REM
REM in /home/nfs/bkarasulu/CARBON/AIRSS/Generating-Clusters/AIREBO/Higher-Symm/Only-C60
REM
REM
REM
REM
REM
REM ./C.cell (28575a23ae977d3b5fae324c64b13b57)
REM
REM compiler GCC version 9.2.1 20190827 (Red Hat 9.2.1-1)
REM options -cpp -mtune=generic -march=x86-64 -g -O0 -fpre-include=/usr/include/finclude/math-vector-fortran.h
REM seed 1766073926 985292420 1286130763 248046511 -2030632515 13437555 -643258937 1414502687 -32072049 -441181644 1052239667 1401986241 -139222162 -192724129 -998905927 -779508497 -389086912 1630664425 -518792225 1027250658 -87436785 1241767135 2064257125 -884977277 -1080703027 1290458884 628421092 1536340193 -241120861 433456015 2107984572 1040538726 -1868613488
REM
CELL 1.54180   50.00000   50.00000   50.00000   90.00000   90.00000   90.00000
LATT -1
SFAC C  
C      1  0.4714250000000  0.5552130000000  0.5153590000000 1.0
C      1  0.5012080000000  0.5550240000000  0.4699290000000 1.0
C      1  0.5256100000000  0.5568460000000  0.5134910000000 1.0
C      1  0.4777360000000  0.4477580000000  0.5143030000000 1.0
C      1  0.5080930000000  0.4505110000000  0.4761270000000 1.0
C      1  0.5277640000000  0.4498910000000  0.5176720000000 1.0
C      1  0.4720670000000  0.5498530000000  0.4845340000000 1.0
C      1  0.5021730000000  0.5478430000000  0.5285730000000 1.0
C      1  0.5247970000000  0.5442180000000  0.4838250000000 1.0
C      1  0.4800320000000  0.4487740000000  0.4851040000000 1.0
C      1  0.5025750000000  0.4553340000000  0.5255200000000 1.0
C      1  0.5317540000000  0.4427730000000  0.4907280000000 1.0
C      1  0.4993430000000  0.4784600000000  0.4355900000000 1.0
C      1  0.5732300000000  0.4773660000000  0.5361140000000 1.0
C      1  0.4389900000000  0.4729770000000  0.5304910000000 1.0
C      1  0.5012650000000  0.5311260000000  0.4289700000000 1.0
C      1  0.5563940000000  0.5268470000000  0.5354190000000 1.0
C      1  0.4309190000000  0.5259240000000  0.5311330000000 1.0
C      1  0.4951420000000  0.4759620000000  0.5721470000000 1.0
C      1  0.5666660000000  0.4698480000000  0.4611330000000 1.0
C      1  0.4342980000000  0.4769620000000  0.4748580000000 1.0
C      1  0.4917980000000  0.5270150000000  0.5728100000000 1.0
C      1  0.5573430000000  0.5211840000000  0.4552090000000 1.0
C      1  0.4314700000000  0.5261960000000  0.4605780000000 1.0
C      1  0.5287960000000  0.5020500000000  0.5205550000000 1.0
C      1  0.4766340000000  0.5217380000000  0.5124410000000 1.0
C      1  0.5084790000000  0.5088900000000  0.4686480000000 1.0
C      1  0.5438070000000  0.4728490000000  0.5247280000000 1.0
C      1  0.4555410000000  0.4978060000000  0.5169070000000 1.0
C      1  0.5138070000000  0.4758900000000  0.4619930000000 1.0
C      1  0.5309640000000  0.5119960000000  0.4928500000000 1.0
C      1  0.4828520000000  0.5182270000000  0.4788960000000 1.0
C      1  0.5006750000000  0.5141520000000  0.5328980000000 1.0
C      1  0.5415690000000  0.4875000000000  0.4726640000000 1.0
C      1  0.4597200000000  0.4961880000000  0.4867070000000 1.0
C      1  0.5011230000000  0.4808750000000  0.5399810000000 1.0
C      1  0.4719620000000  0.4743650000000  0.4405450000000 1.0
C      1  0.5775820000000  0.4588610000000  0.5087410000000 1.0
C      1  0.4582600000000  0.4527140000000  0.5363300000000 1.0
C      1  0.4847970000000  0.5444910000000  0.4471040000000 1.0
C      1  0.5521660000000  0.5414500000000  0.5124280000000 1.0
C      1  0.4515830000000  0.5419180000000  0.5392190000000 1.0
C      1  0.4727220000000  0.4557510000000  0.5626470000000 1.0
C      1  0.5599570000000  0.4493880000000  0.4830510000000 1.0
C      1  0.4606660000000  0.4613160000000  0.4672020000000 1.0
C      1  0.4797890000000  0.5423420000000  0.5520700000000 1.0
C      1  0.5578430000000  0.5378010000000  0.4790420000000 1.0
C      1  0.4563970000000  0.5383180000000  0.4566460000000 1.0
C      1  0.5092220000000  0.5043650000000  0.5711120000000 1.0
C      1  0.5091070000000  0.5012380000000  0.4229020000000 1.0
C      1  0.5737390000000  0.4980540000000  0.4515820000000 1.0
C      1  0.4218830000000  0.5057510000000  0.4784540000000 1.0
C      1  0.5676590000000  0.5014200000000  0.5502590000000 1.0
C      1  0.4185690000000  0.4949860000000  0.5316460000000 1.0
C      1  0.5604460000000  0.4857700000000  0.4991780000000 1.0
C      1  0.4594200000000  0.4986580000000  0.4531870000000 1.0
C      1  0.4707120000000  0.4913900000000  0.5452900000000 1.0
C      1  0.5344330000000  0.5078570000000  0.5535810000000 1.0
C      1  0.5294020000000  0.5192750000000  0.4439350000000 1.0
C      1  0.4156260000000  0.5132350000000  0.5049690000000 1.0
END
