TITL C-26727-7196-89 0.000759140121069159 125000 -309.194543815982 0 0 60 (C1) n - 1
REM
REM in /home/nfs/bkarasulu/CARBON/AIRSS/Generating-Clusters/AIREBO/Higher-Symm/Only-C60
REM
REM
REM
REM
REM
REM ./C.cell (28575a23ae977d3b5fae324c64b13b57)
REM
REM compiler GCC version 9.2.1 20190827 (Red Hat 9.2.1-1)
REM options -cpp -mtune=generic -march=x86-64 -g -O0 -fpre-include=/usr/include/finclude/math-vector-fortran.h
REM seed -424649552 370556777 -744288444 2065898443 -616234989 624843163 -1849857299 -1896166470 -1110506765 1679006596 339434596 -295537174 1792680058 737469080 639371630 701752936 983625940 1424655423 1828904128 493558023 590066887 867072611 1283103516 387228135 822736883 604815679 1655519123 994847804 1096892126 -146885737 1562685316 998874708 -175790579
REM
CELL 1.54180   50.00000   50.00000   50.00000   90.00000   90.00000   90.00000
LATT -1
SFAC C  
C      1  0.5440000000000  0.4944820000000  0.4496820000000 1.0
C      1  0.4672380000000  0.4847810000000  0.5534430000000 1.0
C      1  0.5322970000000  0.4939750000000  0.5572650000000 1.0
C      1  0.4650210000000  0.4886090000000  0.4515650000000 1.0
C      1  0.4435380000000  0.5279700000000  0.4645900000000 1.0
C      1  0.5485980000000  0.5298450000000  0.5457060000000 1.0
C      1  0.4505560000000  0.5283710000000  0.5470770000000 1.0
C      1  0.5568280000000  0.5382450000000  0.4778740000000 1.0
C      1  0.5142010000000  0.5294250000000  0.5538270000000 1.0
C      1  0.4861760000000  0.5336150000000  0.4336570000000 1.0
C      1  0.5139920000000  0.5331900000000  0.4318100000000 1.0
C      1  0.4845360000000  0.5334590000000  0.5559210000000 1.0
C      1  0.5566950000000  0.4917400000000  0.5366770000000 1.0
C      1  0.4381640000000  0.4893140000000  0.4724070000000 1.0
C      1  0.5675370000000  0.4943270000000  0.4719920000000 1.0
C      1  0.4380190000000  0.4916440000000  0.5378000000000 1.0
C      1  0.4354370000000  0.5134310000000  0.4911670000000 1.0
C      1  0.5619430000000  0.5139170000000  0.5187350000000 1.0
C      1  0.4389100000000  0.5138270000000  0.5185570000000 1.0
C      1  0.5665030000000  0.5156650000000  0.4914580000000 1.0
C      1  0.5120480000000  0.4365010000000  0.5262250000000 1.0
C      1  0.4814870000000  0.4367290000000  0.4696080000000 1.0
C      1  0.5120430000000  0.4373470000000  0.4709500000000 1.0
C      1  0.4815880000000  0.4348020000000  0.5282040000000 1.0
C      1  0.5310230000000  0.5577400000000  0.4790560000000 1.0
C      1  0.4722160000000  0.5593880000000  0.5126210000000 1.0
C      1  0.5253260000000  0.5573990000000  0.5084270000000 1.0
C      1  0.4667710000000  0.5607660000000  0.4863620000000 1.0
C      1  0.4677690000000  0.4161520000000  0.4854330000000 1.0
C      1  0.5250210000000  0.4134250000000  0.5107660000000 1.0
C      1  0.4681470000000  0.4150270000000  0.5111440000000 1.0
C      1  0.5249710000000  0.4138330000000  0.4855840000000 1.0
C      1  0.4872490000000  0.5797530000000  0.5246190000000 1.0
C      1  0.5121610000000  0.5770840000000  0.4645650000000 1.0
C      1  0.4863900000000  0.5697560000000  0.4639920000000 1.0
C      1  0.5145490000000  0.5785940000000  0.5212540000000 1.0
C      1  0.5380960000000  0.5204680000000  0.5762970000000 1.0
C      1  0.4579000000000  0.5179050000000  0.4358450000000 1.0
C      1  0.5360340000000  0.5149990000000  0.4243910000000 1.0
C      1  0.4638670000000  0.5124380000000  0.5729330000000 1.0
C      1  0.4912410000000  0.4840880000000  0.4303920000000 1.0
C      1  0.5155540000000  0.4738570000000  0.5729590000000 1.0
C      1  0.4907650000000  0.4750120000000  0.5754650000000 1.0
C      1  0.5156220000000  0.4824840000000  0.4352880000000 1.0
C      1  0.4643750000000  0.4528730000000  0.5450340000000 1.0
C      1  0.5359650000000  0.4578060000000  0.4568330000000 1.0
C      1  0.4651060000000  0.4554080000000  0.4527720000000 1.0
C      1  0.5364760000000  0.4562620000000  0.5403820000000 1.0
C      1  0.5260430000000  0.5312650000000  0.5218780000000 1.0
C      1  0.4767290000000  0.5351330000000  0.4663500000000 1.0
C      1  0.5292000000000  0.5299680000000  0.4606960000000 1.0
C      1  0.4736310000000  0.5326960000000  0.5245800000000 1.0
C      1  0.4848850000000  0.5009460000000  0.5292820000000 1.0
C      1  0.5180230000000  0.5011260000000  0.4705910000000 1.0
C      1  0.4866060000000  0.5033300000000  0.4733300000000 1.0
C      1  0.5170920000000  0.4994140000000  0.5278730000000 1.0
C      1  0.5167260000000  0.4684410000000  0.5155240000000 1.0
C      1  0.4822190000000  0.4710590000000  0.4831050000000 1.0
C      1  0.5162070000000  0.4692250000000  0.4820440000000 1.0
C      1  0.4826870000000  0.4696660000000  0.5161400000000 1.0
END
