TITL C-26736-6558-176 0.000789366551933352 125000 -319.815935873205 0 0 60 (C5) n - 1
REM
REM in /home/nfs/bkarasulu/CARBON/AIRSS/Generating-Clusters/AIREBO/Higher-Symm/Only-C60
REM
REM
REM
REM
REM
REM ./C.cell (28575a23ae977d3b5fae324c64b13b57)
REM
REM compiler GCC version 9.2.1 20190827 (Red Hat 9.2.1-1)
REM options -cpp -mtune=generic -march=x86-64 -g -O0 -fpre-include=/usr/include/finclude/math-vector-fortran.h
REM seed 374860630 2082604690 -122621829 686660047 320089711 1025005826 255511345 1646027870 -1535046447 1958809649 -1847881089 41902348 -1882646007 947960726 -165989884 330372402 1685597207 1456186080 -1427849553 -1089991745 -1855860897 2114698491 -1486664148 -450764187 -1963674447 -302402416 -1756618593 1089695482 970855154 2095572064 802456140 1507590196 -557850387
REM
CELL 1.54180   50.00000   50.00000   50.00000   90.00000   90.00000   90.00000
LATT -1
SFAC C  
C      1  0.5507700000000  0.4771040000000  0.4508360000000 1.0
C      1  0.4938840000000  0.4446280000000  0.4508530000000 1.0
C      1  0.4454180000000  0.4886940000000  0.4508880000000 1.0
C      1  0.4723510000000  0.5484050000000  0.4508940000000 1.0
C      1  0.5374620000000  0.5412420000000  0.4508610000000 1.0
C      1  0.4660760000000  0.4641520000000  0.5638200000000 1.0
C      1  0.4554630000000  0.5212010000000  0.5638420000000 1.0
C      1  0.5064390000000  0.5489240000000  0.5638270000000 1.0
C      1  0.5485580000000  0.5090090000000  0.5637950000000 1.0
C      1  0.5236120000000  0.4566180000000  0.5637910000000 1.0
C      1  0.4543570000000  0.4917090000000  0.4908290000000 1.0
C      1  0.4780050000000  0.5408450000000  0.4908320000000 1.0
C      1  0.5320430000000  0.5335380000000  0.4908050000000 1.0
C      1  0.5417930000000  0.4798870000000  0.4907840000000 1.0
C      1  0.4937810000000  0.4540350000000  0.4907990000000 1.0
C      1  0.4197770000000  0.5283420000000  0.4933780000000 1.0
C      1  0.5021600000000  0.5850530000000  0.4933560000000 1.0
C      1  0.5815540000000  0.5242270000000  0.4933010000000 1.0
C      1  0.5482380000000  0.4299230000000  0.4932880000000 1.0
C      1  0.4482550000000  0.4324660000000  0.4933360000000 1.0
C      1  0.5585030000000  0.5285810000000  0.4736310000000 1.0
C      1  0.5452440000000  0.4531860000000  0.4736140000000 1.0
C      1  0.4694420000000  0.4424980000000  0.4736460000000 1.0
C      1  0.4358530000000  0.5112860000000  0.4736830000000 1.0
C      1  0.4908960000000  0.5644890000000  0.4736730000000 1.0
C      1  0.4521560000000  0.4919430000000  0.5516040000000 1.0
C      1  0.4775840000000  0.5430240000000  0.5516070000000 1.0
C      1  0.5340230000000  0.5346270000000  0.5515780000000 1.0
C      1  0.5434770000000  0.4783550000000  0.5515570000000 1.0
C      1  0.4928800000000  0.4519750000000  0.5515730000000 1.0
C      1  0.5061970000000  0.5518340000000  0.4464590000000 1.0
C      1  0.5511800000000  0.5101110000000  0.4464250000000 1.0
C      1  0.5253990000000  0.4544370000000  0.4464210000000 1.0
C      1  0.4644840000000  0.4617510000000  0.4464510000000 1.0
C      1  0.4526160000000  0.5219460000000  0.4464750000000 1.0
C      1  0.5182850000000  0.4308770000000  0.5432140000000 1.0
C      1  0.4399360000000  0.4612600000000  0.5432590000000 1.0
C      1  0.4446210000000  0.5451630000000  0.5432820000000 1.0
C      1  0.5258650000000  0.5666350000000  0.5432510000000 1.0
C      1  0.5713920000000  0.4960020000000  0.5432080000000 1.0
C      1  0.5755920000000  0.5141400000000  0.5174230000000 1.0
C      1  0.5368170000000  0.4324810000000  0.5174160000000 1.0
C      1  0.4471740000000  0.4441240000000  0.5174620000000 1.0
C      1  0.4305450000000  0.5329790000000  0.5174960000000 1.0
C      1  0.5099120000000  0.5762500000000  0.5174720000000 1.0
C      1  0.5068280000000  0.4735690000000  0.5090780000000 1.0
C      1  0.4769780000000  0.4853410000000  0.5090950000000 1.0
C      1  0.4789500000000  0.5173670000000  0.5091040000000 1.0
C      1  0.5100180000000  0.5253890000000  0.5090920000000 1.0
C      1  0.5272470000000  0.4983200000000  0.5090760000000 1.0
C      1  0.4539420000000  0.5128900000000  0.5266780000000 1.0
C      1  0.4980420000000  0.5477940000000  0.5266680000000 1.0
C      1  0.5448660000000  0.5166370000000  0.5266370000000 1.0
C      1  0.5297030000000  0.4624780000000  0.5266280000000 1.0
C      1  0.4735090000000  0.4601620000000  0.5266530000000 1.0
C      1  0.4838630000000  0.5216140000000  0.4330740000000 1.0
C      1  0.5155290000000  0.5220100000000  0.4330590000000 1.0
C      1  0.5256910000000  0.4920170000000  0.4330450000000 1.0
C      1  0.5003060000000  0.4730830000000  0.4330520000000 1.0
C      1  0.4744550000000  0.4913750000000  0.4330690000000 1.0
END
