TITL C-26726-4881-61 0.00687182103038878 125000 -332.924134345559 0 0 60 (C1) n - 1
REM
REM in /home/nfs/bkarasulu/CARBON/AIRSS/Generating-Clusters/AIREBO/Higher-Symm/Only-C60
REM
REM
REM
REM
REM
REM ./C.cell (28575a23ae977d3b5fae324c64b13b57)
REM
REM compiler GCC version 9.2.1 20190827 (Red Hat 9.2.1-1)
REM options -cpp -mtune=generic -march=x86-64 -g -O0 -fpre-include=/usr/include/finclude/math-vector-fortran.h
REM seed -1924869119 1256632303 995140842 -624192199 -1579169425 -44750334 2139340383 74594823 -703624972 1801704769 -2095688270 -1679920304 924888414 1065204199 2004796417 1167244457 -351189753 1634160211 -846235087 369329876 -1713792733 697281884 -2027397424 -1843610291 1971970112 1154499323 1538034605 -1404941739 1264048871 -794884662 1909224408 1230065211 703486697
REM
CELL 1.54180   50.00000   50.00000   50.00000   90.00000   90.00000   90.00000
LATT -1
SFAC C  
C      1  0.4866350000000  0.4647330000000  0.5513380000000 1.0
C      1  0.5077390000000  0.5419910000000  0.5547020000000 1.0
C      1  0.4797260000000  0.5385090000000  0.5507200000000 1.0
C      1  0.5160370000000  0.4680570000000  0.5585760000000 1.0
C      1  0.4485240000000  0.5459870000000  0.5030750000000 1.0
C      1  0.5513620000000  0.4603610000000  0.4940440000000 1.0
C      1  0.4433780000000  0.4572670000000  0.4910490000000 1.0
C      1  0.5537520000000  0.5379940000000  0.4942980000000 1.0
C      1  0.5351140000000  0.5191430000000  0.4391860000000 1.0
C      1  0.4615470000000  0.4783240000000  0.4458280000000 1.0
C      1  0.5321240000000  0.4872490000000  0.4494560000000 1.0
C      1  0.4630350000000  0.5108770000000  0.4522730000000 1.0
C      1  0.5150590000000  0.4896810000000  0.4769650000000 1.0
C      1  0.4840340000000  0.5148120000000  0.4771860000000 1.0
C      1  0.5133340000000  0.5204890000000  0.4652070000000 1.0
C      1  0.4830710000000  0.4814920000000  0.4705200000000 1.0
C      1  0.5193270000000  0.4899790000000  0.5084650000000 1.0
C      1  0.4730580000000  0.5150720000000  0.5094970000000 1.0
C      1  0.5312020000000  0.5136970000000  0.5225400000000 1.0
C      1  0.4863680000000  0.4856020000000  0.5041170000000 1.0
C      1  0.5544390000000  0.4837410000000  0.4748970000000 1.0
C      1  0.4441120000000  0.5175850000000  0.4796360000000 1.0
C      1  0.5464240000000  0.5167330000000  0.4720620000000 1.0
C      1  0.4435560000000  0.4839140000000  0.4741370000000 1.0
C      1  0.5809610000000  0.5386260000000  0.5146790000000 1.0
C      1  0.4332790000000  0.4609680000000  0.5218830000000 1.0
C      1  0.5650430000000  0.4652940000000  0.5245390000000 1.0
C      1  0.4224800000000  0.5263010000000  0.5026470000000 1.0
C      1  0.5646020000000  0.5139180000000  0.5251280000000 1.0
C      1  0.4416880000000  0.4843900000000  0.5345500000000 1.0
C      1  0.5575510000000  0.4882660000000  0.5386070000000 1.0
C      1  0.4410160000000  0.5076190000000  0.5180850000000 1.0
C      1  0.4753090000000  0.5114210000000  0.5429470000000 1.0
C      1  0.5335560000000  0.4897060000000  0.5543590000000 1.0
C      1  0.4668090000000  0.4847410000000  0.5503100000000 1.0
C      1  0.5206290000000  0.5169900000000  0.5540470000000 1.0
C      1  0.5172940000000  0.4436430000000  0.5370330000000 1.0
C      1  0.4931650000000  0.5687980000000  0.5287520000000 1.0
C      1  0.5255840000000  0.5640640000000  0.5377430000000 1.0
C      1  0.4839720000000  0.4418440000000  0.5288970000000 1.0
C      1  0.5462280000000  0.4403790000000  0.5223560000000 1.0
C      1  0.4614280000000  0.5573090000000  0.5325130000000 1.0
C      1  0.5537330000000  0.5519080000000  0.5261650000000 1.0
C      1  0.4526080000000  0.4371030000000  0.5199370000000 1.0
C      1  0.4681010000000  0.4370440000000  0.4795290000000 1.0
C      1  0.5300750000000  0.5587540000000  0.4857090000000 1.0
C      1  0.4716240000000  0.5612570000000  0.4847860000000 1.0
C      1  0.5277330000000  0.4394570000000  0.4842420000000 1.0
C      1  0.4820580000000  0.5264920000000  0.4318010000000 1.0
C      1  0.5133000000000  0.4703670000000  0.4313330000000 1.0
C      1  0.4886030000000  0.4669960000000  0.4319990000000 1.0
C      1  0.5062750000000  0.5301700000000  0.4271220000000 1.0
C      1  0.4821000000000  0.4546740000000  0.5000670000000 1.0
C      1  0.5183050000000  0.5428310000000  0.5121490000000 1.0
C      1  0.4879410000000  0.5436470000000  0.5064760000000 1.0
C      1  0.5136890000000  0.4568140000000  0.5068310000000 1.0
C      1  0.4875700000000  0.5768510000000  0.4696140000000 1.0
C      1  0.5125780000000  0.4210160000000  0.4722670000000 1.0
C      1  0.4851360000000  0.4199970000000  0.4675310000000 1.0
C      1  0.5150210000000  0.5770560000000  0.4735940000000 1.0
END
