TITL C-26741-8371-34 0.00129881423560155 125000 -337.934359611468 0 0 60 (C1) n - 1
REM
REM in /home/nfs/bkarasulu/CARBON/AIRSS/Generating-Clusters/AIREBO/Higher-Symm/Only-C60
REM
REM
REM
REM
REM
REM ./C.cell (28575a23ae977d3b5fae324c64b13b57)
REM
REM compiler GCC version 9.2.1 20190827 (Red Hat 9.2.1-1)
REM options -cpp -mtune=generic -march=x86-64 -g -O0 -fpre-include=/usr/include/finclude/math-vector-fortran.h
REM seed 1687659200 1971351517 779207114 693716113 -1785164427 803070736 1212955512 -2127984113 -451333871 -498364234 1471067921 1630529003 153037513 -1910608093 -1877109096 -1854955922 179997651 -1213922960 1444781627 1984586300 560363692 175729070 81988895 1599292312 -5262871 568244622 -1625895851 -544153369 1966001999 1873710713 -1872300338 1355771072 1805366852
REM
CELL 1.54180   50.00000   50.00000   50.00000   90.00000   90.00000   90.00000
LATT -1
SFAC C  
C      1  0.4869880000000  0.4841570000000  0.5784920000000 1.0
C      1  0.5723570000000  0.4846380000000  0.4834050000000 1.0
C      1  0.4856850000000  0.5713970000000  0.4801160000000 1.0
C      1  0.5124740000000  0.5145150000000  0.5819750000000 1.0
C      1  0.5128030000000  0.4849770000000  0.4224660000000 1.0
C      1  0.4845160000000  0.5129470000000  0.4246290000000 1.0
C      1  0.4256940000000  0.5153410000000  0.4843240000000 1.0
C      1  0.4290000000000  0.4880990000000  0.5129690000000 1.0
C      1  0.5741280000000  0.5176820000000  0.5187750000000 1.0
C      1  0.5163470000000  0.4203370000000  0.4857830000000 1.0
C      1  0.5190540000000  0.5784730000000  0.5164770000000 1.0
C      1  0.4879550000000  0.4261030000000  0.5128800000000 1.0
C      1  0.4815650000000  0.4829720000000  0.4199150000000 1.0
C      1  0.5783330000000  0.4869510000000  0.5157290000000 1.0
C      1  0.4886140000000  0.5740050000000  0.5110860000000 1.0
C      1  0.5145710000000  0.5163440000000  0.4262340000000 1.0
C      1  0.5183510000000  0.4828170000000  0.5792690000000 1.0
C      1  0.4814320000000  0.5158860000000  0.5785960000000 1.0
C      1  0.4265520000000  0.5186970000000  0.5149580000000 1.0
C      1  0.4253090000000  0.4843000000000  0.4820650000000 1.0
C      1  0.5707890000000  0.5147900000000  0.4884140000000 1.0
C      1  0.5186940000000  0.4249880000000  0.5167060000000 1.0
C      1  0.5183870000000  0.5760370000000  0.4850750000000 1.0
C      1  0.4841690000000  0.4215040000000  0.4825780000000 1.0
C      1  0.5309350000000  0.5561000000000  0.5353660000000 1.0
C      1  0.5274650000000  0.5300260000000  0.5569200000000 1.0
C      1  0.5471740000000  0.5264820000000  0.5300290000000 1.0
C      1  0.4782810000000  0.4533060000000  0.5243560000000 1.0
C      1  0.4723230000000  0.5535670000000  0.4650680000000 1.0
C      1  0.5303510000000  0.4426260000000  0.4671860000000 1.0
C      1  0.4740320000000  0.4730960000000  0.5495490000000 1.0
C      1  0.4680270000000  0.5237760000000  0.4491710000000 1.0
C      1  0.5251850000000  0.4708470000000  0.4491380000000 1.0
C      1  0.4571560000000  0.4778010000000  0.5203720000000 1.0
C      1  0.4442740000000  0.5357550000000  0.4701630000000 1.0
C      1  0.5450210000000  0.4717180000000  0.4769100000000 1.0
C      1  0.5161890000000  0.5458570000000  0.4762570000000 1.0
C      1  0.5243040000000  0.5229820000000  0.4545860000000 1.0
C      1  0.5442470000000  0.5273200000000  0.4794930000000 1.0
C      1  0.4751590000000  0.4471320000000  0.4657250000000 1.0
C      1  0.4808240000000  0.5500180000000  0.5280010000000 1.0
C      1  0.5271620000000  0.4521200000000  0.5301140000000 1.0
C      1  0.4668030000000  0.4699710000000  0.4431770000000 1.0
C      1  0.4711590000000  0.5257160000000  0.5489800000000 1.0
C      1  0.5344370000000  0.4770790000000  0.5504410000000 1.0
C      1  0.4508020000000  0.4697640000000  0.4721190000000 1.0
C      1  0.4516180000000  0.5339480000000  0.5238120000000 1.0
C      1  0.5539500000000  0.4704650000000  0.5232900000000 1.0
C      1  0.5158580000000  0.5018920000000  0.5443660000000 1.0
C      1  0.5294390000000  0.5128840000000  0.5051490000000 1.0
C      1  0.5089150000000  0.5340110000000  0.5218310000000 1.0
C      1  0.4888110000000  0.5007860000000  0.5424030000000 1.0
C      1  0.4786840000000  0.4961600000000  0.4616590000000 1.0
C      1  0.5088740000000  0.4963110000000  0.4603670000000 1.0
C      1  0.4645790000000  0.4925850000000  0.4923990000000 1.0
C      1  0.4648740000000  0.5241100000000  0.4945810000000 1.0
C      1  0.5298550000000  0.4822020000000  0.5039740000000 1.0
C      1  0.5040710000000  0.4624050000000  0.5082970000000 1.0
C      1  0.4931560000000  0.5344470000000  0.4933580000000 1.0
C      1  0.5022380000000  0.4567770000000  0.4784780000000 1.0
END
