TITL C-26726-4881-58 0.00080683803253384 125000 -338.010750922151 0 0 60 (C1) n - 1
REM
REM in /home/nfs/bkarasulu/CARBON/AIRSS/Generating-Clusters/AIREBO/Higher-Symm/Only-C60
REM
REM
REM
REM
REM
REM ./C.cell (28575a23ae977d3b5fae324c64b13b57)
REM
REM compiler GCC version 9.2.1 20190827 (Red Hat 9.2.1-1)
REM options -cpp -mtune=generic -march=x86-64 -g -O0 -fpre-include=/usr/include/finclude/math-vector-fortran.h
REM seed 1818220949 155938931 2099810317 1120327130 909482470 666327540 1792652735 277273195 810876866 -1506494465 -1222267630 -1726587691 -715536959 -2140014560 -1653305550 -578903185 -1913503103 -997414471 -1196206320 2017643525 1086305401 -436909876 710829497 -375221505 -1430727518 -2130676246 -1415904323 -903156517 1637683756 -848611070 -1717370011 1619976640 -1389675649
REM
CELL 1.54180   50.00000   50.00000   50.00000   90.00000   90.00000   90.00000
LATT -1
SFAC C  
C      1  0.4453560000000  0.5144520000000  0.5588710000000 1.0
C      1  0.5445980000000  0.5354270000000  0.5613500000000 1.0
C      1  0.5146600000000  0.4409710000000  0.5572760000000 1.0
C      1  0.5632960000000  0.5117540000000  0.5596210000000 1.0
C      1  0.4583120000000  0.5417280000000  0.5560100000000 1.0
C      1  0.4841690000000  0.4388300000000  0.5571790000000 1.0
C      1  0.5376530000000  0.4595970000000  0.4217010000000 1.0
C      1  0.4499600000000  0.4886320000000  0.4174160000000 1.0
C      1  0.5134850000000  0.5450920000000  0.4082630000000 1.0
C      1  0.4639410000000  0.4648830000000  0.4149590000000 1.0
C      1  0.5531150000000  0.4825830000000  0.4209450000000 1.0
C      1  0.4863040000000  0.5494180000000  0.4114450000000 1.0
C      1  0.5218770000000  0.4696130000000  0.5729000000000 1.0
C      1  0.4689020000000  0.4934280000000  0.5709450000000 1.0
C      1  0.5147150000000  0.5249730000000  0.5709220000000 1.0
C      1  0.4896220000000  0.4713500000000  0.5625300000000 1.0
C      1  0.5350970000000  0.4977190000000  0.5702070000000 1.0
C      1  0.4841550000000  0.5218330000000  0.5634230000000 1.0
C      1  0.4924480000000  0.4716790000000  0.5286040000000 1.0
C      1  0.4823380000000  0.5239500000000  0.5295360000000 1.0
C      1  0.5310620000000  0.5071170000000  0.5365980000000 1.0
C      1  0.5219310000000  0.4759110000000  0.5394840000000 1.0
C      1  0.5128270000000  0.5313210000000  0.5375150000000 1.0
C      1  0.4719030000000  0.4953850000000  0.5360420000000 1.0
C      1  0.4634010000000  0.4350810000000  0.5396910000000 1.0
C      1  0.4642890000000  0.5599750000000  0.5368720000000 1.0
C      1  0.5721260000000  0.5003950000000  0.5363880000000 1.0
C      1  0.5327710000000  0.4374880000000  0.5370120000000 1.0
C      1  0.5421880000000  0.5579510000000  0.5459870000000 1.0
C      1  0.4308010000000  0.5021460000000  0.5392010000000 1.0
C      1  0.4470390000000  0.4860720000000  0.5160380000000 1.0
C      1  0.5212320000000  0.5577820000000  0.5208580000000 1.0
C      1  0.5382370000000  0.4605190000000  0.5138800000000 1.0
C      1  0.5494860000000  0.4909730000000  0.5147750000000 1.0
C      1  0.4879630000000  0.5532120000000  0.5153920000000 1.0
C      1  0.4649790000000  0.4570620000000  0.5161180000000 1.0
C      1  0.4683890000000  0.4989640000000  0.4637350000000 1.0
C      1  0.5156230000000  0.5248880000000  0.4546700000000 1.0
C      1  0.5180260000000  0.4728850000000  0.4670690000000 1.0
C      1  0.5330740000000  0.4990730000000  0.4657030000000 1.0
C      1  0.4835690000000  0.5278970000000  0.4593370000000 1.0
C      1  0.4851830000000  0.4726660000000  0.4610280000000 1.0
C      1  0.5067020000000  0.4326350000000  0.4890860000000 1.0
C      1  0.4361160000000  0.5258930000000  0.4860890000000 1.0
C      1  0.5328010000000  0.5521880000000  0.4936450000000 1.0
C      1  0.4806330000000  0.4377520000000  0.4912800000000 1.0
C      1  0.5539620000000  0.5337350000000  0.4913690000000 1.0
C      1  0.4499970000000  0.5466370000000  0.4820220000000 1.0
C      1  0.4590100000000  0.5087480000000  0.4345380000000 1.0
C      1  0.5266300000000  0.5271270000000  0.4246290000000 1.0
C      1  0.5144630000000  0.4600360000000  0.4372740000000 1.0
C      1  0.5437600000000  0.5050530000000  0.4348560000000 1.0
C      1  0.4708370000000  0.5352470000000  0.4295850000000 1.0
C      1  0.4855560000000  0.4592730000000  0.4313130000000 1.0
C      1  0.5249440000000  0.4528970000000  0.4881910000000 1.0
C      1  0.4480940000000  0.4985730000000  0.4871610000000 1.0
C      1  0.5128400000000  0.5500020000000  0.4741050000000 1.0
C      1  0.4616740000000  0.4647870000000  0.4831610000000 1.0
C      1  0.5501400000000  0.5067280000000  0.4890370000000 1.0
C      1  0.4817420000000  0.5500130000000  0.4851600000000 1.0
END
