TITL C-26731-8310-183 -0.00212696471509914 125000 -323.936138047899 0 0 60 (C1) n - 1
REM
REM in /home/nfs/bkarasulu/CARBON/AIRSS/Generating-Clusters/AIREBO/Higher-Symm/Only-C60
REM
REM
REM
REM
REM
REM ./C.cell (28575a23ae977d3b5fae324c64b13b57)
REM
REM compiler GCC version 9.2.1 20190827 (Red Hat 9.2.1-1)
REM options -cpp -mtune=generic -march=x86-64 -g -O0 -fpre-include=/usr/include/finclude/math-vector-fortran.h
REM seed 177160042 1940638257 570323353 -1734706513 -871863128 -390245979 1523633714 1412815307 1696287747 -1833481447 -466172474 1810889040 -1883376476 1921454519 -791537212 -51560083 388673389 -1408168217 -1556488706 -1496953634 1052663801 -1801950964 -1594636654 384639407 -915171199 -1544598768 -339671247 -1370958470 -1454616711 -601307517 2094909681 -401355113 -811697308
REM
CELL 1.54180   50.00000   50.00000   50.00000   90.00000   90.00000   90.00000
LATT -1
SFAC C  
C      1  0.5310220000000  0.4969870000000  0.4720280000000 1.0
C      1  0.5418620000000  0.4956370000000  0.4197010000000 1.0
C      1  0.4976870000000  0.4760950000000  0.5256760000000 1.0
C      1  0.4764960000000  0.5009010000000  0.5621390000000 1.0
C      1  0.4811150000000  0.5230970000000  0.4792780000000 1.0
C      1  0.5187090000000  0.5699280000000  0.4874440000000 1.0
C      1  0.4728350000000  0.5544270000000  0.4689820000000 1.0
C      1  0.4999640000000  0.4880750000000  0.4758590000000 1.0
C      1  0.4338640000000  0.5194590000000  0.5266500000000 1.0
C      1  0.4981150000000  0.5248890000000  0.5059900000000 1.0
C      1  0.4688210000000  0.4809980000000  0.4774070000000 1.0
C      1  0.5300470000000  0.4525000000000  0.4520890000000 1.0
C      1  0.4656590000000  0.4984340000000  0.5064720000000 1.0
C      1  0.5361820000000  0.4348040000000  0.5074640000000 1.0
C      1  0.4781810000000  0.5715850000000  0.4944000000000 1.0
C      1  0.4880510000000  0.5423410000000  0.5453460000000 1.0
C      1  0.5218080000000  0.5038380000000  0.3978190000000 1.0
C      1  0.4687080000000  0.4382700000000  0.5402270000000 1.0
C      1  0.5483890000000  0.5345800000000  0.5068300000000 1.0
C      1  0.4482110000000  0.5147460000000  0.4822670000000 1.0
C      1  0.5030130000000  0.5200330000000  0.4013690000000 1.0
C      1  0.5157310000000  0.5614310000000  0.5381230000000 1.0
C      1  0.4723750000000  0.4551870000000  0.4956460000000 1.0
C      1  0.4895030000000  0.5293540000000  0.4268930000000 1.0
C      1  0.4504940000000  0.5345500000000  0.4566200000000 1.0
C      1  0.5019210000000  0.5560820000000  0.5106250000000 1.0
C      1  0.4267850000000  0.4755480000000  0.5096690000000 1.0
C      1  0.5249350000000  0.5138080000000  0.5690820000000 1.0
C      1  0.4262360000000  0.5027860000000  0.5049050000000 1.0
C      1  0.4993110000000  0.5517640000000  0.4500120000000 1.0
C      1  0.4529620000000  0.4392280000000  0.5695530000000 1.0
C      1  0.4822620000000  0.4585320000000  0.4557090000000 1.0
C      1  0.5232560000000  0.5037030000000  0.5041000000000 1.0
C      1  0.5723180000000  0.4941980000000  0.4396070000000 1.0
C      1  0.4987800000000  0.5122910000000  0.4541240000000 1.0
C      1  0.4907040000000  0.4228280000000  0.5194000000000 1.0
C      1  0.4600210000000  0.4847710000000  0.5371460000000 1.0
C      1  0.5443670000000  0.4585520000000  0.5241790000000 1.0
C      1  0.5165340000000  0.5390700000000  0.5615330000000 1.0
C      1  0.4531560000000  0.4577210000000  0.5190890000000 1.0
C      1  0.4971790000000  0.4715000000000  0.5792600000000 1.0
C      1  0.4664410000000  0.4684990000000  0.5663120000000 1.0
C      1  0.5412450000000  0.4693430000000  0.5507290000000 1.0
C      1  0.5559640000000  0.5183870000000  0.4493540000000 1.0
C      1  0.5204460000000  0.4713550000000  0.5055520000000 1.0
C      1  0.5431110000000  0.4991220000000  0.5511700000000 1.0
C      1  0.5225530000000  0.5526270000000  0.4664280000000 1.0
C      1  0.4576740000000  0.5290830000000  0.4301150000000 1.0
C      1  0.5061220000000  0.4468180000000  0.4637730000000 1.0
C      1  0.5259680000000  0.5183910000000  0.4388210000000 1.0
C      1  0.5457090000000  0.5109640000000  0.5251270000000 1.0
C      1  0.5177700000000  0.4567070000000  0.5635220000000 1.0
C      1  0.5417900000000  0.5583000000000  0.5188490000000 1.0
C      1  0.5041840000000  0.4431580000000  0.4957040000000 1.0
C      1  0.5430010000000  0.4805940000000  0.4501720000000 1.0
C      1  0.4941110000000  0.5050650000000  0.5333530000000 1.0
C      1  0.5409180000000  0.5292830000000  0.4765780000000 1.0
C      1  0.4658220000000  0.5235190000000  0.5294530000000 1.0
C      1  0.4958170000000  0.4542010000000  0.5433780000000 1.0
C      1  0.5037850000000  0.5000540000000  0.5809010000000 1.0
END
