TITL C-26737-6152-121 0.00228901959025062 125000 -334.594692680331 0 0 60 (C1) n - 1
REM
REM in /home/nfs/bkarasulu/CARBON/AIRSS/Generating-Clusters/AIREBO/Higher-Symm/Only-C60
REM
REM
REM
REM
REM
REM ./C.cell (28575a23ae977d3b5fae324c64b13b57)
REM
REM compiler GCC version 9.2.1 20190827 (Red Hat 9.2.1-1)
REM options -cpp -mtune=generic -march=x86-64 -g -O0 -fpre-include=/usr/include/finclude/math-vector-fortran.h
REM seed 414674029 -1312364639 -754811878 -1360901288 -926347852 317021196 -427826722 -190239358 1538174413 -1794759580 -377928407 331557304 1733861344 2081788131 2127467652 -1869689181 -1152600853 636700956 -1092812957 -243389244 -1879685438 851159630 -71054556 -1355408661 73231655 -1460948726 1085313254 -1161698358 -1081983345 717261598 158471235 1004822672 925825437
REM
CELL 1.54180   50.00000   50.00000   50.00000   90.00000   90.00000   90.00000
LATT -1
SFAC C  
C      1  0.5064460000000  0.4908330000000  0.5309840000000 1.0
C      1  0.4788940000000  0.4826340000000  0.4883160000000 1.0
C      1  0.5207430000000  0.4840690000000  0.4825750000000 1.0
C      1  0.5096250000000  0.4361110000000  0.4745040000000 1.0
C      1  0.5133420000000  0.4418880000000  0.5206320000000 1.0
C      1  0.4702300000000  0.4250640000000  0.5006990000000 1.0
C      1  0.4535110000000  0.4765440000000  0.5344700000000 1.0
C      1  0.4896250000000  0.4643590000000  0.4358460000000 1.0
C      1  0.5557540000000  0.4693710000000  0.5229590000000 1.0
C      1  0.5295430000000  0.5070460000000  0.5605490000000 1.0
C      1  0.4246100000000  0.5111280000000  0.4929380000000 1.0
C      1  0.5355880000000  0.5113670000000  0.4410600000000 1.0
C      1  0.5516840000000  0.4503970000000  0.4945960000000 1.0
C      1  0.4762610000000  0.4574910000000  0.5527100000000 1.0
C      1  0.4669590000000  0.4480240000000  0.4559620000000 1.0
C      1  0.4828200000000  0.4418820000000  0.5238280000000 1.0
C      1  0.4803050000000  0.4305270000000  0.4742700000000 1.0
C      1  0.5277130000000  0.4352350000000  0.4960140000000 1.0
C      1  0.4514900000000  0.4722190000000  0.4723490000000 1.0
C      1  0.5504710000000  0.4732410000000  0.4707620000000 1.0
C      1  0.5045600000000  0.4758540000000  0.5601310000000 1.0
C      1  0.5028840000000  0.5606680000000  0.4391060000000 1.0
C      1  0.5540350000000  0.5589260000000  0.5357400000000 1.0
C      1  0.4437360000000  0.5588430000000  0.5303580000000 1.0
C      1  0.5131070000000  0.5132260000000  0.4740660000000 1.0
C      1  0.5205390000000  0.5187840000000  0.5235180000000 1.0
C      1  0.4722550000000  0.5125360000000  0.4990790000000 1.0
C      1  0.5559140000000  0.4909260000000  0.5463790000000 1.0
C      1  0.4315310000000  0.4925640000000  0.5205740000000 1.0
C      1  0.5098490000000  0.4911600000000  0.4313090000000 1.0
C      1  0.4807020000000  0.5450170000000  0.4975230000000 1.0
C      1  0.5109480000000  0.5445780000000  0.4870530000000 1.0
C      1  0.5046860000000  0.5485360000000  0.5190990000000 1.0
C      1  0.4834340000000  0.5404000000000  0.4341770000000 1.0
C      1  0.5685640000000  0.5392800000000  0.5211670000000 1.0
C      1  0.4495630000000  0.5377990000000  0.5489090000000 1.0
C      1  0.5001780000000  0.4661350000000  0.4681220000000 1.0
C      1  0.5235360000000  0.4722510000000  0.5124660000000 1.0
C      1  0.4822790000000  0.4747110000000  0.5173620000000 1.0
C      1  0.4751410000000  0.4913340000000  0.5558090000000 1.0
C      1  0.4714310000000  0.4868720000000  0.4496000000000 1.0
C      1  0.5568030000000  0.4894430000000  0.4985140000000 1.0
C      1  0.5399790000000  0.4807700000000  0.4431730000000 1.0
C      1  0.5351480000000  0.4770810000000  0.5699040000000 1.0
C      1  0.4281990000000  0.4797070000000  0.4889930000000 1.0
C      1  0.4325750000000  0.5146420000000  0.5452650000000 1.0
C      1  0.4928140000000  0.5169180000000  0.4200930000000 1.0
C      1  0.5751330000000  0.5151910000000  0.5361740000000 1.0
C      1  0.5205990000000  0.5571650000000  0.4591130000000 1.0
C      1  0.5280710000000  0.5551920000000  0.5402810000000 1.0
C      1  0.4512840000000  0.5556960000000  0.5046770000000 1.0
C      1  0.5435360000000  0.5136110000000  0.5036460000000 1.0
C      1  0.4720880000000  0.5113560000000  0.5294050000000 1.0
C      1  0.4849720000000  0.5096340000000  0.4594700000000 1.0
C      1  0.4469750000000  0.5295040000000  0.4837850000000 1.0
C      1  0.5406890000000  0.5309540000000  0.4648130000000 1.0
C      1  0.5106000000000  0.5303350000000  0.5539990000000 1.0
C      1  0.5591100000000  0.5367680000000  0.4913140000000 1.0
C      1  0.4802850000000  0.5327490000000  0.5506900000000 1.0
C      1  0.4666550000000  0.5334530000000  0.4591200000000 1.0
END
