TITL C-26732-6566-184 -0.00659770229920615 125000 -343.728454931819 0 0 60 (C1) n - 1
REM
REM in /home/nfs/bkarasulu/CARBON/AIRSS/Generating-Clusters/AIREBO/Higher-Symm/Only-C60
REM
REM
REM
REM
REM
REM ./C.cell (28575a23ae977d3b5fae324c64b13b57)
REM
REM compiler GCC version 9.2.1 20190827 (Red Hat 9.2.1-1)
REM options -cpp -mtune=generic -march=x86-64 -g -O0 -fpre-include=/usr/include/finclude/math-vector-fortran.h
REM seed 1605061301 311510197 750000004 1975772142 -750960251 1995012393 1231889044 1203560119 -577213252 59166269 1533393768 968730361 -200438475 1467735421 -1050755360 610523936 1293103983 -1901955693 -1352866298 495683148 -263736084 -345887456 559939551 -1677534035 -524302888 -1585466845 1548022947 2146658228 2092564296 322206948 -1093795422 -745545478 -390252723
REM
CELL 1.54180   50.00000   50.00000   50.00000   90.00000   90.00000   90.00000
LATT -1
SFAC C  
C      1  0.4388980000000  0.5312660000000  0.5601720000000 1.0
C      1  0.4904810000000  0.5280050000000  0.5364210000000 1.0
C      1  0.5212990000000  0.5272370000000  0.5304120000000 1.0
C      1  0.5781660000000  0.5272780000000  0.5394800000000 1.0
C      1  0.5980950000000  0.5154250000000  0.4902630000000 1.0
C      1  0.5458590000000  0.5402270000000  0.4696690000000 1.0
C      1  0.5232540000000  0.5471640000000  0.4554880000000 1.0
C      1  0.4753650000000  0.5292480000000  0.4319020000000 1.0
C      1  0.4526610000000  0.5372590000000  0.4456070000000 1.0
C      1  0.4175850000000  0.5201690000000  0.4894900000000 1.0
C      1  0.4083470000000  0.5209330000000  0.5154020000000 1.0
C      1  0.5593140000000  0.4791310000000  0.4672970000000 1.0
C      1  0.5297050000000  0.4867070000000  0.4417800000000 1.0
C      1  0.4929060000000  0.4765440000000  0.4309230000000 1.0
C      1  0.4550120000000  0.4820870000000  0.4414530000000 1.0
C      1  0.4348770000000  0.4701410000000  0.4852300000000 1.0
C      1  0.4330350000000  0.4726420000000  0.5134610000000 1.0
C      1  0.4405790000000  0.4818900000000  0.5652840000000 1.0
C      1  0.4931550000000  0.4825020000000  0.5487850000000 1.0
C      1  0.5209400000000  0.4818200000000  0.5431670000000 1.0
C      1  0.5753660000000  0.4772250000000  0.5386140000000 1.0
C      1  0.5749200000000  0.4681180000000  0.4922050000000 1.0
C      1  0.5351710000000  0.5044670000000  0.5343380000000 1.0
C      1  0.5651470000000  0.5050720000000  0.5279180000000 1.0
C      1  0.5717040000000  0.5013090000000  0.4976520000000 1.0
C      1  0.5481680000000  0.5081660000000  0.4740310000000 1.0
C      1  0.5192000000000  0.5135870000000  0.4567020000000 1.0
C      1  0.4900190000000  0.5041870000000  0.4471630000000 1.0
C      1  0.4589730000000  0.5076370000000  0.4610640000000 1.0
C      1  0.4414650000000  0.5010770000000  0.4851710000000 1.0
C      1  0.4339030000000  0.5019910000000  0.5210930000000 1.0
C      1  0.4475020000000  0.5072250000000  0.5479780000000 1.0
C      1  0.4779660000000  0.5059110000000  0.5454050000000 1.0
C      1  0.5194570000000  0.4320430000000  0.5425860000000 1.0
C      1  0.5332730000000  0.4104700000000  0.5302360000000 1.0
C      1  0.5479900000000  0.4146120000000  0.5066950000000 1.0
C      1  0.5400460000000  0.4210170000000  0.4791700000000 1.0
C      1  0.5215890000000  0.4085530000000  0.4624520000000 1.0
C      1  0.4958790000000  0.4187420000000  0.4580660000000 1.0
C      1  0.4736050000000  0.4100680000000  0.4729790000000 1.0
C      1  0.4573330000000  0.4274150000000  0.4881350000000 1.0
C      1  0.4543480000000  0.4285540000000  0.5161820000000 1.0
C      1  0.4737050000000  0.4162280000000  0.5329310000000 1.0
C      1  0.4919920000000  0.4331990000000  0.5463550000000 1.0
C      1  0.4804940000000  0.4577280000000  0.5548880000000 1.0
C      1  0.5334970000000  0.4564740000000  0.5434110000000 1.0
C      1  0.5592550000000  0.4559880000000  0.5326940000000 1.0
C      1  0.5603120000000  0.4438180000000  0.5048550000000 1.0
C      1  0.5439760000000  0.4510440000000  0.4735700000000 1.0
C      1  0.5234290000000  0.4618630000000  0.4525420000000 1.0
C      1  0.4945670000000  0.4471690000000  0.4477340000000 1.0
C      1  0.4639430000000  0.4581180000000  0.4512270000000 1.0
C      1  0.4502690000000  0.4504000000000  0.4739520000000 1.0
C      1  0.4414630000000  0.4509430000000  0.5287480000000 1.0
C      1  0.4519720000000  0.4584650000000  0.5542360000000 1.0
C      1  0.5050190000000  0.5542880000000  0.5255600000000 1.0
C      1  0.5030340000000  0.6050770000000  0.5092720000000 1.0
C      1  0.5042700000000  0.5801690000000  0.5186280000000 1.0
C      1  0.5001480000000  0.6305110000000  0.5018990000000 1.0
C      1  0.4974350000000  0.6547200000000  0.4922240000000 1.0
END
