TITL C-26738-6379-201 -0.00160204725485674 125000 -318.012615536752 0 0 60 (C1) n - 1
REM
REM in /home/nfs/bkarasulu/CARBON/AIRSS/Generating-Clusters/AIREBO/Higher-Symm/Only-C60
REM
REM
REM
REM
REM
REM ./C.cell (28575a23ae977d3b5fae324c64b13b57)
REM
REM compiler GCC version 9.2.1 20190827 (Red Hat 9.2.1-1)
REM options -cpp -mtune=generic -march=x86-64 -g -O0 -fpre-include=/usr/include/finclude/math-vector-fortran.h
REM seed -1041828446 742923111 2081470638 854388592 -449147196 1907072831 309474110 1009755481 1495677252 871924895 1909661765 -334561370 1368911813 937205546 1468277206 -720219225 -1469491760 -753259832 -1161694779 747972848 1156750807 -838738655 1513936877 -1750501965 -2006814044 1636853684 -25848277 -592852359 1065408683 -1329772202 -2102546349 2108347420 65605367
REM
CELL 1.54180   50.00000   50.00000   50.00000   90.00000   90.00000   90.00000
LATT -1
SFAC C  
C      1  0.5172910000000  0.4533380000000  0.4398530000000 1.0
C      1  0.5290290000000  0.5048880000000  0.5693180000000 1.0
C      1  0.5463090000000  0.5388720000000  0.4919050000000 1.0
C      1  0.5207950000000  0.4880190000000  0.4806870000000 1.0
C      1  0.5163540000000  0.5348400000000  0.5463170000000 1.0
C      1  0.5082440000000  0.5718700000000  0.5106580000000 1.0
C      1  0.5052330000000  0.5077020000000  0.4577340000000 1.0
C      1  0.4570910000000  0.5327000000000  0.5333160000000 1.0
C      1  0.5114960000000  0.5206400000000  0.4979690000000 1.0
C      1  0.5235430000000  0.4499390000000  0.5220550000000 1.0
C      1  0.5679260000000  0.4747340000000  0.5098850000000 1.0
C      1  0.4322040000000  0.4717190000000  0.5205590000000 1.0
C      1  0.5576010000000  0.5458540000000  0.5177900000000 1.0
C      1  0.4102540000000  0.5623770000000  0.4442740000000 1.0
C      1  0.5797810000000  0.4923150000000  0.4845310000000 1.0
C      1  0.4596840000000  0.4675970000000  0.4793090000000 1.0
C      1  0.5488740000000  0.5254570000000  0.5758880000000 1.0
C      1  0.4748340000000  0.5368710000000  0.5545350000000 1.0
C      1  0.4863540000000  0.5627830000000  0.5570620000000 1.0
C      1  0.5489460000000  0.5047690000000  0.4916380000000 1.0
C      1  0.4972620000000  0.5220300000000  0.5250300000000 1.0
C      1  0.5073930000000  0.4469650000000  0.4953730000000 1.0
C      1  0.5366620000000  0.4873920000000  0.5492340000000 1.0
C      1  0.4678590000000  0.4829230000000  0.5346950000000 1.0
C      1  0.4922130000000  0.5314430000000  0.4740840000000 1.0
C      1  0.5535490000000  0.4994890000000  0.5254620000000 1.0
C      1  0.4646600000000  0.4719790000000  0.4488030000000 1.0
C      1  0.4481460000000  0.4575990000000  0.5409890000000 1.0
C      1  0.5469890000000  0.5278610000000  0.5420230000000 1.0
C      1  0.4284400000000  0.4594710000000  0.4748790000000 1.0
C      1  0.4626530000000  0.4347100000000  0.4874170000000 1.0
C      1  0.5277280000000  0.4473670000000  0.4697170000000 1.0
C      1  0.4464390000000  0.4928130000000  0.4978770000000 1.0
C      1  0.4485200000000  0.5070200000000  0.5286990000000 1.0
C      1  0.4681430000000  0.5192140000000  0.4948850000000 1.0
C      1  0.4664610000000  0.5186980000000  0.4285760000000 1.0
C      1  0.5490930000000  0.4346120000000  0.5278310000000 1.0
C      1  0.5711230000000  0.4476960000000  0.5249720000000 1.0
C      1  0.4911060000000  0.4744720000000  0.4907500000000 1.0
C      1  0.4683190000000  0.4526240000000  0.4261700000000 1.0
C      1  0.4662520000000  0.4584250000000  0.5656730000000 1.0
C      1  0.5528310000000  0.4916880000000  0.4507360000000 1.0
C      1  0.4554260000000  0.5487390000000  0.5043990000000 1.0
C      1  0.4852460000000  0.4259430000000  0.4945560000000 1.0
C      1  0.4905740000000  0.4807520000000  0.5570660000000 1.0
C      1  0.4972200000000  0.5133500000000  0.5644680000000 1.0
C      1  0.4845380000000  0.4955830000000  0.4393900000000 1.0
C      1  0.4342920000000  0.5546000000000  0.4537530000000 1.0
C      1  0.4972900000000  0.4662060000000  0.4272610000000 1.0
C      1  0.5519150000000  0.4658840000000  0.4554080000000 1.0
C      1  0.4520550000000  0.5394600000000  0.4380810000000 1.0
C      1  0.5171650000000  0.5513000000000  0.4871160000000 1.0
C      1  0.5317690000000  0.5142920000000  0.4436990000000 1.0
C      1  0.5423500000000  0.4654700000000  0.4942310000000 1.0
C      1  0.4836730000000  0.4955770000000  0.5117550000000 1.0
C      1  0.5163010000000  0.4688920000000  0.5431580000000 1.0
C      1  0.4426000000000  0.5614270000000  0.4799050000000 1.0
C      1  0.4865000000000  0.5497990000000  0.5125850000000 1.0
C      1  0.5104290000000  0.5661860000000  0.5400930000000 1.0
C      1  0.5569690000000  0.5227660000000  0.4639170000000 1.0
END
