TITL C-26736-6558-60 -3.17998716094144 125000 -325.861355220499 0 0 60 (C1) n - 1
REM
REM in /home/nfs/bkarasulu/CARBON/AIRSS/Generating-Clusters/AIREBO/Higher-Symm/Only-C60
REM
REM
REM
REM
REM
REM ./C.cell (28575a23ae977d3b5fae324c64b13b57)
REM
REM compiler GCC version 9.2.1 20190827 (Red Hat 9.2.1-1)
REM options -cpp -mtune=generic -march=x86-64 -g -O0 -fpre-include=/usr/include/finclude/math-vector-fortran.h
REM seed -1088780303 572552083 1940399784 -1172890575 -1367995900 -653039636 -1678306236 -589285456 -49671967 1488079823 -1553477225 1730554468 -1652152871 -292466245 929920291 -2037708460 2046748645 2144324271 -236778082 -1198925309 710699670 -543921857 865442168 -1972298953 -1776156167 -1469677043 -1105111755 -83967490 -1793132905 -513341554 267728414 -656717504 379337928
REM
CELL 1.54180   50.00000   50.00000   50.00000   90.00000   90.00000   90.00000
LATT -1
SFAC C  
C      1  0.5065240000000  0.5144570000000  0.4856240000000 1.0
C      1  0.4153600000000  0.5234330000000  0.4284240000000 1.0
C      1  0.4916170000000  0.5100370000000  0.5591640000000 1.0
C      1  0.5215700000000  0.4730310000000  0.4545970000000 1.0
C      1  0.5452170000000  0.4788200000000  0.5282230000000 1.0
C      1  0.4205670000000  0.4790880000000  0.4969460000000 1.0
C      1  0.5000820000000  0.5266990000000  0.5361720000000 1.0
C      1  0.4459650000000  0.4666250000000  0.5397270000000 1.0
C      1  0.5140990000000  0.4715390000000  0.4848890000000 1.0
C      1  0.5459970000000  0.4887180000000  0.4572510000000 1.0
C      1  0.4688880000000  0.5554560000000  0.5010800000000 1.0
C      1  0.5888350000000  0.5295360000000  0.4665970000000 1.0
C      1  0.5430840000000  0.5167760000000  0.4547120000000 1.0
C      1  0.5544480000000  0.5609590000000  0.4720340000000 1.0
C      1  0.4994060000000  0.5605440000000  0.5393680000000 1.0
C      1  0.5708400000000  0.4610940000000  0.4886070000000 1.0
C      1  0.4497470000000  0.4932680000000  0.5451500000000 1.0
C      1  0.5302820000000  0.5519490000000  0.5392290000000 1.0
C      1  0.5155310000000  0.5230690000000  0.4565060000000 1.0
C      1  0.5248250000000  0.4563820000000  0.5700600000000 1.0
C      1  0.5614090000000  0.5332540000000  0.4738410000000 1.0
C      1  0.4442570000000  0.4144230000000  0.4801220000000 1.0
C      1  0.5877650000000  0.4581290000000  0.5106040000000 1.0
C      1  0.4869310000000  0.4933180000000  0.4218220000000 1.0
C      1  0.5234320000000  0.4577300000000  0.5386900000000 1.0
C      1  0.4808280000000  0.4970620000000  0.5137970000000 1.0
C      1  0.4284760000000  0.5027580000000  0.5004420000000 1.0
C      1  0.5568630000000  0.5233260000000  0.5029620000000 1.0
C      1  0.4956790000000  0.5993830000000  0.5057710000000 1.0
C      1  0.4978530000000  0.5441320000000  0.4156490000000 1.0
C      1  0.5244710000000  0.4438550000000  0.4944680000000 1.0
C      1  0.4652520000000  0.5173330000000  0.4452580000000 1.0
C      1  0.5790300000000  0.4762870000000  0.5306990000000 1.0
C      1  0.4530850000000  0.5643180000000  0.4803270000000 1.0
C      1  0.5063280000000  0.4873290000000  0.5291800000000 1.0
C      1  0.4618320000000  0.4420850000000  0.5269330000000 1.0
C      1  0.5279610000000  0.4957850000000  0.5043200000000 1.0
C      1  0.4892590000000  0.5756860000000  0.5140550000000 1.0
C      1  0.4804160000000  0.5047270000000  0.4661370000000 1.0
C      1  0.4694390000000  0.5492920000000  0.5483980000000 1.0
C      1  0.4823450000000  0.4671270000000  0.4289960000000 1.0
C      1  0.4951510000000  0.5230500000000  0.4337880000000 1.0
C      1  0.5524450000000  0.4825270000000  0.4847510000000 1.0
C      1  0.4650630000000  0.5066530000000  0.5647220000000 1.0
C      1  0.4959850000000  0.4576460000000  0.4520780000000 1.0
C      1  0.5676050000000  0.5014800000000  0.5163880000000 1.0
C      1  0.5301580000000  0.5262110000000  0.5194120000000 1.0
C      1  0.4546710000000  0.5404940000000  0.5257740000000 1.0
C      1  0.5065340000000  0.4841690000000  0.5630340000000 1.0
C      1  0.4802700000000  0.4505990000000  0.4810520000000 1.0
C      1  0.4511090000000  0.5110440000000  0.5197960000000 1.0
C      1  0.4873830000000  0.5294730000000  0.5058800000000 1.0
C      1  0.4399270000000  0.5215670000000  0.4373600000000 1.0
C      1  0.4834910000000  0.4819550000000  0.4874350000000 1.0
C      1  0.5007810000000  0.4635760000000  0.5896170000000 1.0
C      1  0.5119080000000  0.4381520000000  0.5183570000000 1.0
C      1  0.4520990000000  0.4379030000000  0.4884050000000 1.0
C      1  0.5496970000000  0.5610070000000  0.5537860000000 1.0
C      1  0.4844020000000  0.4381770000000  0.5119810000000 1.0
C      1  0.4355240000000  0.4554970000000  0.5095520000000 1.0
END
