TITL C-26728-8286-26 -0.000168187224128951 125000 -324.942426357785 0 0 60 (C1) n - 1
REM
REM in /home/nfs/bkarasulu/CARBON/AIRSS/Generating-Clusters/AIREBO/Higher-Symm/Only-C60
REM
REM
REM
REM
REM
REM ./C.cell (28575a23ae977d3b5fae324c64b13b57)
REM
REM compiler GCC version 9.2.1 20190827 (Red Hat 9.2.1-1)
REM options -cpp -mtune=generic -march=x86-64 -g -O0 -fpre-include=/usr/include/finclude/math-vector-fortran.h
REM seed 952424452 967925627 1212284643 -270551324 -1441143550 452292950 -34727432 1420076303 103153919 -452093059 1518112142 -1725261073 -149231173 1755860764 1076273364 -1668297973 -394662779 264852558 1441077317 343708307 851368811 -1697373764 342308635 -824045671 1681897498 -1000712828 -1883365045 -1455971883 257055089 1712984702 -3843891 -283504123 -1240146844
REM
CELL 1.54180   50.00000   50.00000   50.00000   90.00000   90.00000   90.00000
LATT -1
SFAC C  
C      1  0.5180070000000  0.4530250000000  0.5555900000000 1.0
C      1  0.5409930000000  0.4379080000000  0.4580000000000 1.0
C      1  0.4423050000000  0.4451560000000  0.4827060000000 1.0
C      1  0.4681030000000  0.5418680000000  0.5220170000000 1.0
C      1  0.5284170000000  0.5452130000000  0.5213810000000 1.0
C      1  0.4957290000000  0.5384780000000  0.4625270000000 1.0
C      1  0.5252480000000  0.5517990000000  0.4521650000000 1.0
C      1  0.4424110000000  0.5567000000000  0.5054380000000 1.0
C      1  0.5286820000000  0.5559850000000  0.5506620000000 1.0
C      1  0.4928390000000  0.5092550000000  0.5648080000000 1.0
C      1  0.5565280000000  0.5073230000000  0.4640190000000 1.0
C      1  0.4474000000000  0.5093330000000  0.4721810000000 1.0
C      1  0.4649170000000  0.5528720000000  0.4622730000000 1.0
C      1  0.4809300000000  0.5542760000000  0.5514760000000 1.0
C      1  0.5491290000000  0.5533040000000  0.4974470000000 1.0
C      1  0.5332810000000  0.4806960000000  0.5420210000000 1.0
C      1  0.5258100000000  0.4674860000000  0.4516890000000 1.0
C      1  0.4474130000000  0.4733280000000  0.5003520000000 1.0
C      1  0.5407520000000  0.4485290000000  0.5339180000000 1.0
C      1  0.5094160000000  0.4387400000000  0.4539410000000 1.0
C      1  0.4544900000000  0.4432090000000  0.5124110000000 1.0
C      1  0.5554160000000  0.4357150000000  0.4820830000000 1.0
C      1  0.4588740000000  0.4427910000000  0.4597080000000 1.0
C      1  0.4911190000000  0.4456280000000  0.5553390000000 1.0
C      1  0.5046220000000  0.5657730000000  0.5597570000000 1.0
C      1  0.5423300000000  0.5603930000000  0.4719370000000 1.0
C      1  0.4483580000000  0.5658750000000  0.4801550000000 1.0
C      1  0.5025750000000  0.4943340000000  0.5367210000000 1.0
C      1  0.5307750000000  0.4894400000000  0.4771750000000 1.0
C      1  0.4714870000000  0.4901530000000  0.4832130000000 1.0
C      1  0.5556060000000  0.4936250000000  0.5243040000000 1.0
C      1  0.5086630000000  0.4915660000000  0.4392980000000 1.0
C      1  0.4420640000000  0.4966390000000  0.5223910000000 1.0
C      1  0.4492650000000  0.5205360000000  0.5406250000000 1.0
C      1  0.5741840000000  0.5143630000000  0.5118010000000 1.0
C      1  0.4868590000000  0.5166420000000  0.4379440000000 1.0
C      1  0.4973960000000  0.4657370000000  0.5197810000000 1.0
C      1  0.5198940000000  0.4646420000000  0.4970550000000 1.0
C      1  0.4892720000000  0.4629720000000  0.4884570000000 1.0
C      1  0.5399400000000  0.4445400000000  0.5064100000000 1.0
C      1  0.4861280000000  0.4416290000000  0.4677570000000 1.0
C      1  0.4767710000000  0.4426980000000  0.5276160000000 1.0
C      1  0.4763740000000  0.4877470000000  0.4496450000000 1.0
C      1  0.4696000000000  0.4865000000000  0.5396060000000 1.0
C      1  0.5571380000000  0.4814360000000  0.4971060000000 1.0
C      1  0.4832270000000  0.5682130000000  0.5077640000000 1.0
C      1  0.5145690000000  0.5701040000000  0.5081750000000 1.0
C      1  0.4996040000000  0.5665050000000  0.4809420000000 1.0
C      1  0.4574960000000  0.4644300000000  0.4405980000000 1.0
C      1  0.4690710000000  0.4663420000000  0.5588440000000 1.0
C      1  0.5724510000000  0.4593740000000  0.4885900000000 1.0
C      1  0.4291640000000  0.5080780000000  0.4931910000000 1.0
C      1  0.5043470000000  0.5039790000000  0.5889570000000 1.0
C      1  0.5390310000000  0.5039410000000  0.4408550000000 1.0
C      1  0.4807430000000  0.5161490000000  0.5033090000000 1.0
C      1  0.5116740000000  0.5201010000000  0.5164770000000 1.0
C      1  0.5083130000000  0.5142860000000  0.4831460000000 1.0
C      1  0.4589770000000  0.5259010000000  0.4530460000000 1.0
C      1  0.4718630000000  0.5272970000000  0.5590230000000 1.0
C      1  0.5719610000000  0.5194430000000  0.4841780000000 1.0
END
