TITL C-26728-8286-40 -0.00023414591377216 125000 -329.593842842763 0 0 60 (C1) n - 1
REM
REM in /home/nfs/bkarasulu/CARBON/AIRSS/Generating-Clusters/AIREBO/Higher-Symm/Only-C60
REM
REM
REM
REM
REM
REM ./C.cell (28575a23ae977d3b5fae324c64b13b57)
REM
REM compiler GCC version 9.2.1 20190827 (Red Hat 9.2.1-1)
REM options -cpp -mtune=generic -march=x86-64 -g -O0 -fpre-include=/usr/include/finclude/math-vector-fortran.h
REM seed 1701472724 -1895635433 1150634625 2144735013 -1492564200 -1251511749 2137284594 1729437901 -702383120 -1523330794 1805164755 -1920195670 694804978 1930392033 682691883 -1018055756 1736473554 798921401 -702267587 597357192 -776328274 1978771515 -1646152438 696546225 1316221525 776408365 543622830 921518484 413935760 154573511 572390139 -554721141 445309961
REM
CELL 1.54180   50.00000   50.00000   50.00000   90.00000   90.00000   90.00000
LATT -1
SFAC C  
C      1  0.5000340000000  0.4307550000000  0.5344400000000 1.0
C      1  0.4956800000000  0.5224400000000  0.5681300000000 1.0
C      1  0.4991500000000  0.5716910000000  0.5097900000000 1.0
C      1  0.5024880000000  0.5311490000000  0.4334430000000 1.0
C      1  0.4976370000000  0.4395650000000  0.4514870000000 1.0
C      1  0.4549510000000  0.4581880000000  0.5491810000000 1.0
C      1  0.4523710000000  0.5416290000000  0.5498570000000 1.0
C      1  0.4498400000000  0.5666170000000  0.4865950000000 1.0
C      1  0.4533570000000  0.5077140000000  0.4389970000000 1.0
C      1  0.4452210000000  0.4375820000000  0.4675270000000 1.0
C      1  0.4815170000000  0.5161080000000  0.4425520000000 1.0
C      1  0.4747700000000  0.4466110000000  0.4659550000000 1.0
C      1  0.4797690000000  0.4488990000000  0.5365010000000 1.0
C      1  0.4768040000000  0.5285980000000  0.5480700000000 1.0
C      1  0.4781360000000  0.5590510000000  0.4965690000000 1.0
C      1  0.5037710000000  0.4818090000000  0.5430830000000 1.0
C      1  0.5110510000000  0.5298810000000  0.5275190000000 1.0
C      1  0.5085660000000  0.5333580000000  0.4728840000000 1.0
C      1  0.4988140000000  0.4794370000000  0.4522010000000 1.0
C      1  0.5006690000000  0.4469820000000  0.4979350000000 1.0
C      1  0.5235030000000  0.4327560000000  0.5167160000000 1.0
C      1  0.5144080000000  0.5017770000000  0.5644490000000 1.0
C      1  0.5183240000000  0.5581800000000  0.5250860000000 1.0
C      1  0.5228120000000  0.5462070000000  0.4487060000000 1.0
C      1  0.5214500000000  0.4565030000000  0.4446100000000 1.0
C      1  0.5479240000000  0.4640740000000  0.4451290000000 1.0
C      1  0.5502840000000  0.4362750000000  0.5130560000000 1.0
C      1  0.5423010000000  0.5004530000000  0.5670540000000 1.0
C      1  0.5454930000000  0.5631300000000  0.5287290000000 1.0
C      1  0.5497830000000  0.5510890000000  0.4515830000000 1.0
C      1  0.4266120000000  0.5361620000000  0.5429260000000 1.0
C      1  0.4499430000000  0.5378090000000  0.4779760000000 1.0
C      1  0.4422310000000  0.4974060000000  0.4645220000000 1.0
C      1  0.4444890000000  0.4591840000000  0.4887090000000 1.0
C      1  0.4438910000000  0.4816310000000  0.5352050000000 1.0
C      1  0.5782330000000  0.4800150000000  0.5073410000000 1.0
C      1  0.5760620000000  0.5024320000000  0.5255220000000 1.0
C      1  0.5776050000000  0.5266870000000  0.5097300000000 1.0
C      1  0.5784220000000  0.5191860000000  0.4818060000000 1.0
C      1  0.5782330000000  0.4903010000000  0.4802060000000 1.0
C      1  0.4821730000000  0.5135480000000  0.5200630000000 1.0
C      1  0.4796310000000  0.5252630000000  0.4888200000000 1.0
C      1  0.4759300000000  0.4970560000000  0.4701710000000 1.0
C      1  0.4766580000000  0.4700010000000  0.4907930000000 1.0
C      1  0.4761570000000  0.4800410000000  0.5233020000000 1.0
C      1  0.5682700000000  0.5511210000000  0.5196410000000 1.0
C      1  0.5708550000000  0.5371330000000  0.4618130000000 1.0
C      1  0.5689530000000  0.4741290000000  0.4592500000000 1.0
C      1  0.5710230000000  0.4537430000000  0.5132750000000 1.0
C      1  0.5642880000000  0.5020800000000  0.5509380000000 1.0
C      1  0.5156060000000  0.5019280000000  0.4697090000000 1.0
C      1  0.5153270000000  0.4718280000000  0.4809470000000 1.0
C      1  0.5141260000000  0.4733270000000  0.5128230000000 1.0
C      1  0.5273880000000  0.5000560000000  0.5267570000000 1.0
C      1  0.5167440000000  0.5147310000000  0.4993140000000 1.0
C      1  0.4191250000000  0.4995840000000  0.4790920000000 1.0
C      1  0.4119990000000  0.4797740000000  0.4995490000000 1.0
C      1  0.4203730000000  0.4910340000000  0.5249860000000 1.0
C      1  0.4162360000000  0.5199000000000  0.5228280000000 1.0
C      1  0.4125450000000  0.5244030000000  0.4941510000000 1.0
END
