TITL C-26727-7196-130 0.00894017715331279 125000 -326.119301532366 0 0 60 (C1) n - 1
REM
REM in /home/nfs/bkarasulu/CARBON/AIRSS/Generating-Clusters/AIREBO/Higher-Symm/Only-C60
REM
REM
REM
REM
REM
REM ./C.cell (28575a23ae977d3b5fae324c64b13b57)
REM
REM compiler GCC version 9.2.1 20190827 (Red Hat 9.2.1-1)
REM options -cpp -mtune=generic -march=x86-64 -g -O0 -fpre-include=/usr/include/finclude/math-vector-fortran.h
REM seed 906627639 -901755419 -401034396 -1472698467 1642864838 -1385567396 1636302160 1355077192 1823357786 -285275409 -1422506025 1589732248 -525549359 812851625 -1692040673 1502395267 -1943927715 -1186625337 -2033056760 773723263 -1387406753 -389014783 -1450480952 -279777727 1093100171 1433921930 747317326 -466425334 -130732616 1279351057 -2021203490 -1198283838 -323902450
REM
CELL 1.54180   50.00000   50.00000   50.00000   90.00000   90.00000   90.00000
LATT -1
SFAC C  
C      1  0.5600300000000  0.5281540000000  0.5332650000000 1.0
C      1  0.5881930000000  0.4313850000000  0.5013530000000 1.0
C      1  0.5054770000000  0.4110870000000  0.5263280000000 1.0
C      1  0.4610010000000  0.4480770000000  0.5379550000000 1.0
C      1  0.4194210000000  0.4988390000000  0.5181500000000 1.0
C      1  0.4378850000000  0.5539280000000  0.5323900000000 1.0
C      1  0.5121570000000  0.5664070000000  0.5278050000000 1.0
C      1  0.5158010000000  0.4630930000000  0.5192510000000 1.0
C      1  0.4486330000000  0.4972060000000  0.5297380000000 1.0
C      1  0.4521320000000  0.5275610000000  0.5447130000000 1.0
C      1  0.4767970000000  0.5447610000000  0.5320950000000 1.0
C      1  0.5226340000000  0.5225060000000  0.5208460000000 1.0
C      1  0.5424790000000  0.4926090000000  0.5280670000000 1.0
C      1  0.5473570000000  0.4637940000000  0.5106810000000 1.0
C      1  0.5555210000000  0.4869690000000  0.4601850000000 1.0
C      1  0.5262240000000  0.4427930000000  0.4560960000000 1.0
C      1  0.4777020000000  0.4529940000000  0.4658570000000 1.0
C      1  0.4474810000000  0.4851530000000  0.4568670000000 1.0
C      1  0.4573670000000  0.5329510000000  0.4509760000000 1.0
C      1  0.4977540000000  0.5555910000000  0.4554490000000 1.0
C      1  0.5428690000000  0.5371520000000  0.4610260000000 1.0
C      1  0.5052100000000  0.5377100000000  0.4961770000000 1.0
C      1  0.5390590000000  0.4976220000000  0.4949370000000 1.0
C      1  0.5242750000000  0.4723420000000  0.4818650000000 1.0
C      1  0.4933530000000  0.4645660000000  0.4937480000000 1.0
C      1  0.4684200000000  0.4852990000000  0.5044750000000 1.0
C      1  0.4569540000000  0.5149540000000  0.4949540000000 1.0
C      1  0.4731320000000  0.5443340000000  0.4982930000000 1.0
C      1  0.4769050000000  0.5174720000000  0.4350620000000 1.0
C      1  0.5020710000000  0.5336600000000  0.4362050000000 1.0
C      1  0.5289550000000  0.5242140000000  0.4383060000000 1.0
C      1  0.5310410000000  0.4919730000000  0.4411380000000 1.0
C      1  0.5148590000000  0.4641940000000  0.4386200000000 1.0
C      1  0.4872770000000  0.4669600000000  0.4416650000000 1.0
C      1  0.4702510000000  0.4890240000000  0.4382760000000 1.0
C      1  0.5052260000000  0.5427170000000  0.5497440000000 1.0
C      1  0.5324850000000  0.5225500000000  0.5524070000000 1.0
C      1  0.5247870000000  0.4897420000000  0.5569630000000 1.0
C      1  0.5049530000000  0.4734720000000  0.5673730000000 1.0
C      1  0.4767580000000  0.4637280000000  0.5570830000000 1.0
C      1  0.4681410000000  0.4925360000000  0.5548240000000 1.0
C      1  0.4729460000000  0.5217980000000  0.5707410000000 1.0
C      1  0.4716860000000  0.5522490000000  0.4665270000000 1.0
C      1  0.5224280000000  0.5566390000000  0.4765840000000 1.0
C      1  0.5588690000000  0.5159050000000  0.4777270000000 1.0
C      1  0.5518850000000  0.4567200000000  0.4715930000000 1.0
C      1  0.5072000000000  0.4363380000000  0.4804370000000 1.0
C      1  0.4501730000000  0.4620950000000  0.4776930000000 1.0
C      1  0.4402330000000  0.5129110000000  0.4668100000000 1.0
C      1  0.5680550000000  0.4466520000000  0.4961230000000 1.0
C      1  0.5084720000000  0.4321660000000  0.5115240000000 1.0
C      1  0.4558570000000  0.4559910000000  0.5106590000000 1.0
C      1  0.4229410000000  0.5137310000000  0.4940610000000 1.0
C      1  0.4467510000000  0.5623300000000  0.5099630000000 1.0
C      1  0.5222760000000  0.5724620000000  0.5057840000000 1.0
C      1  0.5664850000000  0.5226420000000  0.5097550000000 1.0
C      1  0.4933170000000  0.5112000000000  0.5450890000000 1.0
C      1  0.5043000000000  0.5010780000000  0.4592980000000 1.0
C      1  0.5091750000000  0.5083930000000  0.4864510000000 1.0
C      1  0.5044290000000  0.4948340000000  0.5173720000000 1.0
END
