TITL C-26732-6566-163 -0.108193611539658 125000 -316.544418502582 0 0 60 (C1) n - 1
REM
REM in /home/nfs/bkarasulu/CARBON/AIRSS/Generating-Clusters/AIREBO/Higher-Symm/Only-C60
REM
REM
REM
REM
REM
REM ./C.cell (28575a23ae977d3b5fae324c64b13b57)
REM
REM compiler GCC version 9.2.1 20190827 (Red Hat 9.2.1-1)
REM options -cpp -mtune=generic -march=x86-64 -g -O0 -fpre-include=/usr/include/finclude/math-vector-fortran.h
REM seed 597529652 548852973 2142719916 34403367 784065006 -1356982012 -274100064 -352132544 -583114635 484325030 -1720257113 683583378 238210984 1604471584 737770075 240051737 2146156574 -313388364 -736572493 1547307550 -105604010 -1058714340 -2033984366 -1251479962 1778451406 -879631079 698889833 -1413591153 -381597915 1125654216 -1551294739 937197550 231914781
REM
CELL 1.54180   50.00000   50.00000   50.00000   90.00000   90.00000   90.00000
LATT -1
SFAC C  
C      1  0.5071100000000  0.5629280000000  0.4866020000000 1.0
C      1  0.5131490000000  0.4359640000000  0.5090450000000 1.0
C      1  0.4906140000000  0.5684520000000  0.5153610000000 1.0
C      1  0.4857280000000  0.4362230000000  0.4906150000000 1.0
C      1  0.4498910000000  0.4965630000000  0.4828440000000 1.0
C      1  0.4576180000000  0.5129690000000  0.5078930000000 1.0
C      1  0.5600770000000  0.4975390000000  0.5098430000000 1.0
C      1  0.5652790000000  0.5098880000000  0.4837000000000 1.0
C      1  0.5622890000000  0.5381140000000  0.4862280000000 1.0
C      1  0.5603930000000  0.4680960000000  0.5253400000000 1.0
C      1  0.4430850000000  0.5442350000000  0.5278550000000 1.0
C      1  0.4445900000000  0.4653130000000  0.4760980000000 1.0
C      1  0.5309520000000  0.4579350000000  0.5258040000000 1.0
C      1  0.5315960000000  0.5414580000000  0.4793010000000 1.0
C      1  0.4748300000000  0.4583830000000  0.4686140000000 1.0
C      1  0.4752730000000  0.5430640000000  0.5319890000000 1.0
C      1  0.5012430000000  0.4843420000000  0.4334760000000 1.0
C      1  0.5153330000000  0.5114460000000  0.5660660000000 1.0
C      1  0.4865210000000  0.4967850000000  0.5550680000000 1.0
C      1  0.4848430000000  0.5092040000000  0.4359050000000 1.0
C      1  0.5293060000000  0.5310090000000  0.5276300000000 1.0
C      1  0.5279150000000  0.4725570000000  0.4751940000000 1.0
C      1  0.4668750000000  0.5309970000000  0.4720240000000 1.0
C      1  0.4579300000000  0.4547940000000  0.5293550000000 1.0
C      1  0.5537580000000  0.5485760000000  0.5118290000000 1.0
C      1  0.5559670000000  0.4619070000000  0.4921980000000 1.0
C      1  0.4430550000000  0.5605510000000  0.5027460000000 1.0
C      1  0.4383030000000  0.4505720000000  0.5018960000000 1.0
C      1  0.5027150000000  0.4492410000000  0.5525270000000 1.0
C      1  0.4987720000000  0.5319740000000  0.4453350000000 1.0
C      1  0.5052520000000  0.4356020000000  0.4383450000000 1.0
C      1  0.5022120000000  0.5576110000000  0.5702950000000 1.0
C      1  0.5123590000000  0.5584140000000  0.5390450000000 1.0
C      1  0.5119410000000  0.4430240000000  0.4697640000000 1.0
C      1  0.4848740000000  0.5573100000000  0.4634670000000 1.0
C      1  0.4871740000000  0.4374660000000  0.5304050000000 1.0
C      1  0.5102740000000  0.5254990000000  0.4999980000000 1.0
C      1  0.5128690000000  0.4755360000000  0.5042270000000 1.0
C      1  0.4819190000000  0.5316840000000  0.5025740000000 1.0
C      1  0.4850460000000  0.4765110000000  0.4952140000000 1.0
C      1  0.5283000000000  0.4974800000000  0.5219970000000 1.0
C      1  0.5153260000000  0.5041570000000  0.4758480000000 1.0
C      1  0.4828030000000  0.5019660000000  0.4762270000000 1.0
C      1  0.4666820000000  0.4844780000000  0.5170610000000 1.0
C      1  0.5617000000000  0.4967870000000  0.5438020000000 1.0
C      1  0.5518550000000  0.5012920000000  0.4603300000000 1.0
C      1  0.4361860000000  0.4893960000000  0.4533670000000 1.0
C      1  0.4491970000000  0.5128830000000  0.5390100000000 1.0
C      1  0.4677640000000  0.5671100000000  0.4912600000000 1.0
C      1  0.4604730000000  0.4262060000000  0.5111070000000 1.0
C      1  0.5299530000000  0.5675150000000  0.5114180000000 1.0
C      1  0.5384450000000  0.4362400000000  0.4881760000000 1.0
C      1  0.4891620000000  0.5304200000000  0.5555230000000 1.0
C      1  0.4887510000000  0.4596710000000  0.4418300000000 1.0
C      1  0.5282450000000  0.5241340000000  0.4515480000000 1.0
C      1  0.5111250000000  0.4781460000000  0.5446420000000 1.0
C      1  0.4576590000000  0.5105400000000  0.4464500000000 1.0
C      1  0.4564770000000  0.4815870000000  0.5502610000000 1.0
C      1  0.5421880000000  0.5152960000000  0.5548940000000 1.0
C      1  0.5287780000000  0.4849600000000  0.4435370000000 1.0
END
