TITL C-26731-8310-82 0.00289999657573753 125000 -303.941375201281 0 0 60 (C1) n - 1
REM
REM in /home/nfs/bkarasulu/CARBON/AIRSS/Generating-Clusters/AIREBO/Higher-Symm/Only-C60
REM
REM
REM
REM
REM
REM ./C.cell (28575a23ae977d3b5fae324c64b13b57)
REM
REM compiler GCC version 9.2.1 20190827 (Red Hat 9.2.1-1)
REM options -cpp -mtune=generic -march=x86-64 -g -O0 -fpre-include=/usr/include/finclude/math-vector-fortran.h
REM seed -1269135839 644272625 -911072455 1303010355 850408964 1676938829 -1155825161 1668242999 697661475 -699801179 -132036845 -1256728485 -1387587328 29445952 836562687 1295804572 1051329156 -1361348165 106653908 -623074930 601904531 55175659 1764164241 -1976152771 222326275 -1061246852 -1379826741 -2115468278 -2016940561 -1397238251 2041644344 288183738 1358739028
REM
CELL 1.54180   50.00000   50.00000   50.00000   90.00000   90.00000   90.00000
LATT -1
SFAC C  
C      1  0.4645750000000  0.4428670000000  0.4989440000000 1.0
C      1  0.4821020000000  0.4857200000000  0.5522520000000 1.0
C      1  0.4763250000000  0.5178210000000  0.5624700000000 1.0
C      1  0.4804870000000  0.5492530000000  0.4995080000000 1.0
C      1  0.4734400000000  0.5407320000000  0.4673470000000 1.0
C      1  0.4707510000000  0.4986580000000  0.4344580000000 1.0
C      1  0.4803770000000  0.4587010000000  0.4733350000000 1.0
C      1  0.5060100000000  0.5351690000000  0.4728420000000 1.0
C      1  0.4954660000000  0.5092130000000  0.4552910000000 1.0
C      1  0.4965570000000  0.4878650000000  0.4799500000000 1.0
C      1  0.5163040000000  0.4655140000000  0.5076140000000 1.0
C      1  0.5114950000000  0.4777510000000  0.5365570000000 1.0
C      1  0.5114440000000  0.5112730000000  0.5383230000000 1.0
C      1  0.4966090000000  0.5213400000000  0.5103390000000 1.0
C      1  0.5531130000000  0.5329750000000  0.5022850000000 1.0
C      1  0.5573540000000  0.5109830000000  0.4775610000000 1.0
C      1  0.5545940000000  0.4820540000000  0.4724750000000 1.0
C      1  0.5696230000000  0.4638660000000  0.4920620000000 1.0
C      1  0.5684350000000  0.4667440000000  0.5249390000000 1.0
C      1  0.5692810000000  0.4980770000000  0.5344780000000 1.0
C      1  0.5618350000000  0.5243500000000  0.5298020000000 1.0
C      1  0.5175570000000  0.5278940000000  0.4356980000000 1.0
C      1  0.5179690000000  0.4708310000000  0.4352970000000 1.0
C      1  0.5122840000000  0.4353180000000  0.4925020000000 1.0
C      1  0.5101040000000  0.4473550000000  0.5517340000000 1.0
C      1  0.5147080000000  0.5000960000000  0.5702790000000 1.0
C      1  0.5178020000000  0.5578300000000  0.5440240000000 1.0
C      1  0.5128030000000  0.5675760000000  0.4788650000000 1.0
C      1  0.4662200000000  0.5756010000000  0.4880710000000 1.0
C      1  0.4671630000000  0.5340530000000  0.4420130000000 1.0
C      1  0.4678690000000  0.4709410000000  0.4292920000000 1.0
C      1  0.4691910000000  0.4285510000000  0.4620630000000 1.0
C      1  0.4626170000000  0.4461810000000  0.5261650000000 1.0
C      1  0.4793140000000  0.4898360000000  0.5857800000000 1.0
C      1  0.4693470000000  0.5423050000000  0.5490620000000 1.0
C      1  0.4880050000000  0.5543760000000  0.5310320000000 1.0
C      1  0.4867010000000  0.5868060000000  0.4756650000000 1.0
C      1  0.4887620000000  0.5223770000000  0.4184800000000 1.0
C      1  0.4896680000000  0.4554020000000  0.4407930000000 1.0
C      1  0.4849660000000  0.4220190000000  0.4880880000000 1.0
C      1  0.4793860000000  0.4553320000000  0.5445530000000 1.0
C      1  0.4953640000000  0.5193000000000  0.5906090000000 1.0
C      1  0.5444020000000  0.4797640000000  0.5449590000000 1.0
C      1  0.5378410000000  0.5304210000000  0.5455360000000 1.0
C      1  0.5233920000000  0.5421390000000  0.5077870000000 1.0
C      1  0.5397720000000  0.5390070000000  0.4715930000000 1.0
C      1  0.5480350000000  0.4694430000000  0.4432820000000 1.0
C      1  0.5248230000000  0.4694310000000  0.4757220000000 1.0
C      1  0.5457170000000  0.4485410000000  0.5093660000000 1.0
C      1  0.5110950000000  0.5713330000000  0.5126980000000 1.0
C      1  0.5262970000000  0.5581350000000  0.4485880000000 1.0
C      1  0.5118240000000  0.4975360000000  0.4212320000000 1.0
C      1  0.5150310000000  0.4443190000000  0.4596450000000 1.0
C      1  0.5228900000000  0.4305500000000  0.5250280000000 1.0
C      1  0.5189700000000  0.4707020000000  0.5749620000000 1.0
C      1  0.5154010000000  0.5353380000000  0.5696860000000 1.0
C      1  0.4724200000000  0.5009720000000  0.4998580000000 1.0
C      1  0.5215810000000  0.5021380000000  0.4980540000000 1.0
C      1  0.4209970000000  0.4984250000000  0.5079190000000 1.0
C      1  0.4466350000000  0.5005520000000  0.5029270000000 1.0
END
