TITL C-26728-8286-35 0.00394664421224618 125000 -333.840115017697 0 0 60 (C1) n - 1
REM
REM in /home/nfs/bkarasulu/CARBON/AIRSS/Generating-Clusters/AIREBO/Higher-Symm/Only-C60
REM
REM
REM
REM
REM
REM ./C.cell (28575a23ae977d3b5fae324c64b13b57)
REM
REM compiler GCC version 9.2.1 20190827 (Red Hat 9.2.1-1)
REM options -cpp -mtune=generic -march=x86-64 -g -O0 -fpre-include=/usr/include/finclude/math-vector-fortran.h
REM seed 363695914 470664170 -1947587453 -924912795 -281390909 634701460 -1051217105 1177219189 774609445 -837274176 1874603464 -1037491930 -985325808 1005506707 1640880460 -1270740873 -1125054611 -1049337715 -45107289 -776497875 -35065667 -168279304 -587092916 -747139125 -1843097094 -2010334593 -1367167991 -1129060395 73408990 -517059384 -1182712487 113595641 557533754
REM
CELL 1.54180   50.00000   50.00000   50.00000   90.00000   90.00000   90.00000
LATT -1
SFAC C  
C      1  0.4861660000000  0.5483620000000  0.4532220000000 1.0
C      1  0.5632240000000  0.4729930000000  0.5201850000000 1.0
C      1  0.4691560000000  0.5090500000000  0.5801210000000 1.0
C      1  0.4634770000000  0.4390470000000  0.4767790000000 1.0
C      1  0.5402480000000  0.5518740000000  0.4784550000000 1.0
C      1  0.5005050000000  0.5019290000000  0.4345720000000 1.0
C      1  0.4963500000000  0.5282320000000  0.4280410000000 1.0
C      1  0.5368650000000  0.4545640000000  0.4789010000000 1.0
C      1  0.4629270000000  0.4841150000000  0.5706470000000 1.0
C      1  0.4528630000000  0.4705550000000  0.5121300000000 1.0
C      1  0.4637800000000  0.5264710000000  0.4636430000000 1.0
C      1  0.4873470000000  0.5237890000000  0.5664090000000 1.0
C      1  0.4486750000000  0.4461690000000  0.4984950000000 1.0
C      1  0.4987320000000  0.5727180000000  0.5564970000000 1.0
C      1  0.4653250000000  0.5319630000000  0.5186720000000 1.0
C      1  0.5219010000000  0.5336730000000  0.5221370000000 1.0
C      1  0.5326870000000  0.4646870000000  0.5661920000000 1.0
C      1  0.5407030000000  0.4905490000000  0.5721220000000 1.0
C      1  0.5458970000000  0.4801240000000  0.4668270000000 1.0
C      1  0.5354110000000  0.4585560000000  0.5108700000000 1.0
C      1  0.4831690000000  0.4777350000000  0.5234160000000 1.0
C      1  0.4764850000000  0.5663480000000  0.5018110000000 1.0
C      1  0.4754820000000  0.4636930000000  0.4617530000000 1.0
C      1  0.5170500000000  0.5489810000000  0.4372550000000 1.0
C      1  0.4585940000000  0.4817790000000  0.4390790000000 1.0
C      1  0.4432510000000  0.5359880000000  0.4856100000000 1.0
C      1  0.4959350000000  0.5348660000000  0.5440960000000 1.0
C      1  0.5250660000000  0.5646150000000  0.5601040000000 1.0
C      1  0.4907960000000  0.4836790000000  0.4846330000000 1.0
C      1  0.4393380000000  0.5160950000000  0.5072360000000 1.0
C      1  0.5442590000000  0.5162270000000  0.5637510000000 1.0
C      1  0.5477350000000  0.4702200000000  0.4396870000000 1.0
C      1  0.5019990000000  0.4580590000000  0.5628440000000 1.0
C      1  0.4790270000000  0.5599200000000  0.5335820000000 1.0
C      1  0.5347410000000  0.5393380000000  0.5512500000000 1.0
C      1  0.5212050000000  0.5721500000000  0.4828030000000 1.0
C      1  0.5387710000000  0.4992020000000  0.4907060000000 1.0
C      1  0.4852730000000  0.4797810000000  0.4266700000000 1.0
C      1  0.5105990000000  0.4977620000000  0.4608500000000 1.0
C      1  0.4807810000000  0.4718810000000  0.5532540000000 1.0
C      1  0.4074870000000  0.4832170000000  0.5204630000000 1.0
C      1  0.4900050000000  0.4544500000000  0.5020310000000 1.0
C      1  0.4950610000000  0.5672550000000  0.4772380000000 1.0
C      1  0.4952030000000  0.5380770000000  0.5044650000000 1.0
C      1  0.5748460000000  0.5257050000000  0.5124100000000 1.0
C      1  0.5412860000000  0.5461490000000  0.4509280000000 1.0
C      1  0.4474250000000  0.5619200000000  0.4930040000000 1.0
C      1  0.5436310000000  0.5312430000000  0.5000600000000 1.0
C      1  0.4490890000000  0.5063290000000  0.4449850000000 1.0
C      1  0.5140970000000  0.4850340000000  0.5093670000000 1.0
C      1  0.5642510000000  0.4986620000000  0.5101980000000 1.0
C      1  0.4981740000000  0.4535150000000  0.4365080000000 1.0
C      1  0.5209780000000  0.4481430000000  0.5391790000000 1.0
C      1  0.5135280000000  0.4393720000000  0.4628130000000 1.0
C      1  0.5309800000000  0.4488400000000  0.4350160000000 1.0
C      1  0.4327310000000  0.4901280000000  0.5138430000000 1.0
C      1  0.4942980000000  0.4275230000000  0.4829800000000 1.0
C      1  0.5086720000000  0.4290120000000  0.5139050000000 1.0
C      1  0.4758890000000  0.5135700000000  0.4912850000000 1.0
C      1  0.5405740000000  0.4241190000000  0.5140170000000 1.0
END
