TITL C-26729-7230-87 -0.00423149473622816 125000 -275.000099777786 0 0 60 (C1) n - 1
REM
REM in /home/nfs/bkarasulu/CARBON/AIRSS/Generating-Clusters/AIREBO/Higher-Symm/Only-C60
REM
REM
REM
REM
REM
REM ./C.cell (28575a23ae977d3b5fae324c64b13b57)
REM
REM compiler GCC version 9.2.1 20190827 (Red Hat 9.2.1-1)
REM options -cpp -mtune=generic -march=x86-64 -g -O0 -fpre-include=/usr/include/finclude/math-vector-fortran.h
REM seed -1872719260 -991318394 -608435364 -267147437 -1421984012 1933295271 -317948435 537979670 950762355 791909414 -321384988 1856419491 918872858 908713798 776653996 -891364150 -1482411977 -660578981 -524441406 2026971091 81712241 -219776884 -1994452869 1437219329 726116979 84154232 988725058 1232197678 -294365616 1569191792 1449323803 -1781066644 -2051732978
REM
CELL 1.54180   50.00000   50.00000   50.00000   90.00000   90.00000   90.00000
LATT -1
SFAC C  
C      1  0.4840550000000  0.5594690000000  0.5397010000000 1.0
C      1  0.4620360000000  0.5585180000000  0.5137150000000 1.0
C      1  0.4687480000000  0.5597150000000  0.4795230000000 1.0
C      1  0.4972510000000  0.5604200000000  0.4563080000000 1.0
C      1  0.5287850000000  0.5597760000000  0.4705320000000 1.0
C      1  0.5390150000000  0.5629560000000  0.5029420000000 1.0
C      1  0.5154560000000  0.5656850000000  0.5278390000000 1.0
C      1  0.5112940000000  0.4734270000000  0.4383280000000 1.0
C      1  0.5598600000000  0.4881410000000  0.4687320000000 1.0
C      1  0.5644680000000  0.4764350000000  0.5119050000000 1.0
C      1  0.5279370000000  0.4824130000000  0.5566880000000 1.0
C      1  0.4730380000000  0.4741440000000  0.5529320000000 1.0
C      1  0.4376640000000  0.4763660000000  0.5192670000000 1.0
C      1  0.4474050000000  0.4783650000000  0.4601730000000 1.0
C      1  0.5498270000000  0.5353510000000  0.4565790000000 1.0
C      1  0.5640900000000  0.5389020000000  0.5082730000000 1.0
C      1  0.5473250000000  0.5267340000000  0.5595790000000 1.0
C      1  0.4784700000000  0.5327030000000  0.5619060000000 1.0
C      1  0.4358530000000  0.5363780000000  0.5207000000000 1.0
C      1  0.4465310000000  0.5403070000000  0.4624710000000 1.0
C      1  0.4983630000000  0.5376250000000  0.4297710000000 1.0
C      1  0.5614100000000  0.5058900000000  0.5126850000000 1.0
C      1  0.5442950000000  0.5004880000000  0.5682170000000 1.0
C      1  0.4701590000000  0.5052310000000  0.5664060000000 1.0
C      1  0.4356450000000  0.5056670000000  0.5144090000000 1.0
C      1  0.4465560000000  0.5129870000000  0.4560440000000 1.0
C      1  0.5076680000000  0.5069660000000  0.4339600000000 1.0
C      1  0.5667130000000  0.5131770000000  0.4556900000000 1.0
C      1  0.5101210000000  0.4945850000000  0.4655420000000 1.0
C      1  0.5351760000000  0.4918460000000  0.4862000000000 1.0
C      1  0.5298230000000  0.4949350000000  0.5189620000000 1.0
C      1  0.5036680000000  0.4961920000000  0.5406780000000 1.0
C      1  0.4721340000000  0.4946260000000  0.5279720000000 1.0
C      1  0.4622580000000  0.4969010000000  0.4954660000000 1.0
C      1  0.4754010000000  0.4968070000000  0.4639430000000 1.0
C      1  0.4682860000000  0.5266340000000  0.5237790000000 1.0
C      1  0.4725460000000  0.5281210000000  0.4900730000000 1.0
C      1  0.4865430000000  0.5283950000000  0.4602850000000 1.0
C      1  0.5194720000000  0.5271270000000  0.4686750000000 1.0
C      1  0.5324000000000  0.5297310000000  0.5000350000000 1.0
C      1  0.5330120000000  0.5370900000000  0.5333610000000 1.0
C      1  0.5001130000000  0.5296990000000  0.5361180000000 1.0
C      1  0.4873110000000  0.4576580000000  0.5267310000000 1.0
C      1  0.4593900000000  0.4588440000000  0.5073340000000 1.0
C      1  0.4518350000000  0.4553240000000  0.4756930000000 1.0
C      1  0.5160790000000  0.4550390000000  0.4660390000000 1.0
C      1  0.5476320000000  0.4572770000000  0.4761150000000 1.0
C      1  0.5434350000000  0.4507930000000  0.5092500000000 1.0
C      1  0.5203310000000  0.4601300000000  0.5360700000000 1.0
C      1  0.5174120000000  0.4100430000000  0.4857220000000 1.0
C      1  0.5316100000000  0.4194830000000  0.5086190000000 1.0
C      1  0.5151000000000  0.4292940000000  0.5308230000000 1.0
C      1  0.4854200000000  0.4239870000000  0.5304770000000 1.0
C      1  0.4693940000000  0.4148210000000  0.5097970000000 1.0
C      1  0.4722410000000  0.4321440000000  0.4847580000000 1.0
C      1  0.4996650000000  0.4272740000000  0.4721570000000 1.0
C      1  0.4997410000000  0.4592300000000  0.4951010000000 1.0
C      1  0.5020410000000  0.5193100000000  0.5037980000000 1.0
C      1  0.5003020000000  0.5532670000000  0.5039280000000 1.0
C      1  0.5005710000000  0.4874150000000  0.5036090000000 1.0
END
