TITL C-26726-4881-154 -0.000222431956618448 125000 -342.581824746466 0 0 60 (C1) n - 1
REM
REM in /home/nfs/bkarasulu/CARBON/AIRSS/Generating-Clusters/AIREBO/Higher-Symm/Only-C60
REM
REM
REM
REM
REM
REM ./C.cell (28575a23ae977d3b5fae324c64b13b57)
REM
REM compiler GCC version 9.2.1 20190827 (Red Hat 9.2.1-1)
REM options -cpp -mtune=generic -march=x86-64 -g -O0 -fpre-include=/usr/include/finclude/math-vector-fortran.h
REM seed -820988607 -1051018272 -1535937193 -635035792 557340588 2031453666 542235272 494626490 1735649349 -927577478 -973022161 -737784382 -1859726743 -1654626151 -2052526756 1063166643 57629858 619632684 -1724241501 -284224469 379423015 -1892460615 982872527 -1923220487 709740509 1325560792 455813662 1286488552 1335735115 -695973720 -1599008865 72902003 1851319194
REM
CELL 1.54180   50.00000   50.00000   50.00000   90.00000   90.00000   90.00000
LATT -1
SFAC C  
C      1  0.4962900000000  0.5590930000000  0.5293800000000 1.0
C      1  0.5240570000000  0.5593330000000  0.5229170000000 1.0
C      1  0.5296980000000  0.5606910000000  0.4948130000000 1.0
C      1  0.5114470000000  0.5763270000000  0.4793740000000 1.0
C      1  0.4842520000000  0.5695330000000  0.4847850000000 1.0
C      1  0.4791930000000  0.5743520000000  0.5125000000000 1.0
C      1  0.4784420000000  0.4350790000000  0.5176710000000 1.0
C      1  0.5036840000000  0.4368740000000  0.5300350000000 1.0
C      1  0.5247630000000  0.4284620000000  0.5131490000000 1.0
C      1  0.5228350000000  0.4382500000000  0.4867370000000 1.0
C      1  0.4980250000000  0.4338060000000  0.4742530000000 1.0
C      1  0.4786810000000  0.4230910000000  0.4919860000000 1.0
C      1  0.5355380000000  0.5344630000000  0.4811550000000 1.0
C      1  0.5072910000000  0.5289140000000  0.4650990000000 1.0
C      1  0.4766670000000  0.5390690000000  0.4763800000000 1.0
C      1  0.4724790000000  0.5248430000000  0.5071290000000 1.0
C      1  0.4842650000000  0.5326240000000  0.5381070000000 1.0
C      1  0.5442350000000  0.5485400000000  0.5397220000000 1.0
C      1  0.5345500000000  0.4656850000000  0.4808650000000 1.0
C      1  0.4895050000000  0.4567460000000  0.4560310000000 1.0
C      1  0.4612220000000  0.4690030000000  0.4651090000000 1.0
C      1  0.4624610000000  0.4606530000000  0.5205430000000 1.0
C      1  0.5076850000000  0.4634000000000  0.5443350000000 1.0
C      1  0.5338000000000  0.4780210000000  0.5341870000000 1.0
C      1  0.5468690000000  0.5063880000000  0.4437620000000 1.0
C      1  0.4829240000000  0.5190720000000  0.4222520000000 1.0
C      1  0.4315910000000  0.5150470000000  0.4819430000000 1.0
C      1  0.4414660000000  0.5057940000000  0.5457260000000 1.0
C      1  0.5145490000000  0.5204320000000  0.5785790000000 1.0
C      1  0.5697760000000  0.5179380000000  0.5135240000000 1.0
C      1  0.5636300000000  0.4836000000000  0.4438400000000 1.0
C      1  0.4761070000000  0.4853680000000  0.4179560000000 1.0
C      1  0.4168000000000  0.4961620000000  0.4667370000000 1.0
C      1  0.4269750000000  0.4820350000000  0.5490030000000 1.0
C      1  0.5235920000000  0.4901790000000  0.5825100000000 1.0
C      1  0.5820050000000  0.4953110000000  0.5255180000000 1.0
C      1  0.4294980000000  0.4734300000000  0.4569300000000 1.0
C      1  0.4354380000000  0.4590410000000  0.5361970000000 1.0
C      1  0.5114920000000  0.4652030000000  0.5758420000000 1.0
C      1  0.5665430000000  0.4760060000000  0.5378430000000 1.0
C      1  0.5611230000000  0.4650870000000  0.4642100000000 1.0
C      1  0.4880390000000  0.4599040000000  0.4238900000000 1.0
C      1  0.4427280000000  0.5409470000000  0.4750950000000 1.0
C      1  0.4457940000000  0.5295420000000  0.5276740000000 1.0
C      1  0.4889460000000  0.5279220000000  0.5697940000000 1.0
C      1  0.5689720000000  0.5428500000000  0.5269660000000 1.0
C      1  0.5542220000000  0.5318750000000  0.4549930000000 1.0
C      1  0.5060160000000  0.5337840000000  0.4323610000000 1.0
C      1  0.4513340000000  0.5030040000000  0.4983930000000 1.0
C      1  0.4712760000000  0.5033940000000  0.5437510000000 1.0
C      1  0.5370020000000  0.5297810000000  0.5589910000000 1.0
C      1  0.5461220000000  0.5120020000000  0.4991020000000 1.0
C      1  0.5197900000000  0.5017320000000  0.4516650000000 1.0
C      1  0.4660640000000  0.5212420000000  0.4494280000000 1.0
C      1  0.4595110000000  0.4763360000000  0.4947170000000 1.0
C      1  0.4815250000000  0.4782850000000  0.5378760000000 1.0
C      1  0.5409000000000  0.4991080000000  0.5579240000000 1.0
C      1  0.5354250000000  0.4859100000000  0.5040730000000 1.0
C      1  0.5133130000000  0.4764480000000  0.4612760000000 1.0
C      1  0.4615740000000  0.4929850000000  0.4434000000000 1.0
END
