TITL C-26738-6379-111 -0.00318574579528646 125000 -337.956690063664 0 0 60 (C1) n - 1
REM
REM in /home/nfs/bkarasulu/CARBON/AIRSS/Generating-Clusters/AIREBO/Higher-Symm/Only-C60
REM
REM
REM
REM
REM
REM ./C.cell (28575a23ae977d3b5fae324c64b13b57)
REM
REM compiler GCC version 9.2.1 20190827 (Red Hat 9.2.1-1)
REM options -cpp -mtune=generic -march=x86-64 -g -O0 -fpre-include=/usr/include/finclude/math-vector-fortran.h
REM seed 740172191 -2128528776 -1986438900 899824954 -208013688 -696615742 -668216204 153596593 932055531 -148110124 -547417536 -1638224096 1299684370 -1967879003 -1708579565 -104614210 -598743591 1284571079 359601793 -1839910444 -141887467 432607575 -712689134 1876823234 198423703 585071904 484096267 -1608130374 -1262918923 573810403 -2143735372 1877649452 -342058245
REM
CELL 1.54180   50.00000   50.00000   50.00000   90.00000   90.00000   90.00000
LATT -1
SFAC C  
C      1  0.4134630000000  0.4991400000000  0.4690960000000 1.0
C      1  0.4408080000000  0.5266780000000  0.5176860000000 1.0
C      1  0.4747180000000  0.5249840000000  0.5526750000000 1.0
C      1  0.4627930000000  0.5042960000000  0.4350790000000 1.0
C      1  0.4671810000000  0.4667480000000  0.5426320000000 1.0
C      1  0.4660500000000  0.4593020000000  0.4595980000000 1.0
C      1  0.5346140000000  0.5006330000000  0.4589790000000 1.0
C      1  0.5422140000000  0.4943690000000  0.5520300000000 1.0
C      1  0.5120210000000  0.4660510000000  0.5167570000000 1.0
C      1  0.5006300000000  0.4594770000000  0.4792710000000 1.0
C      1  0.4620950000000  0.4918100000000  0.4625840000000 1.0
C      1  0.4660100000000  0.4864900000000  0.5176480000000 1.0
C      1  0.5066030000000  0.5612470000000  0.5396090000000 1.0
C      1  0.5103360000000  0.6117780000000  0.4790960000000 1.0
C      1  0.4757880000000  0.4406010000000  0.4864600000000 1.0
C      1  0.4617310000000  0.4448710000000  0.5171330000000 1.0
C      1  0.5373690000000  0.4444480000000  0.5141380000000 1.0
C      1  0.5284220000000  0.4432260000000  0.4833430000000 1.0
C      1  0.4603770000000  0.4813190000000  0.4148350000000 1.0
C      1  0.4670060000000  0.4982430000000  0.5564470000000 1.0
C      1  0.4991310000000  0.5371450000000  0.5588090000000 1.0
C      1  0.4824070000000  0.5222480000000  0.4306840000000 1.0
C      1  0.5150140000000  0.4148980000000  0.4766880000000 1.0
C      1  0.5089550000000  0.4382150000000  0.5308360000000 1.0
C      1  0.5098000000000  0.5143960000000  0.5200430000000 1.0
C      1  0.5109070000000  0.5120580000000  0.4802140000000 1.0
C      1  0.5611220000000  0.4706500000000  0.5488850000000 1.0
C      1  0.5496110000000  0.4757340000000  0.4512470000000 1.0
C      1  0.5247070000000  0.5200790000000  0.5660170000000 1.0
C      1  0.5126300000000  0.5195150000000  0.4411920000000 1.0
C      1  0.5143670000000  0.5885940000000  0.5223910000000 1.0
C      1  0.5147220000000  0.5895450000000  0.4943570000000 1.0
C      1  0.4371380000000  0.4391380000000  0.4963580000000 1.0
C      1  0.4390250000000  0.4438600000000  0.4713900000000 1.0
C      1  0.4896830000000  0.4134460000000  0.4793880000000 1.0
C      1  0.4841760000000  0.4293240000000  0.5346540000000 1.0
C      1  0.4628920000000  0.5381830000000  0.5292180000000 1.0
C      1  0.3895870000000  0.5023850000000  0.4587880000000 1.0
C      1  0.5606460000000  0.4518690000000  0.5323050000000 1.0
C      1  0.5483890000000  0.4533690000000  0.4622440000000 1.0
C      1  0.5419270000000  0.5091410000000  0.4911800000000 1.0
C      1  0.5413760000000  0.5100950000000  0.5242430000000 1.0
C      1  0.4840830000000  0.4707170000000  0.4330660000000 1.0
C      1  0.4890450000000  0.4782140000000  0.5660170000000 1.0
C      1  0.4388140000000  0.4983870000000  0.4794350000000 1.0
C      1  0.4452560000000  0.5015690000000  0.5061710000000 1.0
C      1  0.5607070000000  0.5331410000000  0.4813550000000 1.0
C      1  0.5632340000000  0.5325470000000  0.5289060000000 1.0
C      1  0.5210960000000  0.5483480000000  0.4525340000000 1.0
C      1  0.5355790000000  0.5517570000000  0.5654980000000 1.0
C      1  0.5241220000000  0.5636090000000  0.4821090000000 1.0
C      1  0.5382380000000  0.5710420000000  0.5384270000000 1.0
C      1  0.4928320000000  0.5411340000000  0.5195660000000 1.0
C      1  0.5037730000000  0.5399810000000  0.4899760000000 1.0
C      1  0.5141190000000  0.4886340000000  0.5698340000000 1.0
C      1  0.5063170000000  0.4878210000000  0.4304440000000 1.0
C      1  0.4961520000000  0.4898260000000  0.5099880000000 1.0
C      1  0.4893440000000  0.4892320000000  0.4786330000000 1.0
C      1  0.5565840000000  0.5573690000000  0.5196210000000 1.0
C      1  0.5522650000000  0.5570740000000  0.4921950000000 1.0
END
