TITL C-26728-8286-61 -8.31449182489475e-05 125000 -339.116780131811 0 0 60 (C1) n - 1
REM
REM in /home/nfs/bkarasulu/CARBON/AIRSS/Generating-Clusters/AIREBO/Higher-Symm/Only-C60
REM
REM
REM
REM
REM
REM ./C.cell (28575a23ae977d3b5fae324c64b13b57)
REM
REM compiler GCC version 9.2.1 20190827 (Red Hat 9.2.1-1)
REM options -cpp -mtune=generic -march=x86-64 -g -O0 -fpre-include=/usr/include/finclude/math-vector-fortran.h
REM seed 890141892 1178227604 547512008 2077292530 532692720 -306734550 -1377420775 -336008004 -695317449 -2113407683 1893323238 -1378215047 1717879405 -2010848684 189792427 1207134848 156497068 1971140626 1682465551 1857924193 -1406454610 468469982 -61181240 1511275053 2128163068 -1160975520 1945681475 -1002751098 1230893353 1803757500 1062035640 -1123237224 1942364576
REM
CELL 1.54180   50.00000   50.00000   50.00000   90.00000   90.00000   90.00000
LATT -1
SFAC C  
C      1  0.4797220000000  0.5181610000000  0.4212850000000 1.0
C      1  0.4759760000000  0.4850150000000  0.4230660000000 1.0
C      1  0.5066760000000  0.4724390000000  0.4201230000000 1.0
C      1  0.5287510000000  0.4974130000000  0.4237080000000 1.0
C      1  0.5119410000000  0.5259190000000  0.4208070000000 1.0
C      1  0.5197500000000  0.5169650000000  0.5793730000000 1.0
C      1  0.5225020000000  0.4838560000000  0.5751940000000 1.0
C      1  0.4920900000000  0.4708590000000  0.5771730000000 1.0
C      1  0.4703380000000  0.4961220000000  0.5803040000000 1.0
C      1  0.4874600000000  0.5248300000000  0.5813370000000 1.0
C      1  0.4932460000000  0.5388560000000  0.4444990000000 1.0
C      1  0.4597680000000  0.5044710000000  0.4441170000000 1.0
C      1  0.4828740000000  0.4551070000000  0.4363730000000 1.0
C      1  0.5292960000000  0.4715600000000  0.4438540000000 1.0
C      1  0.5412430000000  0.5256410000000  0.4366970000000 1.0
C      1  0.5070820000000  0.5406010000000  0.5589090000000 1.0
C      1  0.5389260000000  0.5040560000000  0.5553780000000 1.0
C      1  0.5160570000000  0.4540580000000  0.5614200000000 1.0
C      1  0.4626460000000  0.4687790000000  0.5622880000000 1.0
C      1  0.4634810000000  0.5192320000000  0.5578770000000 1.0
C      1  0.5320740000000  0.4607150000000  0.5150260000000 1.0
C      1  0.5551400000000  0.5217230000000  0.5134670000000 1.0
C      1  0.4990260000000  0.5574200000000  0.5153640000000 1.0
C      1  0.4466980000000  0.5173770000000  0.5153340000000 1.0
C      1  0.4719090000000  0.4564500000000  0.5140490000000 1.0
C      1  0.4639440000000  0.4547670000000  0.4835930000000 1.0
C      1  0.4475630000000  0.5191410000000  0.4859690000000 1.0
C      1  0.5024760000000  0.5554330000000  0.4861070000000 1.0
C      1  0.5503050000000  0.5140080000000  0.4838260000000 1.0
C      1  0.5328550000000  0.4500910000000  0.4860140000000 1.0
C      1  0.5602250000000  0.4701600000000  0.5248540000000 1.0
C      1  0.5495210000000  0.5499630000000  0.5279860000000 1.0
C      1  0.4701630000000  0.5626050000000  0.5280570000000 1.0
C      1  0.4371230000000  0.4896030000000  0.5280970000000 1.0
C      1  0.4919810000000  0.4350480000000  0.5251780000000 1.0
C      1  0.4371350000000  0.4675510000000  0.4736570000000 1.0
C      1  0.4512460000000  0.5478920000000  0.4736720000000 1.0
C      1  0.5311120000000  0.5572040000000  0.4715070000000 1.0
C      1  0.5668540000000  0.4892900000000  0.4739800000000 1.0
C      1  0.5082000000000  0.4347150000000  0.4712700000000 1.0
C      1  0.4842750000000  0.4432240000000  0.4614650000000 1.0
C      1  0.5530990000000  0.4668220000000  0.4652790000000 1.0
C      1  0.5452380000000  0.5355780000000  0.4624910000000 1.0
C      1  0.4764500000000  0.5559740000000  0.4659780000000 1.0
C      1  0.4369290000000  0.4941210000000  0.4655790000000 1.0
C      1  0.5158270000000  0.4445610000000  0.5352220000000 1.0
C      1  0.4530560000000  0.4691250000000  0.5362110000000 1.0
C      1  0.4535320000000  0.5422150000000  0.5365090000000 1.0
C      1  0.5250570000000  0.5591720000000  0.5372370000000 1.0
C      1  0.5620380000000  0.4961580000000  0.5344350000000 1.0
C      1  0.4761830000000  0.5102190000000  0.5292540000000 1.0
C      1  0.4864010000000  0.4837320000000  0.5197050000000 1.0
C      1  0.5151860000000  0.4863740000000  0.5109100000000 1.0
C      1  0.5260690000000  0.5112140000000  0.5264730000000 1.0
C      1  0.5010300000000  0.5283530000000  0.5298660000000 1.0
C      1  0.5206190000000  0.5044040000000  0.4840370000000 1.0
C      1  0.5147440000000  0.4748980000000  0.4723890000000 1.0
C      1  0.4851700000000  0.4786790000000  0.4797000000000 1.0
C      1  0.4743680000000  0.5058430000000  0.4725870000000 1.0
C      1  0.4993560000000  0.5242430000000  0.4738810000000 1.0
END
