TITL C-26728-8286-205 0.00012334809132353 125000 -310.553570979169 0 0 60 (C1) n - 1
REM
REM in /home/nfs/bkarasulu/CARBON/AIRSS/Generating-Clusters/AIREBO/Higher-Symm/Only-C60
REM
REM
REM
REM
REM
REM ./C.cell (28575a23ae977d3b5fae324c64b13b57)
REM
REM compiler GCC version 9.2.1 20190827 (Red Hat 9.2.1-1)
REM options -cpp -mtune=generic -march=x86-64 -g -O0 -fpre-include=/usr/include/finclude/math-vector-fortran.h
REM seed -1587241089 -1043446187 713892214 1281929561 -1558510271 -489089085 2142994180 -346494295 1187599680 -965635902 -1901527795 1868548228 306332188 -736501664 1596847959 2003704624 1531721170 -1406399566 -79768151 1352469274 -2012398439 -1570289849 -681651017 -1505048055 -1168870241 -951624816 -1906032384 -521695889 1020687019 -776237890 1189649333 -792414562 -327371972
REM
CELL 1.54180   50.00000   50.00000   50.00000   90.00000   90.00000   90.00000
LATT -1
SFAC C  
C      1  0.4312640000000  0.4662300000000  0.4634080000000 1.0
C      1  0.5128930000000  0.4215080000000  0.4650490000000 1.0
C      1  0.5785040000000  0.4901710000000  0.4652160000000 1.0
C      1  0.5345450000000  0.5678870000000  0.4640510000000 1.0
C      1  0.4440900000000  0.5556220000000  0.4650560000000 1.0
C      1  0.4774480000000  0.5141700000000  0.4589290000000 1.0
C      1  0.4801950000000  0.4839850000000  0.4503290000000 1.0
C      1  0.5082380000000  0.4743250000000  0.4582690000000 1.0
C      1  0.5267630000000  0.5016640000000  0.4594930000000 1.0
C      1  0.5060240000000  0.5239880000000  0.4514000000000 1.0
C      1  0.4560590000000  0.5310190000000  0.4489560000000 1.0
C      1  0.4578240000000  0.4695910000000  0.4453870000000 1.0
C      1  0.5159490000000  0.4483100000000  0.4484630000000 1.0
C      1  0.5533430000000  0.4995820000000  0.4485730000000 1.0
C      1  0.5149560000000  0.5490830000000  0.4465400000000 1.0
C      1  0.5516400000000  0.4431840000000  0.5344110000000 1.0
C      1  0.5701990000000  0.5314880000000  0.5345290000000 1.0
C      1  0.4913450000000  0.5764250000000  0.5371160000000 1.0
C      1  0.4248390000000  0.5158980000000  0.5340260000000 1.0
C      1  0.4619690000000  0.4335640000000  0.5363450000000 1.0
C      1  0.5015790000000  0.5271490000000  0.5472360000000 1.0
C      1  0.4743840000000  0.5097600000000  0.5447070000000 1.0
C      1  0.4829550000000  0.4790200000000  0.5464310000000 1.0
C      1  0.5151630000000  0.4773220000000  0.5446280000000 1.0
C      1  0.5265300000000  0.5072220000000  0.5450220000000 1.0
C      1  0.5169720000000  0.4790500000000  0.4907320000000 1.0
C      1  0.5245440000000  0.5108650000000  0.4915010000000 1.0
C      1  0.4985400000000  0.5257030000000  0.4958990000000 1.0
C      1  0.4742780000000  0.5067640000000  0.4906560000000 1.0
C      1  0.4859150000000  0.4787780000000  0.4947760000000 1.0
C      1  0.4671030000000  0.5591240000000  0.5423510000000 1.0
C      1  0.4342300000000  0.4883050000000  0.5408590000000 1.0
C      1  0.4916600000000  0.4332610000000  0.5419600000000 1.0
C      1  0.5603930000000  0.4711330000000  0.5407260000000 1.0
C      1  0.5464490000000  0.5483450000000  0.5416190000000 1.0
C      1  0.5385230000000  0.5667190000000  0.4909000000000 1.0
C      1  0.4489050000000  0.5600700000000  0.4915140000000 1.0
C      1  0.4295800000000  0.4692940000000  0.4903330000000 1.0
C      1  0.5064030000000  0.4211620000000  0.4915330000000 1.0
C      1  0.5769090000000  0.4824160000000  0.4912840000000 1.0
C      1  0.4544230000000  0.5135300000000  0.5174200000000 1.0
C      1  0.4735050000000  0.4606970000000  0.5193940000000 1.0
C      1  0.5291480000000  0.4622930000000  0.5175130000000 1.0
C      1  0.5447450000000  0.5163670000000  0.5177940000000 1.0
C      1  0.4983350000000  0.5476850000000  0.5203330000000 1.0
C      1  0.4632820000000  0.5458440000000  0.5138290000000 1.0
C      1  0.4461620000000  0.4790130000000  0.5134060000000 1.0
C      1  0.5029780000000  0.4414420000000  0.5135640000000 1.0
C      1  0.5561170000000  0.4852040000000  0.5129420000000 1.0
C      1  0.5312090000000  0.5492310000000  0.5142070000000 1.0
C      1  0.4524090000000  0.4803640000000  0.5602260000000 1.0
C      1  0.5054750000000  0.4491270000000  0.5600970000000 1.0
C      1  0.5502750000000  0.4886910000000  0.5596460000000 1.0
C      1  0.5271990000000  0.5437220000000  0.5610280000000 1.0
C      1  0.4655580000000  0.5380330000000  0.5603640000000 1.0
C      1  0.5244700000000  0.4205420000000  0.4346320000000 1.0
C      1  0.5817280000000  0.4965830000000  0.4335590000000 1.0
C      1  0.5301650000000  0.5742340000000  0.4327830000000 1.0
C      1  0.4335080000000  0.5492520000000  0.4350010000000 1.0
C      1  0.4302040000000  0.4589900000000  0.4320450000000 1.0
END
