TITL C-26730-8313-129 -6.35426946882102e-05 125000 -329.706000363717 0 0 60 (C1) n - 1
REM
REM in /home/nfs/bkarasulu/CARBON/AIRSS/Generating-Clusters/AIREBO/Higher-Symm/Only-C60
REM
REM
REM
REM
REM
REM ./C.cell (28575a23ae977d3b5fae324c64b13b57)
REM
REM compiler GCC version 9.2.1 20190827 (Red Hat 9.2.1-1)
REM options -cpp -mtune=generic -march=x86-64 -g -O0 -fpre-include=/usr/include/finclude/math-vector-fortran.h
REM seed -498700171 2052185444 -625213148 2015943509 1251974879 2057766375 1994959753 -1305559419 1585300211 -979765699 1140959301 532447379 800239342 -617760103 534484674 -323673798 -1078488161 -57979930 -115301711 -1872728345 -1112856899 1675872356 511142347 141605461 200787863 -1199186395 1572564922 815118260 -445325135 -452196016 425778887 1958862326 1562479392
REM
CELL 1.54180   50.00000   50.00000   50.00000   90.00000   90.00000   90.00000
LATT -1
SFAC C  
C      1  0.5238900000000  0.4907190000000  0.5421600000000 1.0
C      1  0.4956950000000  0.5066680000000  0.5480750000000 1.0
C      1  0.4671630000000  0.4916080000000  0.5376880000000 1.0
C      1  0.4519960000000  0.4992310000000  0.5121410000000 1.0
C      1  0.4554180000000  0.4879610000000  0.4836810000000 1.0
C      1  0.4760570000000  0.4911970000000  0.4579430000000 1.0
C      1  0.5044110000000  0.5075740000000  0.4528740000000 1.0
C      1  0.5328300000000  0.4917600000000  0.4625810000000 1.0
C      1  0.5480000000000  0.4992920000000  0.4881130000000 1.0
C      1  0.5444970000000  0.4877180000000  0.5165810000000 1.0
C      1  0.5558340000000  0.5137770000000  0.5316810000000 1.0
C      1  0.5324440000000  0.5125880000000  0.5640600000000 1.0
C      1  0.4951910000000  0.5144370000000  0.5784150000000 1.0
C      1  0.4584370000000  0.5140570000000  0.5604590000000 1.0
C      1  0.4308590000000  0.5162210000000  0.5151360000000 1.0
C      1  0.4441400000000  0.5134820000000  0.4677720000000 1.0
C      1  0.4677180000000  0.5126590000000  0.4355200000000 1.0
C      1  0.5047500000000  0.5143790000000  0.4205980000000 1.0
C      1  0.5415570000000  0.5137870000000  0.4395420000000 1.0
C      1  0.5691520000000  0.5162580000000  0.4851430000000 1.0
C      1  0.5062850000000  0.5414110000000  0.4499100000000 1.0
C      1  0.5315670000000  0.5558120000000  0.4633240000000 1.0
C      1  0.5453110000000  0.5579950000000  0.4871830000000 1.0
C      1  0.5343880000000  0.5582030000000  0.5121730000000 1.0
C      1  0.5206680000000  0.5574110000000  0.5431870000000 1.0
C      1  0.4935170000000  0.5429940000000  0.5504770000000 1.0
C      1  0.4684460000000  0.5561980000000  0.5368000000000 1.0
C      1  0.4547650000000  0.5579270000000  0.5127400000000 1.0
C      1  0.4657360000000  0.5579030000000  0.4878010000000 1.0
C      1  0.4795050000000  0.5568370000000  0.4569360000000 1.0
C      1  0.4651490000000  0.4367940000000  0.4828820000000 1.0
C      1  0.4855180000000  0.4418950000000  0.4663540000000 1.0
C      1  0.5128370000000  0.4422100000000  0.4461070000000 1.0
C      1  0.5381080000000  0.4285640000000  0.4606910000000 1.0
C      1  0.5504070000000  0.4432460000000  0.4879490000000 1.0
C      1  0.5348960000000  0.4364910000000  0.5171360000000 1.0
C      1  0.5144880000000  0.4415180000000  0.5336700000000 1.0
C      1  0.4871680000000  0.4419160000000  0.5539150000000 1.0
C      1  0.4618360000000  0.4284370000000  0.5392640000000 1.0
C      1  0.4496030000000  0.4433400000000  0.5120910000000 1.0
C      1  0.5672130000000  0.4468870000000  0.4586170000000 1.0
C      1  0.5556830000000  0.4599330000000  0.5155350000000 1.0
C      1  0.5205290000000  0.4632440000000  0.5539120000000 1.0
C      1  0.5068080000000  0.4544860000000  0.5788350000000 1.0
C      1  0.4624580000000  0.4630480000000  0.5443830000000 1.0
C      1  0.4327470000000  0.4467740000000  0.5414190000000 1.0
C      1  0.4442800000000  0.4601370000000  0.4845610000000 1.0
C      1  0.4796010000000  0.4637340000000  0.4462120000000 1.0
C      1  0.4932800000000  0.4550230000000  0.4212490000000 1.0
C      1  0.5375140000000  0.4632160000000  0.4558360000000 1.0
C      1  0.5701590000000  0.5438470000000  0.4862710000000 1.0
C      1  0.5465470000000  0.5381490000000  0.5324990000000 1.0
C      1  0.5288430000000  0.5369530000000  0.5682380000000 1.0
C      1  0.4881680000000  0.5405100000000  0.5831370000000 1.0
C      1  0.4543400000000  0.5411450000000  0.5583280000000 1.0
C      1  0.4299080000000  0.5438040000000  0.5138260000000 1.0
C      1  0.4534920000000  0.5378600000000  0.4673810000000 1.0
C      1  0.4710170000000  0.5371170000000  0.4315350000000 1.0
C      1  0.5118140000000  0.5407180000000  0.4160350000000 1.0
C      1  0.5453630000000  0.5409380000000  0.4414390000000 1.0
END
