TITL C-26737-6152-145 0.00105797491599192 125000 -329.177542526923 0 0 60 (C1) n - 1
REM
REM in /home/nfs/bkarasulu/CARBON/AIRSS/Generating-Clusters/AIREBO/Higher-Symm/Only-C60
REM
REM
REM
REM
REM
REM ./C.cell (28575a23ae977d3b5fae324c64b13b57)
REM
REM compiler GCC version 9.2.1 20190827 (Red Hat 9.2.1-1)
REM options -cpp -mtune=generic -march=x86-64 -g -O0 -fpre-include=/usr/include/finclude/math-vector-fortran.h
REM seed 179499144 1003472168 634075335 134375617 -1891654224 -558711989 -1714641844 -702379172 337461665 -1896120201 82416985 -230743574 -966725104 1986013898 784360523 -1350313628 234668469 -1443052614 -702394846 -681194533 -733261582 -1982486860 358471917 -1351911869 1950293038 -1224716744 -1881426870 -424699998 1765654871 768754781 1515638321 -194658501 -475428693
REM
CELL 1.54180   50.00000   50.00000   50.00000   90.00000   90.00000   90.00000
LATT -1
SFAC C  
C      1  0.4871120000000  0.5324600000000  0.4953620000000 1.0
C      1  0.4774760000000  0.4796540000000  0.4749130000000 1.0
C      1  0.4850000000000  0.4869740000000  0.5313960000000 1.0
C      1  0.4707850000000  0.4305660000000  0.5007630000000 1.0
C      1  0.4710170000000  0.5326650000000  0.5546700000000 1.0
C      1  0.4755370000000  0.5299240000000  0.4380580000000 1.0
C      1  0.4625820000000  0.5117010000000  0.5321810000000 1.0
C      1  0.4589380000000  0.5298580000000  0.4609520000000 1.0
C      1  0.4598320000000  0.4593760000000  0.4957990000000 1.0
C      1  0.5488960000000  0.4581540000000  0.5082540000000 1.0
C      1  0.5518430000000  0.5291820000000  0.5324160000000 1.0
C      1  0.5501920000000  0.5311690000000  0.4537080000000 1.0
C      1  0.4572670000000  0.4466300000000  0.4650000000000 1.0
C      1  0.4600300000000  0.4947460000000  0.5615430000000 1.0
C      1  0.4576450000000  0.5555380000000  0.4728910000000 1.0
C      1  0.5124690000000  0.5005250000000  0.5222100000000 1.0
C      1  0.5146790000000  0.5130370000000  0.4906690000000 1.0
C      1  0.5100440000000  0.4800320000000  0.4838880000000 1.0
C      1  0.5451100000000  0.4364010000000  0.4826150000000 1.0
C      1  0.5475010000000  0.5178720000000  0.5641400000000 1.0
C      1  0.5510360000000  0.5590210000000  0.4557950000000 1.0
C      1  0.4811170000000  0.4441080000000  0.4518210000000 1.0
C      1  0.4840900000000  0.4853450000000  0.5713520000000 1.0
C      1  0.4821630000000  0.5687670000000  0.4781480000000 1.0
C      1  0.5360460000000  0.5358760000000  0.5040340000000 1.0
C      1  0.5381140000000  0.4852350000000  0.4653170000000 1.0
C      1  0.5331460000000  0.4780890000000  0.5291020000000 1.0
C      1  0.4357900000000  0.4730660000000  0.5362050000000 1.0
C      1  0.4357800000000  0.5423940000000  0.5034850000000 1.0
C      1  0.4271920000000  0.4912900000000  0.4731440000000 1.0
C      1  0.4941980000000  0.4719990000000  0.4463140000000 1.0
C      1  0.4994890000000  0.4649760000000  0.5520090000000 1.0
C      1  0.4957700000000  0.5619290000000  0.5056950000000 1.0
C      1  0.4546420000000  0.4104630000000  0.5096290000000 1.0
C      1  0.4527130000000  0.5501230000000  0.5649420000000 1.0
C      1  0.4687590000000  0.5202920000000  0.4139550000000 1.0
C      1  0.4553140000000  0.5028170000000  0.4770870000000 1.0
C      1  0.4572840000000  0.4737680000000  0.5213190000000 1.0
C      1  0.4590310000000  0.5221040000000  0.5040210000000 1.0
C      1  0.5266500000000  0.5622720000000  0.4971090000000 1.0
C      1  0.5247090000000  0.4644190000000  0.4501180000000 1.0
C      1  0.5300270000000  0.4734810000000  0.5585770000000 1.0
C      1  0.5089220000000  0.4987700000000  0.4370670000000 1.0
C      1  0.5022820000000  0.4426580000000  0.5303610000000 1.0
C      1  0.5044130000000  0.5573900000000  0.5355070000000 1.0
C      1  0.5029040000000  0.5059190000000  0.5784140000000 1.0
C      1  0.5025250000000  0.5659440000000  0.4578920000000 1.0
C      1  0.5011990000000  0.4277340000000  0.4648430000000 1.0
C      1  0.5794280000000  0.5310370000000  0.5276190000000 1.0
C      1  0.5577000000000  0.5038690000000  0.4610950000000 1.0
C      1  0.5764630000000  0.4608990000000  0.5129820000000 1.0
C      1  0.5008340000000  0.5406480000000  0.4448430000000 1.0
C      1  0.4973280000000  0.4293910000000  0.4930510000000 1.0
C      1  0.4976100000000  0.5289190000000  0.5625940000000 1.0
C      1  0.5302470000000  0.4974810000000  0.5739090000000 1.0
C      1  0.5288750000000  0.5702090000000  0.4697420000000 1.0
C      1  0.5276150000000  0.4383470000000  0.4602630000000 1.0
C      1  0.5205980000000  0.5203530000000  0.4579080000000 1.0
C      1  0.5155930000000  0.4543180000000  0.5025200000000 1.0
C      1  0.5184480000000  0.5278170000000  0.5387850000000 1.0
END
