TITL C-26734-8308-144 -0.00134613136128549 125000 -337.052200943207 0 0 60 (C5) n - 1
REM
REM in /home/nfs/bkarasulu/CARBON/AIRSS/Generating-Clusters/AIREBO/Higher-Symm/Only-C60
REM
REM
REM
REM
REM
REM ./C.cell (28575a23ae977d3b5fae324c64b13b57)
REM
REM compiler GCC version 9.2.1 20190827 (Red Hat 9.2.1-1)
REM options -cpp -mtune=generic -march=x86-64 -g -O0 -fpre-include=/usr/include/finclude/math-vector-fortran.h
REM seed -1252019681 2021507716 389071602 337315256 266665917 -1759177673 187318706 1216844741 634373636 475807123 1737907695 -63353420 -533178035 -815192507 601463499 -566735917 -96281062 299693357 639673580 1138996086 -1501504086 -1795513940 -668331619 -1444615114 473711466 -1782274291 -1149751970 468561870 1723895794 -1713579926 -224362585 -176415430 -548021827
REM
CELL 1.54180   50.00000   50.00000   50.00000   90.00000   90.00000   90.00000
LATT -1
SFAC C  
C      1  0.4697710000000  0.5078060000000  0.4403830000000 1.0
C      1  0.4697700000000  0.5591100000000  0.4890000000000 1.0
C      1  0.4697680000000  0.5287270000000  0.5528170000000 1.0
C      1  0.4697680000000  0.4586440000000  0.5436420000000 1.0
C      1  0.4697690000000  0.4457140000000  0.4741530000000 1.0
C      1  0.5351680000000  0.5109300000000  0.4392620000000 1.0
C      1  0.5351670000000  0.5611430000000  0.4916270000000 1.0
C      1  0.5351650000000  0.5268580000000  0.5555650000000 1.0
C      1  0.5351650000000  0.4554550000000  0.5427150000000 1.0
C      1  0.5351670000000  0.4456120000000  0.4708360000000 1.0
C      1  0.4693290000000  0.4969690000000  0.5771120000000 1.0
C      1  0.4693300000000  0.4257250000000  0.5209460000000 1.0
C      1  0.4693320000000  0.4571270000000  0.4358320000000 1.0
C      1  0.4693330000000  0.5477780000000  0.4393950000000 1.0
C      1  0.4693310000000  0.5724020000000  0.5267110000000 1.0
C      1  0.5243450000000  0.4855070000000  0.5752770000000 1.0
C      1  0.5243460000000  0.4239290000000  0.5094790000000 1.0
C      1  0.5243490000000  0.4674780000000  0.4305820000000 1.0
C      1  0.5243490000000  0.5559710000000  0.4476190000000 1.0
C      1  0.5243470000000  0.5671130000000  0.5370450000000 1.0
C      1  0.4834180000000  0.5435150000000  0.5183500000000 1.0
C      1  0.4834160000000  0.4959950000000  0.5470550000000 1.0
C      1  0.4834170000000  0.4540100000000  0.5107310000000 1.0
C      1  0.4834190000000  0.4755820000000  0.4595770000000 1.0
C      1  0.4834190000000  0.5308990000000  0.4642850000000 1.0
C      1  0.5108180000000  0.5410410000000  0.5272260000000 1.0
C      1  0.5108170000000  0.4867890000000  0.5474460000000 1.0
C      1  0.5108180000000  0.4507940000000  0.5020980000000 1.0
C      1  0.5108200000000  0.4828000000000  0.4538510000000 1.0
C      1  0.5108200000000  0.5385760000000  0.4693810000000 1.0
C      1  0.4629730000000  0.5589080000000  0.5515980000000 1.0
C      1  0.4629720000000  0.4691300000000  0.5719690000000 1.0
C      1  0.4629730000000  0.4220140000000  0.4928800000000 1.0
C      1  0.4629760000000  0.4826720000000  0.4236290000000 1.0
C      1  0.4629750000000  0.5672780000000  0.4599190000000 1.0
C      1  0.5414440000000  0.5544830000000  0.5562350000000 1.0
C      1  0.5414430000000  0.4633550000000  0.5691950000000 1.0
C      1  0.5414450000000  0.4228690000000  0.4865320000000 1.0
C      1  0.5414470000000  0.4889750000000  0.4224830000000 1.0
C      1  0.5414470000000  0.5703170000000  0.4655610000000 1.0
C      1  0.5185820000000  0.5759050000000  0.5093520000000 1.0
C      1  0.5185800000000  0.5145620000000  0.5750800000000 1.0
C      1  0.5185800000000  0.4330950000000  0.5370500000000 1.0
C      1  0.5185830000000  0.4440890000000  0.4478190000000 1.0
C      1  0.5185840000000  0.5323500000000  0.4307010000000 1.0
C      1  0.4909870000000  0.5801670000000  0.5046730000000 1.0
C      1  0.4909840000000  0.5203290000000  0.5776870000000 1.0
C      1  0.4909840000000  0.4323970000000  0.5433400000000 1.0
C      1  0.4909870000000  0.4378900000000  0.4490980000000 1.0
C      1  0.4909880000000  0.5292170000000  0.4252000000000 1.0
C      1  0.4623220000000  0.4985070000000  0.4723890000000 1.0
C      1  0.4623220000000  0.5257980000000  0.4900470000000 1.0
C      1  0.4623210000000  0.5174370000000  0.5214580000000 1.0
C      1  0.4623210000000  0.4849790000000  0.5232140000000 1.0
C      1  0.4623210000000  0.4732800000000  0.4928870000000 1.0
C      1  0.5308430000000  0.5020620000000  0.4718130000000 1.0
C      1  0.5308430000000  0.5274450000000  0.4932510000000 1.0
C      1  0.5308420000000  0.5149000000000  0.5240170000000 1.0
C      1  0.5308410000000  0.4817630000000  0.5215930000000 1.0
C      1  0.5308420000000  0.4738280000000  0.4893290000000 1.0
END
