TITL C-26728-8286-6 0.00238589013055853 125000 -327.758888472099 0 0 60 (C1) n - 1
REM
REM in /home/nfs/bkarasulu/CARBON/AIRSS/Generating-Clusters/AIREBO/Higher-Symm/Only-C60
REM
REM
REM
REM
REM
REM ./C.cell (28575a23ae977d3b5fae324c64b13b57)
REM
REM compiler GCC version 9.2.1 20190827 (Red Hat 9.2.1-1)
REM options -cpp -mtune=generic -march=x86-64 -g -O0 -fpre-include=/usr/include/finclude/math-vector-fortran.h
REM seed 1965758609 -849294196 -304968516 -1550772800 -56399653 -1858545092 1810207328 1750612912 983483241 1999463750 -1988160788 -1136829457 -1875798473 -517749330 1212462464 -1624744993 -319075325 -468643911 262412904 -1957034005 -625905601 547472530 -431003362 1089254279 1773403453 -453003783 1489213142 -1546866566 -313785166 -680959919 1270755805 -1822326118 -1861159533
REM
CELL 1.54180   50.00000   50.00000   50.00000   90.00000   90.00000   90.00000
LATT -1
SFAC C  
C      1  0.4803450000000  0.4541360000000  0.5534540000000 1.0
C      1  0.4564840000000  0.4940500000000  0.4607360000000 1.0
C      1  0.4487520000000  0.5114460000000  0.5389120000000 1.0
C      1  0.4789910000000  0.5396710000000  0.4539930000000 1.0
C      1  0.4916180000000  0.5467710000000  0.5451200000000 1.0
C      1  0.5308170000000  0.5308600000000  0.4505310000000 1.0
C      1  0.5343970000000  0.5213780000000  0.5525230000000 1.0
C      1  0.5468680000000  0.4807240000000  0.4415510000000 1.0
C      1  0.5253810000000  0.4682960000000  0.5556460000000 1.0
C      1  0.4946290000000  0.4567570000000  0.4608750000000 1.0
C      1  0.4320260000000  0.5038000000000  0.4759340000000 1.0
C      1  0.4315080000000  0.5508590000000  0.5175770000000 1.0
C      1  0.4928280000000  0.5803870000000  0.4814600000000 1.0
C      1  0.5232490000000  0.5633800000000  0.5386610000000 1.0
C      1  0.5585490000000  0.5352090000000  0.4553720000000 1.0
C      1  0.5918670000000  0.5040660000000  0.5016450000000 1.0
C      1  0.5593660000000  0.4528050000000  0.4835150000000 1.0
C      1  0.5084530000000  0.4443520000000  0.5381000000000 1.0
C      1  0.4834190000000  0.4326960000000  0.4694810000000 1.0
C      1  0.4418320000000  0.4491530000000  0.5190490000000 1.0
C      1  0.4888800000000  0.5254300000000  0.5659970000000 1.0
C      1  0.5154850000000  0.5164580000000  0.4312720000000 1.0
C      1  0.5142960000000  0.5127110000000  0.5712000000000 1.0
C      1  0.5207340000000  0.4876850000000  0.4322790000000 1.0
C      1  0.5098450000000  0.4842300000000  0.5736190000000 1.0
C      1  0.4952560000000  0.4737240000000  0.4376620000000 1.0
C      1  0.4815490000000  0.4789200000000  0.5667970000000 1.0
C      1  0.4735330000000  0.4941550000000  0.4369110000000 1.0
C      1  0.4687600000000  0.5049270000000  0.5611130000000 1.0
C      1  0.4863690000000  0.5206320000000  0.4328930000000 1.0
C      1  0.5356070000000  0.5383390000000  0.5012270000000 1.0
C      1  0.5578690000000  0.5033400000000  0.5015630000000 1.0
C      1  0.5566540000000  0.4830540000000  0.4740330000000 1.0
C      1  0.5171250000000  0.4545400000000  0.5068190000000 1.0
C      1  0.4833820000000  0.4284120000000  0.4973050000000 1.0
C      1  0.4722510000000  0.4474530000000  0.5214290000000 1.0
C      1  0.4528900000000  0.4926550000000  0.5003590000000 1.0
C      1  0.4282030000000  0.5234560000000  0.5235920000000 1.0
C      1  0.4772150000000  0.5535020000000  0.4895830000000 1.0
C      1  0.4998220000000  0.5588750000000  0.5144140000000 1.0
C      1  0.4328610000000  0.4697060000000  0.5078370000000 1.0
C      1  0.4163680000000  0.5086270000000  0.5018350000000 1.0
C      1  0.4483930000000  0.5591030000000  0.4980140000000 1.0
C      1  0.5067030000000  0.5906490000000  0.5027890000000 1.0
C      1  0.5397300000000  0.5609350000000  0.5149320000000 1.0
C      1  0.5680180000000  0.5278520000000  0.4802830000000 1.0
C      1  0.5885090000000  0.4938230000000  0.4759660000000 1.0
C      1  0.5417840000000  0.4404100000000  0.4961370000000 1.0
C      1  0.5010930000000  0.4199360000000  0.5186200000000 1.0
C      1  0.4751980000000  0.4137070000000  0.4522090000000 1.0
C      1  0.4757650000000  0.5049840000000  0.5217350000000 1.0
C      1  0.4905080000000  0.5254170000000  0.4807390000000 1.0
C      1  0.4996760000000  0.5251170000000  0.5201690000000 1.0
C      1  0.5205080000000  0.5238750000000  0.4784350000000 1.0
C      1  0.5305160000000  0.5107540000000  0.5204470000000 1.0
C      1  0.5258120000000  0.4937830000000  0.4796460000000 1.0
C      1  0.5201070000000  0.4805170000000  0.5264190000000 1.0
C      1  0.5028790000000  0.4738260000000  0.4846870000000 1.0
C      1  0.4880870000000  0.4768380000000  0.5219070000000 1.0
C      1  0.4803850000000  0.4968470000000  0.4829940000000 1.0
END
