TITL C-26735-8354-85 -0.00148318690342118 125000 -328.919289125823 0 0 60 (C1) n - 1
REM
REM in /home/nfs/bkarasulu/CARBON/AIRSS/Generating-Clusters/AIREBO/Higher-Symm/Only-C60
REM
REM
REM
REM
REM
REM ./C.cell (28575a23ae977d3b5fae324c64b13b57)
REM
REM compiler GCC version 9.2.1 20190827 (Red Hat 9.2.1-1)
REM options -cpp -mtune=generic -march=x86-64 -g -O0 -fpre-include=/usr/include/finclude/math-vector-fortran.h
REM seed 1699358992 -476436287 681916573 114343924 23040474 -1596465682 969871462 -68692050 -426902335 -1093401602 1480708814 1325641823 1023951899 1149493658 -1856891335 644904905 -1444456966 -1737880447 -225734679 -1618606770 -579544636 -1002083160 486943878 1274715635 -1593497083 1104806862 1644616676 -882761983 1523824140 1262779276 -1496044206 -474257364 1605890667
REM
CELL 1.54180   50.00000   50.00000   50.00000   90.00000   90.00000   90.00000
LATT -1
SFAC C  
C      1  0.4692850000000  0.5117900000000  0.4990360000000 1.0
C      1  0.5282880000000  0.5176770000000  0.5666770000000 1.0
C      1  0.5264020000000  0.5148790000000  0.5150260000000 1.0
C      1  0.5006660000000  0.4705110000000  0.4431720000000 1.0
C      1  0.5058790000000  0.4971610000000  0.5025620000000 1.0
C      1  0.4472880000000  0.5464850000000  0.4914970000000 1.0
C      1  0.4423100000000  0.5104220000000  0.5284710000000 1.0
C      1  0.4627580000000  0.4515650000000  0.5452240000000 1.0
C      1  0.4527980000000  0.4662140000000  0.4819670000000 1.0
C      1  0.5474260000000  0.4805750000000  0.4720260000000 1.0
C      1  0.4776700000000  0.5569290000000  0.5028330000000 1.0
C      1  0.4816600000000  0.4571890000000  0.4975630000000 1.0
C      1  0.5526860000000  0.5523370000000  0.4636730000000 1.0
C      1  0.5000820000000  0.5650120000000  0.4562610000000 1.0
C      1  0.4727520000000  0.4356540000000  0.5212980000000 1.0
C      1  0.5107470000000  0.5557580000000  0.5413920000000 1.0
C      1  0.5598090000000  0.5430270000000  0.5442140000000 1.0
C      1  0.5339410000000  0.5000670000000  0.5429010000000 1.0
C      1  0.5439750000000  0.4717140000000  0.5026600000000 1.0
C      1  0.4933140000000  0.4478330000000  0.5527730000000 1.0
C      1  0.5170410000000  0.4678570000000  0.4714270000000 1.0
C      1  0.4372810000000  0.5132120000000  0.4690420000000 1.0
C      1  0.5037240000000  0.5108710000000  0.5762960000000 1.0
C      1  0.4674010000000  0.4271340000000  0.4583260000000 1.0
C      1  0.5142200000000  0.4384010000000  0.4839530000000 1.0
C      1  0.5343140000000  0.5441460000000  0.5585360000000 1.0
C      1  0.5369800000000  0.4542130000000  0.5471510000000 1.0
C      1  0.4746930000000  0.5445160000000  0.4481190000000 1.0
C      1  0.4840100000000  0.5513640000000  0.5333580000000 1.0
C      1  0.5431690000000  0.4454080000000  0.5210680000000 1.0
C      1  0.5345790000000  0.5571320000000  0.4908080000000 1.0
C      1  0.5048620000000  0.5660550000000  0.4842810000000 1.0
C      1  0.5141090000000  0.4945190000000  0.4338290000000 1.0
C      1  0.4546750000000  0.4524750000000  0.4549170000000 1.0
C      1  0.4740450000000  0.5220690000000  0.5311620000000 1.0
C      1  0.4826310000000  0.5337300000000  0.4785210000000 1.0
C      1  0.4864510000000  0.4984450000000  0.5526650000000 1.0
C      1  0.5271820000000  0.5467650000000  0.5193910000000 1.0
C      1  0.4955190000000  0.5178900000000  0.4442090000000 1.0
C      1  0.4678990000000  0.5003950000000  0.4670240000000 1.0
C      1  0.5105530000000  0.4754240000000  0.5442670000000 1.0
C      1  0.4869290000000  0.4296500000000  0.4783140000000 1.0
C      1  0.5506140000000  0.5273040000000  0.4946190000000 1.0
C      1  0.4551620000000  0.4792080000000  0.5369530000000 1.0
C      1  0.5138880000000  0.5429400000000  0.4413720000000 1.0
C      1  0.5404230000000  0.5354300000000  0.4459970000000 1.0
C      1  0.5643200000000  0.5236840000000  0.5236790000000 1.0
C      1  0.4535700000000  0.5033830000000  0.5597710000000 1.0
C      1  0.4764470000000  0.4857590000000  0.5152480000000 1.0
C      1  0.4467250000000  0.5516170000000  0.4634690000000 1.0
C      1  0.5015470000000  0.4984820000000  0.4715170000000 1.0
C      1  0.5010390000000  0.4244710000000  0.5293170000000 1.0
C      1  0.5592630000000  0.5110510000000  0.4722740000000 1.0
C      1  0.4303330000000  0.5188650000000  0.5018420000000 1.0
C      1  0.4369220000000  0.4874880000000  0.4886690000000 1.0
C      1  0.4729430000000  0.4748580000000  0.4485120000000 1.0
C      1  0.5226950000000  0.4291040000000  0.5100420000000 1.0
C      1  0.5585220000000  0.4924790000000  0.5225890000000 1.0
C      1  0.5422560000000  0.5020780000000  0.4450000000000 1.0
C      1  0.5113280000000  0.4673310000000  0.5112390000000 1.0
END
