TITL C-26730-8313-134 0.00123923253439579 125000 -329.683587535439 0 0 60 (C1) n - 1
REM
REM in /home/nfs/bkarasulu/CARBON/AIRSS/Generating-Clusters/AIREBO/Higher-Symm/Only-C60
REM
REM
REM
REM
REM
REM ./C.cell (28575a23ae977d3b5fae324c64b13b57)
REM
REM compiler GCC version 9.2.1 20190827 (Red Hat 9.2.1-1)
REM options -cpp -mtune=generic -march=x86-64 -g -O0 -fpre-include=/usr/include/finclude/math-vector-fortran.h
REM seed -1432647789 -164965897 1204650308 2012371847 -436830910 -980298642 -527738072 -2136042473 -1501127082 266295113 -213893426 197949058 1886595654 -1064560062 -1082768837 -203745158 -1032037789 -19967713 -115197535 -539566853 -1273632665 50757159 487011198 -1727931921 -194627272 1823665013 1864699439 -1066115198 1339187676 -1312015287 -27799825 1875464683 1613656261
REM
CELL 1.54180   50.00000   50.00000   50.00000   90.00000   90.00000   90.00000
LATT -1
SFAC C  
C      1  0.4947880000000  0.4970250000000  0.5569040000000 1.0
C      1  0.5068780000000  0.5485820000000  0.5337410000000 1.0
C      1  0.5009540000000  0.5555690000000  0.4733120000000 1.0
C      1  0.5113270000000  0.5001760000000  0.4391840000000 1.0
C      1  0.5009530000000  0.4538630000000  0.4667540000000 1.0
C      1  0.5103530000000  0.4479530000000  0.5310560000000 1.0
C      1  0.5462540000000  0.5184820000000  0.5507010000000 1.0
C      1  0.4631320000000  0.5548230000000  0.5084990000000 1.0
C      1  0.5466300000000  0.5383410000000  0.4590460000000 1.0
C      1  0.4602550000000  0.4823540000000  0.4482650000000 1.0
C      1  0.5461090000000  0.4447860000000  0.4867510000000 1.0
C      1  0.4579910000000  0.4618020000000  0.5403070000000 1.0
C      1  0.5532580000000  0.4751170000000  0.4450020000000 1.0
C      1  0.4579540000000  0.4409990000000  0.4901570000000 1.0
C      1  0.5521620000000  0.4672830000000  0.5474450000000 1.0
C      1  0.4502380000000  0.5198880000000  0.5562060000000 1.0
C      1  0.5472640000000  0.5598940000000  0.5067730000000 1.0
C      1  0.4577110000000  0.5362700000000  0.4540690000000 1.0
C      1  0.5552060000000  0.4540990000000  0.4632760000000 1.0
C      1  0.4509360000000  0.4452940000000  0.5178510000000 1.0
C      1  0.5560160000000  0.4935810000000  0.5555880000000 1.0
C      1  0.4569060000000  0.5362620000000  0.5332850000000 1.0
C      1  0.5531320000000  0.5553430000000  0.4791630000000 1.0
C      1  0.4513380000000  0.5095700000000  0.4449250000000 1.0
C      1  0.5482720000000  0.4571470000000  0.5152210000000 1.0
C      1  0.4433870000000  0.4867340000000  0.5528280000000 1.0
C      1  0.5546730000000  0.5348210000000  0.5255180000000 1.0
C      1  0.4483770000000  0.5505650000000  0.4807020000000 1.0
C      1  0.5498820000000  0.5072740000000  0.4555200000000 1.0
C      1  0.4487400000000  0.4580510000000  0.4653750000000 1.0
C      1  0.4843420000000  0.4322150000000  0.4852740000000 1.0
C      1  0.5309290000000  0.4455010000000  0.5490690000000 1.0
C      1  0.4730580000000  0.5063880000000  0.5709550000000 1.0
C      1  0.5226100000000  0.5697070000000  0.5153970000000 1.0
C      1  0.4832750000000  0.5462050000000  0.4471320000000 1.0
C      1  0.5315990000000  0.4865280000000  0.4268570000000 1.0
C      1  0.4929620000000  0.5585320000000  0.5041520000000 1.0
C      1  0.5140090000000  0.5306770000000  0.4541500000000 1.0
C      1  0.4920500000000  0.4816690000000  0.4550570000000 1.0
C      1  0.5141090000000  0.4461210000000  0.4971560000000 1.0
C      1  0.4897160000000  0.4700950000000  0.5395820000000 1.0
C      1  0.5157110000000  0.5213990000000  0.5502850000000 1.0
C      1  0.4271960000000  0.4922930000000  0.4947580000000 1.0
C      1  0.5643290000000  0.4854630000000  0.5139670000000 1.0
C      1  0.4207640000000  0.5023230000000  0.5254460000000 1.0
C      1  0.5642500000000  0.5156560000000  0.5016600000000 1.0
C      1  0.4243100000000  0.5237520000000  0.5007130000000 1.0
C      1  0.5636440000000  0.4903130000000  0.4805890000000 1.0
C      1  0.5295230000000  0.4924800000000  0.4780920000000 1.0
C      1  0.4534110000000  0.4805560000000  0.4874610000000 1.0
C      1  0.5305190000000  0.4862110000000  0.5175080000000 1.0
C      1  0.4543910000000  0.4977130000000  0.5233880000000 1.0
C      1  0.5315250000000  0.5234370000000  0.5030870000000 1.0
C      1  0.4554940000000  0.5202440000000  0.4905500000000 1.0
C      1  0.5062400000000  0.4781700000000  0.4978900000000 1.0
C      1  0.4779440000000  0.4788090000000  0.5102950000000 1.0
C      1  0.5071190000000  0.5106090000000  0.5214360000000 1.0
C      1  0.4792270000000  0.5184430000000  0.5148330000000 1.0
C      1  0.5064940000000  0.5146470000000  0.4818070000000 1.0
C      1  0.4781740000000  0.5018940000000  0.4780300000000 1.0
END
