TITL C-26737-6152-174 -0.00130278610008256 125000 -305.218323916424 0 0 60 (C1) n - 1
REM
REM in /home/nfs/bkarasulu/CARBON/AIRSS/Generating-Clusters/AIREBO/Higher-Symm/Only-C60
REM
REM
REM
REM
REM
REM ./C.cell (28575a23ae977d3b5fae324c64b13b57)
REM
REM compiler GCC version 9.2.1 20190827 (Red Hat 9.2.1-1)
REM options -cpp -mtune=generic -march=x86-64 -g -O0 -fpre-include=/usr/include/finclude/math-vector-fortran.h
REM seed 564122881 1134552973 -1407167426 -1872372886 744616363 1527919486 325797931 -1963645167 -1383862872 236042912 10251121 1258412248 100587917 899747012 -1005157278 627961910 323847939 -1616921164 -868376757 -1084413156 1427116879 -1685705061 -2128083492 -33538137 1101636785 1742045841 917145280 1087841214 623108765 1771857560 -1997289033 2014683867 -212932465
REM
CELL 1.54180   50.00000   50.00000   50.00000   90.00000   90.00000   90.00000
LATT -1
SFAC C  
C      1  0.5684650000000  0.5509150000000  0.5171870000000 1.0
C      1  0.5848970000000  0.4859290000000  0.4552770000000 1.0
C      1  0.5656770000000  0.4579830000000  0.5369110000000 1.0
C      1  0.5279960000000  0.4397560000000  0.4775040000000 1.0
C      1  0.5307230000000  0.5038930000000  0.5606550000000 1.0
C      1  0.5301630000000  0.5471100000000  0.4629950000000 1.0
C      1  0.4558750000000  0.5633450000000  0.5113980000000 1.0
C      1  0.4537960000000  0.4770540000000  0.4417960000000 1.0
C      1  0.4543950000000  0.4652590000000  0.5516130000000 1.0
C      1  0.4571790000000  0.5169630000000  0.4671040000000 1.0
C      1  0.4610670000000  0.4617100000000  0.5036560000000 1.0
C      1  0.4665590000000  0.5150520000000  0.5166700000000 1.0
C      1  0.4439620000000  0.5554530000000  0.4645040000000 1.0
C      1  0.4510440000000  0.4401260000000  0.4693820000000 1.0
C      1  0.4507960000000  0.5133310000000  0.5618970000000 1.0
C      1  0.5543880000000  0.5146260000000  0.5445510000000 1.0
C      1  0.5569650000000  0.5262310000000  0.4643220000000 1.0
C      1  0.5551040000000  0.4586310000000  0.4855760000000 1.0
C      1  0.5309140000000  0.4622950000000  0.4539350000000 1.0
C      1  0.5270170000000  0.4767940000000  0.5520610000000 1.0
C      1  0.5281830000000  0.5557060000000  0.4923480000000 1.0
C      1  0.4756540000000  0.5441240000000  0.5147350000000 1.0
C      1  0.4709210000000  0.4933650000000  0.4572500000000 1.0
C      1  0.4734630000000  0.4672090000000  0.5307790000000 1.0
C      1  0.5382260000000  0.4407600000000  0.5091420000000 1.0
C      1  0.5337210000000  0.5403950000000  0.5450310000000 1.0
C      1  0.5319970000000  0.5199280000000  0.4422420000000 1.0
C      1  0.4808310000000  0.5058640000000  0.5606910000000 1.0
C      1  0.4762420000000  0.5451160000000  0.4672600000000 1.0
C      1  0.4821130000000  0.4481330000000  0.4806440000000 1.0
C      1  0.5051800000000  0.5260620000000  0.5553340000000 1.0
C      1  0.5019990000000  0.5350980000000  0.4473470000000 1.0
C      1  0.5051400000000  0.4372200000000  0.5032480000000 1.0
C      1  0.4317640000000  0.5093430000000  0.5458550000000 1.0
C      1  0.4249250000000  0.5400440000000  0.4717780000000 1.0
C      1  0.4310830000000  0.4530830000000  0.4786410000000 1.0
C      1  0.4862190000000  0.4768440000000  0.5727130000000 1.0
C      1  0.4853480000000  0.5720850000000  0.4858630000000 1.0
C      1  0.4994420000000  0.4492440000000  0.4513590000000 1.0
C      1  0.4940000000000  0.5282930000000  0.4908750000000 1.0
C      1  0.4881800000000  0.4803230000000  0.4807780000000 1.0
C      1  0.4900450000000  0.4968580000000  0.5292210000000 1.0
C      1  0.5006300000000  0.5528610000000  0.5348380000000 1.0
C      1  0.4962860000000  0.5019660000000  0.4422030000000 1.0
C      1  0.4958190000000  0.4448170000000  0.5325850000000 1.0
C      1  0.4355280000000  0.4794230000000  0.4965800000000 1.0
C      1  0.4370460000000  0.5068130000000  0.5154370000000 1.0
C      1  0.4316540000000  0.5106210000000  0.4835990000000 1.0
C      1  0.5325250000000  0.4948500000000  0.4608090000000 1.0
C      1  0.5397770000000  0.4720360000000  0.5223790000000 1.0
C      1  0.5420090000000  0.5350110000000  0.5124920000000 1.0
C      1  0.5604020000000  0.4850740000000  0.4730750000000 1.0
C      1  0.5576090000000  0.4992520000000  0.5210540000000 1.0
C      1  0.5560530000000  0.5117630000000  0.4925090000000 1.0
C      1  0.5119980000000  0.5195170000000  0.5164920000000 1.0
C      1  0.5120750000000  0.5011630000000  0.4813860000000 1.0
C      1  0.5104150000000  0.4806260000000  0.5073560000000 1.0
C      1  0.5039430000000  0.4621130000000  0.5561740000000 1.0
C      1  0.5063740000000  0.5671530000000  0.5044950000000 1.0
C      1  0.5082010000000  0.4773840000000  0.4344050000000 1.0
END
