TITL C-26732-6566-36 0.000139197455599406 125000 -378.990046325645 0 0 60 (C1) n - 1
REM
REM in /home/nfs/bkarasulu/CARBON/AIRSS/Generating-Clusters/AIREBO/Higher-Symm/Only-C60
REM
REM
REM
REM
REM
REM ./C.cell (28575a23ae977d3b5fae324c64b13b57)
REM
REM compiler GCC version 9.2.1 20190827 (Red Hat 9.2.1-1)
REM options -cpp -mtune=generic -march=x86-64 -g -O0 -fpre-include=/usr/include/finclude/math-vector-fortran.h
REM seed 1729982982 -1372064017 1936514433 993480505 588561851 -1490999375 -993986835 -1111146641 306943473 -2102030074 467795217 160727557 -1076965176 -1023878717 455421432 -1564354743 -1104214630 -1065425019 700827145 296724560 751500172 1495868924 -304263077 -1510960384 1694356274 -632619434 5693447 -985152448 -1084581966 491486917 801205408 -1022681688 29897253
REM
CELL 1.54180   50.00000   50.00000   50.00000   90.00000   90.00000   90.00000
LATT -1
SFAC C  
C      1  0.5669870000000  0.4808720000000  0.4866230000000 1.0
C      1  0.5453360000000  0.4782550000000  0.5487930000000 1.0
C      1  0.4921040000000  0.4769000000000  0.5640040000000 1.0
C      1  0.4372130000000  0.4734340000000  0.5071480000000 1.0
C      1  0.4598730000000  0.4679430000000  0.4583100000000 1.0
C      1  0.5036820000000  0.4773500000000  0.4395150000000 1.0
C      1  0.5595810000000  0.4757680000000  0.5182730000000 1.0
C      1  0.5514270000000  0.4764450000000  0.4644450000000 1.0
C      1  0.4759240000000  0.4825430000000  0.4400230000000 1.0
C      1  0.4431270000000  0.4806180000000  0.4756070000000 1.0
C      1  0.4457530000000  0.4801210000000  0.5386580000000 1.0
C      1  0.5188800000000  0.4784340000000  0.5702500000000 1.0
C      1  0.5460930000000  0.4984730000000  0.4480660000000 1.0
C      1  0.5804870000000  0.5027590000000  0.5167590000000 1.0
C      1  0.5314030000000  0.5040320000000  0.5759870000000 1.0
C      1  0.4523160000000  0.5015800000000  0.5537980000000 1.0
C      1  0.4262310000000  0.5036090000000  0.4834340000000 1.0
C      1  0.4665420000000  0.5056740000000  0.4272850000000 1.0
C      1  0.5582780000000  0.5049860000000  0.5638750000000 1.0
C      1  0.5860710000000  0.5035230000000  0.4860860000000 1.0
C      1  0.5210770000000  0.4988930000000  0.4352160000000 1.0
C      1  0.4389590000000  0.5124490000000  0.4282690000000 1.0
C      1  0.4199280000000  0.5020040000000  0.5130560000000 1.0
C      1  0.4770500000000  0.5004300000000  0.5670150000000 1.0
C      1  0.4722990000000  0.5532070000000  0.4283550000000 1.0
C      1  0.5570570000000  0.5401540000000  0.4274990000000 1.0
C      1  0.5868110000000  0.5496390000000  0.5123570000000 1.0
C      1  0.5309370000000  0.5512480000000  0.5783380000000 1.0
C      1  0.4445280000000  0.5457660000000  0.5686740000000 1.0
C      1  0.4076950000000  0.5473530000000  0.4870590000000 1.0
C      1  0.4686260000000  0.5447450000000  0.5823460000000 1.0
C      1  0.5561650000000  0.5519060000000  0.5667310000000 1.0
C      1  0.5842190000000  0.5504970000000  0.4847270000000 1.0
C      1  0.5322910000000  0.5405490000000  0.4151340000000 1.0
C      1  0.4472630000000  0.5570240000000  0.4398740000000 1.0
C      1  0.4095900000000  0.5477460000000  0.5147140000000 1.0
C      1  0.4621330000000  0.4561360000000  0.5330900000000 1.0
C      1  0.4548980000000  0.4290680000000  0.4860090000000 1.0
C      1  0.4921890000000  0.4333220000000  0.4527660000000 1.0
C      1  0.5364120000000  0.4527820000000  0.4647250000000 1.0
C      1  0.5500350000000  0.4439630000000  0.5116400000000 1.0
C      1  0.5092890000000  0.4399280000000  0.5419450000000 1.0
C      1  0.4674990000000  0.4411350000000  0.4639380000000 1.0
C      1  0.4500710000000  0.4425220000000  0.5096180000000 1.0
C      1  0.4860260000000  0.4549980000000  0.5471950000000 1.0
C      1  0.5346150000000  0.4500360000000  0.5356670000000 1.0
C      1  0.5440070000000  0.4356280000000  0.4858190000000 1.0
C      1  0.5125270000000  0.4527180000000  0.4503030000000 1.0
C      1  0.4316910000000  0.5338930000000  0.4455460000000 1.0
C      1  0.5118790000000  0.5227510000000  0.4230940000000 1.0
C      1  0.5791080000000  0.5264090000000  0.4707300000000 1.0
C      1  0.5670400000000  0.5292780000000  0.5537120000000 1.0
C      1  0.4878610000000  0.5244920000000  0.5777970000000 1.0
C      1  0.4210380000000  0.5255750000000  0.5279660000000 1.0
C      1  0.4373830000000  0.5252700000000  0.5506460000000 1.0
C      1  0.5158060000000  0.5273200000000  0.5793450000000 1.0
C      1  0.5792800000000  0.5279610000000  0.5288780000000 1.0
C      1  0.5624750000000  0.5218970000000  0.4483730000000 1.0
C      1  0.4843610000000  0.5278290000000  0.4242030000000 1.0
C      1  0.4205740000000  0.5281620000000  0.4706910000000 1.0
END
