TITL C-26732-6566-93 -7.39852324350831e-05 125000 -347.080785200526 0 0 60 (C1) n - 1
REM
REM in /home/nfs/bkarasulu/CARBON/AIRSS/Generating-Clusters/AIREBO/Higher-Symm/Only-C60
REM
REM
REM
REM
REM
REM ./C.cell (28575a23ae977d3b5fae324c64b13b57)
REM
REM compiler GCC version 9.2.1 20190827 (Red Hat 9.2.1-1)
REM options -cpp -mtune=generic -march=x86-64 -g -O0 -fpre-include=/usr/include/finclude/math-vector-fortran.h
REM seed 174166461 -1198910495 -1306881649 -1193135820 586541808 -605058618 1855032108 242405587 127478329 1162419012 879872632 -355168098 1996193172 -1215451933 -1146316581 1214361374 -261881234 -899429021 -493709077 -1287782890 1749810779 1512777955 -73529529 1595154499 -1379005245 1670012236 1635611800 -1864141708 -544347289 -77338459 1389393954 -513871802 131901325
REM
CELL 1.54180   50.00000   50.00000   50.00000   90.00000   90.00000   90.00000
LATT -1
SFAC C  
C      1  0.4637670000000  0.4912020000000  0.4485700000000 1.0
C      1  0.4912630000000  0.4513760000000  0.4608710000000 1.0
C      1  0.4511510000000  0.4628000000000  0.4882840000000 1.0
C      1  0.5356180000000  0.4904260000000  0.5477310000000 1.0
C      1  0.5385540000000  0.5080040000000  0.4514090000000 1.0
C      1  0.4621320000000  0.5087750000000  0.5448630000000 1.0
C      1  0.5065590000000  0.4510410000000  0.5358690000000 1.0
C      1  0.5105950000000  0.5471010000000  0.4614590000000 1.0
C      1  0.4917530000000  0.5479270000000  0.5350330000000 1.0
C      1  0.5470560000000  0.4615670000000  0.5086230000000 1.0
C      1  0.5493380000000  0.5359190000000  0.4914760000000 1.0
C      1  0.4526410000000  0.5371720000000  0.5058070000000 1.0
C      1  0.5304920000000  0.4963410000000  0.4823180000000 1.0
C      1  0.4963400000000  0.4825120000000  0.5279750000000 1.0
C      1  0.4839230000000  0.5293820000000  0.4949870000000 1.0
C      1  0.4695210000000  0.4973660000000  0.5137560000000 1.0
C      1  0.4706020000000  0.5020410000000  0.4800780000000 1.0
C      1  0.5295980000000  0.5010740000000  0.5159930000000 1.0
C      1  0.5032000000000  0.4823460000000  0.4682700000000 1.0
C      1  0.5016460000000  0.5161130000000  0.5281790000000 1.0
C      1  0.4990120000000  0.5161050000000  0.4680280000000 1.0
C      1  0.5174030000000  0.5290810000000  0.5009830000000 1.0
C      1  0.5163190000000  0.4691210000000  0.4961890000000 1.0
C      1  0.4824870000000  0.4693840000000  0.4997620000000 1.0
C      1  0.4370820000000  0.5160030000000  0.5275420000000 1.0
C      1  0.5178920000000  0.5303250000000  0.4359390000000 1.0
C      1  0.5286930000000  0.4386430000000  0.5185490000000 1.0
C      1  0.5613450000000  0.5181030000000  0.4697660000000 1.0
C      1  0.5615060000000  0.4826890000000  0.5311740000000 1.0
C      1  0.4400010000000  0.4808630000000  0.4660560000000 1.0
C      1  0.4831190000000  0.5308790000000  0.5602040000000 1.0
C      1  0.4819360000000  0.4692020000000  0.4373140000000 1.0
C      1  0.5169740000000  0.4689650000000  0.5591860000000 1.0
C      1  0.4682820000000  0.4369370000000  0.4815740000000 1.0
C      1  0.4705120000000  0.5599160000000  0.5167170000000 1.0
C      1  0.5325690000000  0.5613970000000  0.4832790000000 1.0
C      1  0.5156330000000  0.5675740000000  0.5330000000000 1.0
C      1  0.5686780000000  0.5327700000000  0.5155080000000 1.0
C      1  0.5327930000000  0.5140680000000  0.5676770000000 1.0
C      1  0.5004180000000  0.5713920000000  0.4816420000000 1.0
C      1  0.4829250000000  0.4312090000000  0.5324280000000 1.0
C      1  0.5007170000000  0.4274160000000  0.4817940000000 1.0
C      1  0.4286440000000  0.5170300000000  0.4948600000000 1.0
C      1  0.4304900000000  0.4661120000000  0.5113060000000 1.0
C      1  0.5714120000000  0.4819190000000  0.4988330000000 1.0
C      1  0.4676430000000  0.5146200000000  0.4285120000000 1.0
C      1  0.4813900000000  0.4986490000000  0.5698200000000 1.0
C      1  0.5185590000000  0.4977390000000  0.4269650000000 1.0
C      1  0.5262940000000  0.5756420000000  0.5118300000000 1.0
C      1  0.5761630000000  0.5111630000000  0.5256920000000 1.0
C      1  0.5113410000000  0.5245980000000  0.5751410000000 1.0
C      1  0.4803090000000  0.5769510000000  0.4977940000000 1.0
C      1  0.4733930000000  0.4232500000000  0.5106900000000 1.0
C      1  0.5198100000000  0.4217770000000  0.4990660000000 1.0
C      1  0.4233070000000  0.5004900000000  0.4750680000000 1.0
C      1  0.4225570000000  0.4876520000000  0.5213030000000 1.0
C      1  0.5777470000000  0.4984610000000  0.4792960000000 1.0
C      1  0.4894470000000  0.5245480000000  0.4212210000000 1.0
C      1  0.4975520000000  0.4786790000000  0.5756710000000 1.0
C      1  0.5018990000000  0.4781860000000  0.4210700000000 1.0
END
