TITL C-26731-8310-67 0.00109476491403669 125000 -318.339421502539 0 0 60 (C1) n - 1
REM
REM in /home/nfs/bkarasulu/CARBON/AIRSS/Generating-Clusters/AIREBO/Higher-Symm/Only-C60
REM
REM
REM
REM
REM
REM ./C.cell (28575a23ae977d3b5fae324c64b13b57)
REM
REM compiler GCC version 9.2.1 20190827 (Red Hat 9.2.1-1)
REM options -cpp -mtune=generic -march=x86-64 -g -O0 -fpre-include=/usr/include/finclude/math-vector-fortran.h
REM seed 513893128 419564913 -280983475 -49270310 763255758 201068221 1310061230 1142887751 1179104421 -437984544 -1000453698 343242233 319098423 -615758002 1624750872 -1273049894 59727561 -1343923206 1084047603 -1155908977 -126621731 1539187454 2007924261 -1613767513 1395661489 209057187 -401114784 -2018512829 -765518773 61074035 -921621023 136692640 1185904487
REM
CELL 1.54180   50.00000   50.00000   50.00000   90.00000   90.00000   90.00000
LATT -1
SFAC C  
C      1  0.5654970000000  0.4785000000000  0.5203060000000 1.0
C      1  0.4346080000000  0.4934910000000  0.4682670000000 1.0
C      1  0.4360510000000  0.4931090000000  0.5294710000000 1.0
C      1  0.5599130000000  0.4939830000000  0.4700430000000 1.0
C      1  0.4670590000000  0.4966790000000  0.4779090000000 1.0
C      1  0.5365510000000  0.4963120000000  0.5212720000000 1.0
C      1  0.5344270000000  0.5094490000000  0.4839540000000 1.0
C      1  0.4678390000000  0.4958950000000  0.5177160000000 1.0
C      1  0.4328760000000  0.5296840000000  0.5231590000000 1.0
C      1  0.5678070000000  0.5295220000000  0.4750790000000 1.0
C      1  0.5655480000000  0.5182120000000  0.5378190000000 1.0
C      1  0.4313940000000  0.5271100000000  0.4722300000000 1.0
C      1  0.4750840000000  0.4637310000000  0.4753060000000 1.0
C      1  0.5407110000000  0.4568660000000  0.5288880000000 1.0
C      1  0.5261860000000  0.4529260000000  0.4752190000000 1.0
C      1  0.4779260000000  0.4638040000000  0.5226740000000 1.0
C      1  0.4816010000000  0.5234260000000  0.5245490000000 1.0
C      1  0.5263790000000  0.5370800000000  0.4752280000000 1.0
C      1  0.5211250000000  0.5249690000000  0.5299450000000 1.0
C      1  0.4841090000000  0.5235560000000  0.4731090000000 1.0
C      1  0.4691280000000  0.4750580000000  0.4303160000000 1.0
C      1  0.5324840000000  0.4762800000000  0.5554720000000 1.0
C      1  0.5194830000000  0.4700010000000  0.4511450000000 1.0
C      1  0.4792400000000  0.4761790000000  0.5538480000000 1.0
C      1  0.4568230000000  0.5397240000000  0.4599460000000 1.0
C      1  0.5443360000000  0.5404000000000  0.5496570000000 1.0
C      1  0.5462500000000  0.5420820000000  0.4529100000000 1.0
C      1  0.4555000000000  0.5400220000000  0.5391620000000 1.0
C      1  0.4085240000000  0.5420090000000  0.5119040000000 1.0
C      1  0.5913090000000  0.5375460000000  0.4960430000000 1.0
C      1  0.5912180000000  0.5326950000000  0.5211600000000 1.0
C      1  0.4070880000000  0.5411830000000  0.4857400000000 1.0
C      1  0.5267130000000  0.5184580000000  0.4400940000000 1.0
C      1  0.4661640000000  0.5212180000000  0.5611390000000 1.0
C      1  0.4669780000000  0.5220040000000  0.4373420000000 1.0
C      1  0.5254340000000  0.5236220000000  0.5694850000000 1.0
C      1  0.4537490000000  0.4965270000000  0.4402520000000 1.0
C      1  0.5449750000000  0.5019200000000  0.5595560000000 1.0
C      1  0.5362350000000  0.4922040000000  0.4480040000000 1.0
C      1  0.4578480000000  0.4946390000000  0.5562790000000 1.0
C      1  0.4819240000000  0.4310590000000  0.4688350000000 1.0
C      1  0.5190870000000  0.4336940000000  0.5367150000000 1.0
C      1  0.5075700000000  0.4263840000000  0.4779860000000 1.0
C      1  0.4903080000000  0.4376650000000  0.5405550000000 1.0
C      1  0.4985750000000  0.5233020000000  0.4423290000000 1.0
C      1  0.4975480000000  0.5270060000000  0.5543660000000 1.0
C      1  0.5053810000000  0.4722350000000  0.5645250000000 1.0
C      1  0.4920490000000  0.4680770000000  0.4463700000000 1.0
C      1  0.5600700000000  0.5142380000000  0.5044940000000 1.0
C      1  0.4475900000000  0.5154080000000  0.4986540000000 1.0
C      1  0.4535590000000  0.4557290000000  0.5003780000000 1.0
C      1  0.5483680000000  0.4533590000000  0.4957810000000 1.0
C      1  0.5700450000000  0.4735110000000  0.4889190000000 1.0
C      1  0.4338040000000  0.4782020000000  0.4989830000000 1.0
C      1  0.5009950000000  0.4650620000000  0.4977250000000 1.0
C      1  0.5040730000000  0.5299410000000  0.4998800000000 1.0
C      1  0.5122830000000  0.4344830000000  0.5074360000000 1.0
C      1  0.4927410000000  0.5878650000000  0.5062660000000 1.0
C      1  0.4962060000000  0.5627510000000  0.5033400000000 1.0
C      1  0.5109950000000  0.4953580000000  0.5003710000000 1.0
END
