TITL C-26727-7196-128 0.0202529466444394 125000 -298.157980099694 0 0 60 (C1) n - 1
REM
REM in /home/nfs/bkarasulu/CARBON/AIRSS/Generating-Clusters/AIREBO/Higher-Symm/Only-C60
REM
REM
REM
REM
REM
REM ./C.cell (28575a23ae977d3b5fae324c64b13b57)
REM
REM compiler GCC version 9.2.1 20190827 (Red Hat 9.2.1-1)
REM options -cpp -mtune=generic -march=x86-64 -g -O0 -fpre-include=/usr/include/finclude/math-vector-fortran.h
REM seed 1375681946 1679216972 1640072668 -850591028 505339711 -1221113723 -266809930 -989841395 -453241480 -539356382 -1653184877 -1395002676 -508464630 138259559 368713494 -155885326 405539609 -1381845709 901884185 1389502170 1409395010 -1495541735 -1823392109 1817300581 -2126315603 474341281 -1730714156 -807941639 -1856565602 -2135845854 -544775300 628887762 530032010
REM
CELL 1.54180   50.00000   50.00000   50.00000   90.00000   90.00000   90.00000
LATT -1
SFAC C  
C      1  0.4871490000000  0.5408610000000  0.5562670000000 1.0
C      1  0.4662530000000  0.5035760000000  0.5773560000000 1.0
C      1  0.4606970000000  0.4413860000000  0.5440870000000 1.0
C      1  0.4890430000000  0.4443310000000  0.5063650000000 1.0
C      1  0.4801760000000  0.4654850000000  0.4585230000000 1.0
C      1  0.4947260000000  0.5211990000000  0.4558220000000 1.0
C      1  0.4921070000000  0.5489870000000  0.4974280000000 1.0
C      1  0.5550330000000  0.4822050000000  0.4822330000000 1.0
C      1  0.5571200000000  0.4830320000000  0.4327760000000 1.0
C      1  0.6189340000000  0.4914680000000  0.4419400000000 1.0
C      1  0.6049290000000  0.5461660000000  0.4384640000000 1.0
C      1  0.5573940000000  0.5700330000000  0.4589190000000 1.0
C      1  0.5590360000000  0.5493700000000  0.5295690000000 1.0
C      1  0.5591090000000  0.4910240000000  0.5404230000000 1.0
C      1  0.5086150000000  0.4558030000000  0.4910220000000 1.0
C      1  0.4843480000000  0.4486810000000  0.4394970000000 1.0
C      1  0.5115970000000  0.5295750000000  0.4384610000000 1.0
C      1  0.5038560000000  0.5651580000000  0.5148630000000 1.0
C      1  0.4853040000000  0.5447010000000  0.5842850000000 1.0
C      1  0.4588000000000  0.4772900000000  0.5801780000000 1.0
C      1  0.4743500000000  0.4170290000000  0.5403970000000 1.0
C      1  0.5046470000000  0.5559760000000  0.5407520000000 1.0
C      1  0.4735770000000  0.5228500000000  0.5964380000000 1.0
C      1  0.4527270000000  0.4547590000000  0.5667730000000 1.0
C      1  0.4909170000000  0.4186400000000  0.5182540000000 1.0
C      1  0.5321910000000  0.4676610000000  0.4867700000000 1.0
C      1  0.4908350000000  0.4309900000000  0.4212820000000 1.0
C      1  0.5268720000000  0.5385190000000  0.4191330000000 1.0
C      1  0.4374880000000  0.5329970000000  0.5452840000000 1.0
C      1  0.4284070000000  0.4821660000000  0.5490000000000 1.0
C      1  0.4294120000000  0.4456620000000  0.5125430000000 1.0
C      1  0.4274990000000  0.4579470000000  0.4746890000000 1.0
C      1  0.4405600000000  0.4939620000000  0.4634560000000 1.0
C      1  0.4444800000000  0.5428960000000  0.4716170000000 1.0
C      1  0.4244470000000  0.5631030000000  0.4852970000000 1.0
C      1  0.4704940000000  0.5292500000000  0.4801000000000 1.0
C      1  0.4741110000000  0.5232960000000  0.5134040000000 1.0
C      1  0.4662160000000  0.5158810000000  0.5456410000000 1.0
C      1  0.4537640000000  0.4852680000000  0.5374940000000 1.0
C      1  0.4601500000000  0.4598920000000  0.5155550000000 1.0
C      1  0.4568610000000  0.4723400000000  0.4840560000000 1.0
C      1  0.4744950000000  0.4973050000000  0.4691030000000 1.0
C      1  0.4045240000000  0.4779870000000  0.5353970000000 1.0
C      1  0.4070980000000  0.4637040000000  0.5110860000000 1.0
C      1  0.4035580000000  0.4759440000000  0.4839510000000 1.0
C      1  0.4152370000000  0.5005950000000  0.4728090000000 1.0
C      1  0.4136120000000  0.5293000000000  0.4760000000000 1.0
C      1  0.4078330000000  0.5455720000000  0.5055350000000 1.0
C      1  0.4155080000000  0.5390560000000  0.5310820000000 1.0
C      1  0.5704850000000  0.5500840000000  0.4717120000000 1.0
C      1  0.5654830000000  0.5451990000000  0.4980070000000 1.0
C      1  0.5596060000000  0.5186840000000  0.5164610000000 1.0
C      1  0.5711150000000  0.4939350000000  0.5029250000000 1.0
C      1  0.5663840000000  0.4888580000000  0.4572760000000 1.0
C      1  0.5918540000000  0.5054990000000  0.4622770000000 1.0
C      1  0.5891390000000  0.5347340000000  0.4572660000000 1.0
C      1  0.6210940000000  0.4993000000000  0.5039030000000 1.0
C      1  0.4834310000000  0.4911900000000  0.5071660000000 1.0
C      1  0.5972210000000  0.4985390000000  0.4918240000000 1.0
C      1  0.4513510000000  0.5011450000000  0.5012650000000 1.0
END
