TITL C-26737-6152-161 -7.87281531321521e-08 125000 -364.473944974593 0 0 60 (Ci) n - 1
REM
REM in /home/nfs/bkarasulu/CARBON/AIRSS/Generating-Clusters/AIREBO/Higher-Symm/Only-C60
REM
REM
REM
REM
REM
REM ./C.cell (28575a23ae977d3b5fae324c64b13b57)
REM
REM compiler GCC version 9.2.1 20190827 (Red Hat 9.2.1-1)
REM options -cpp -mtune=generic -march=x86-64 -g -O0 -fpre-include=/usr/include/finclude/math-vector-fortran.h
REM seed -1313812710 -1617892958 1866627904 992379385 -1051919617 -1160058124 -890350994 -1541285567 495314911 -368730902 2039805348 1381640397 1629692045 -734884308 -979671296 -2036209406 160559450 778881437 250919893 2008478581 -588073147 -658136635 -1224403231 1845073831 1028028992 2087790584 237153964 -1574701780 1132705883 -673358179 -1250600371 1040910007 -656977630
REM
CELL 1.54180   50.00000   50.00000   50.00000   90.00000   90.00000   90.00000
LATT -1
SFAC C  
C      1  0.4671320000000  0.4878410000000  0.5249780000000 1.0
C      1  0.4871690000000  0.4907770000000  0.4729170000000 1.0
C      1  0.4852700000000  0.4682900000000  0.5158630000000 1.0
C      1  0.5187390000000  0.4856040000000  0.4794430000000 1.0
C      1  0.5079250000000  0.4835780000000  0.5079950000000 1.0
C      1  0.5328680000000  0.5121590000000  0.4750220000000 1.0
C      1  0.5128310000000  0.5092230000000  0.5270830000000 1.0
C      1  0.5147300000000  0.5317100000000  0.4841370000000 1.0
C      1  0.4812610000000  0.5143960000000  0.5205570000000 1.0
C      1  0.4920750000000  0.5164220000000  0.4920050000000 1.0
C      1  0.4539580000000  0.4193000000000  0.5541810000000 1.0
C      1  0.5295390000000  0.4337200000000  0.4881440000000 1.0
C      1  0.5397930000000  0.4294830000000  0.5133090000000 1.0
C      1  0.5673960000000  0.4775990000000  0.5022370000000 1.0
C      1  0.5846090000000  0.5326400000000  0.5325370000000 1.0
C      1  0.5460420000000  0.5807000000000  0.4458190000000 1.0
C      1  0.4704610000000  0.5662800000000  0.5118560000000 1.0
C      1  0.4602070000000  0.5705170000000  0.4866910000000 1.0
C      1  0.4326040000000  0.5224010000000  0.4977630000000 1.0
C      1  0.4153910000000  0.4673600000000  0.4674630000000 1.0
C      1  0.4798680000000  0.5110470000000  0.5684450000000 1.0
C      1  0.4753350000000  0.5015570000000  0.4429160000000 1.0
C      1  0.4824800000000  0.4824240000000  0.5722550000000 1.0
C      1  0.4948880000000  0.4769390000000  0.4362730000000 1.0
C      1  0.5101480000000  0.4737720000000  0.5663360000000 1.0
C      1  0.5201320000000  0.4889530000000  0.4315550000000 1.0
C      1  0.5246650000000  0.4984430000000  0.5570840000000 1.0
C      1  0.5175200000000  0.5175760000000  0.4277450000000 1.0
C      1  0.5051120000000  0.5230610000000  0.5637270000000 1.0
C      1  0.4898520000000  0.5262280000000  0.4336640000000 1.0
C      1  0.5533210000000  0.4958250000000  0.5452000000000 1.0
C      1  0.5397190000000  0.5320280000000  0.4387630000000 1.0
C      1  0.5122980000000  0.5444300000000  0.5463510000000 1.0
C      1  0.4852250000000  0.5480280000000  0.4514460000000 1.0
C      1  0.4555150000000  0.5180950000000  0.5509130000000 1.0
C      1  0.4466790000000  0.5041750000000  0.4548000000000 1.0
C      1  0.4602810000000  0.4679720000000  0.5612370000000 1.0
C      1  0.4877020000000  0.4555700000000  0.4536490000000 1.0
C      1  0.5147750000000  0.4519720000000  0.5485540000000 1.0
C      1  0.5444850000000  0.4819050000000  0.4490870000000 1.0
C      1  0.5400540000000  0.4493360000000  0.5340060000000 1.0
C      1  0.5630400000000  0.4865480000000  0.4776970000000 1.0
C      1  0.5601410000000  0.5222820000000  0.5355120000000 1.0
C      1  0.5330990000000  0.5575730000000  0.4494720000000 1.0
C      1  0.4913780000000  0.5601390000000  0.5358110000000 1.0
C      1  0.4599460000000  0.5506640000000  0.4659940000000 1.0
C      1  0.4369600000000  0.5134520000000  0.5223030000000 1.0
C      1  0.4398590000000  0.4777180000000  0.4644880000000 1.0
C      1  0.4669010000000  0.4424270000000  0.5505280000000 1.0
C      1  0.5086220000000  0.4398610000000  0.4641890000000 1.0
C      1  0.4649930000000  0.4656030000000  0.4711710000000 1.0
C      1  0.4902160000000  0.4466670000000  0.5339540000000 1.0
C      1  0.5343170000000  0.4599340000000  0.4700150000000 1.0
C      1  0.5570180000000  0.4728940000000  0.5288070000000 1.0
C      1  0.5592360000000  0.5117840000000  0.4552260000000 1.0
C      1  0.5350070000000  0.5343970000000  0.5288290000000 1.0
C      1  0.5097840000000  0.5533330000000  0.4660460000000 1.0
C      1  0.4656830000000  0.5400660000000  0.5299850000000 1.0
C      1  0.4429820000000  0.5271060000000  0.4711930000000 1.0
C      1  0.4407640000000  0.4882160000000  0.5447740000000 1.0
END
