TITL C-26740-8352-23 0.00139083108396559 125000 -342.934809971959 0 0 60 (C1) n - 1
REM
REM in /home/nfs/bkarasulu/CARBON/AIRSS/Generating-Clusters/AIREBO/Higher-Symm/Only-C60
REM
REM
REM
REM
REM
REM ./C.cell (28575a23ae977d3b5fae324c64b13b57)
REM
REM compiler GCC version 9.2.1 20190827 (Red Hat 9.2.1-1)
REM options -cpp -mtune=generic -march=x86-64 -g -O0 -fpre-include=/usr/include/finclude/math-vector-fortran.h
REM seed -1710968451 -2134713832 -234025834 -1466897743 -373048407 2031099661 1908335166 -837347048 543803646 1611068738 -928706011 1276191481 2044592109 1620968077 -903748919 -2089003610 -592592698 1030856959 -1581390845 1155788432 616822524 -570324043 -1910774114 66456292 1797905996 -674233845 -1045847823 -1300120289 -1072831310 1567211964 -372971141 -149117734 1191700436
REM
CELL 1.54180   50.00000   50.00000   50.00000   90.00000   90.00000   90.00000
LATT -1
SFAC C  
C      1  0.5428910000000  0.4684330000000  0.4366440000000 1.0
C      1  0.5401290000000  0.4528710000000  0.5565790000000 1.0
C      1  0.4832580000000  0.5560910000000  0.4602840000000 1.0
C      1  0.4862360000000  0.5647110000000  0.5374850000000 1.0
C      1  0.4398390000000  0.5678420000000  0.4845570000000 1.0
C      1  0.4437650000000  0.5744500000000  0.5108720000000 1.0
C      1  0.4777450000000  0.4362700000000  0.5605110000000 1.0
C      1  0.4740110000000  0.4461100000000  0.4487390000000 1.0
C      1  0.4913450000000  0.5246620000000  0.4886130000000 1.0
C      1  0.4802700000000  0.5171810000000  0.5171250000000 1.0
C      1  0.5308830000000  0.4452780000000  0.4776100000000 1.0
C      1  0.5368060000000  0.4557420000000  0.5068640000000 1.0
C      1  0.4950600000000  0.4939020000000  0.4310390000000 1.0
C      1  0.4934600000000  0.4997400000000  0.5758830000000 1.0
C      1  0.5003840000000  0.5556250000000  0.4861830000000 1.0
C      1  0.5044790000000  0.5704790000000  0.5164950000000 1.0
C      1  0.4607610000000  0.4963060000000  0.5078750000000 1.0
C      1  0.4658470000000  0.4902750000000  0.4797770000000 1.0
C      1  0.4838150000000  0.4535810000000  0.5385030000000 1.0
C      1  0.4819320000000  0.4610000000000  0.4733890000000 1.0
C      1  0.4551220000000  0.5243740000000  0.5644300000000 1.0
C      1  0.4509930000000  0.5093040000000  0.4402580000000 1.0
C      1  0.4928920000000  0.5407950000000  0.4385990000000 1.0
C      1  0.4973040000000  0.5437850000000  0.5547640000000 1.0
C      1  0.4652230000000  0.5213000000000  0.4680000000000 1.0
C      1  0.4544030000000  0.5321630000000  0.5327770000000 1.0
C      1  0.5374520000000  0.5204600000000  0.4511170000000 1.0
C      1  0.5461460000000  0.5005980000000  0.5458590000000 1.0
C      1  0.5271580000000  0.4848100000000  0.5146720000000 1.0
C      1  0.5474060000000  0.4889240000000  0.4876690000000 1.0
C      1  0.4437450000000  0.4709300000000  0.4671900000000 1.0
C      1  0.4448890000000  0.4846280000000  0.5291450000000 1.0
C      1  0.5812350000000  0.4656380000000  0.5146610000000 1.0
C      1  0.5732660000000  0.4766560000000  0.4889970000000 1.0
C      1  0.5317250000000  0.4785470000000  0.5538890000000 1.0
C      1  0.5318800000000  0.4929060000000  0.4460980000000 1.0
C      1  0.5001480000000  0.4807940000000  0.5507510000000 1.0
C      1  0.5036170000000  0.4836830000000  0.4605130000000 1.0
C      1  0.5230870000000  0.5324100000000  0.5398040000000 1.0
C      1  0.5214000000000  0.5388620000000  0.4364770000000 1.0
C      1  0.4373310000000  0.5057580000000  0.5461380000000 1.0
C      1  0.4349780000000  0.4858460000000  0.4444100000000 1.0
C      1  0.4593540000000  0.5611430000000  0.5296420000000 1.0
C      1  0.4546990000000  0.5523650000000  0.4673800000000 1.0
C      1  0.5051120000000  0.5057380000000  0.5299080000000 1.0
C      1  0.5174530000000  0.5043600000000  0.4815320000000 1.0
C      1  0.5502020000000  0.4502700000000  0.4574220000000 1.0
C      1  0.5327660000000  0.4335800000000  0.5318210000000 1.0
C      1  0.5420740000000  0.5276820000000  0.4840470000000 1.0
C      1  0.5408830000000  0.5158970000000  0.5159320000000 1.0
C      1  0.5632450000000  0.4461620000000  0.5225650000000 1.0
C      1  0.5758720000000  0.4572630000000  0.4679910000000 1.0
C      1  0.4573190000000  0.4590180000000  0.5216110000000 1.0
C      1  0.4549890000000  0.4541600000000  0.4939360000000 1.0
C      1  0.4825630000000  0.5254050000000  0.5708640000000 1.0
C      1  0.4785750000000  0.5169180000000  0.4306250000000 1.0
C      1  0.5330100000000  0.5588850000000  0.5230420000000 1.0
C      1  0.5319040000000  0.5549810000000  0.4927180000000 1.0
C      1  0.5031660000000  0.4432750000000  0.4895650000000 1.0
C      1  0.5024940000000  0.4391820000000  0.5181520000000 1.0
END
