TITL C-26736-6558-19 0.00270059466956586 125000 -333.898374492146 0 0 60 (C1) n - 1
REM
REM in /home/nfs/bkarasulu/CARBON/AIRSS/Generating-Clusters/AIREBO/Higher-Symm/Only-C60
REM
REM
REM
REM
REM
REM ./C.cell (28575a23ae977d3b5fae324c64b13b57)
REM
REM compiler GCC version 9.2.1 20190827 (Red Hat 9.2.1-1)
REM options -cpp -mtune=generic -march=x86-64 -g -O0 -fpre-include=/usr/include/finclude/math-vector-fortran.h
REM seed 689950582 -322518608 1002958257 -807770858 221022976 -1345563530 1960473987 -2098946362 1500931724 862013864 -1091423514 405651288 -1767113777 -1305171000 -1754906952 -650463923 388876710 481340936 -498739709 -1697031662 1614822458 17474298 828377817 1099490452 700816218 2008484309 1940768358 -852488045 409500090 -738330273 1752689768 1331198123 -2123324484
REM
CELL 1.54180   50.00000   50.00000   50.00000   90.00000   90.00000   90.00000
LATT -1
SFAC C  
C      1  0.5344180000000  0.4550460000000  0.5450640000000 1.0
C      1  0.4568240000000  0.5392250000000  0.4296000000000 1.0
C      1  0.4956040000000  0.5192330000000  0.4353660000000 1.0
C      1  0.5070240000000  0.4612480000000  0.4306020000000 1.0
C      1  0.5525890000000  0.5107080000000  0.4756790000000 1.0
C      1  0.4411200000000  0.5225720000000  0.5403310000000 1.0
C      1  0.5042070000000  0.4255760000000  0.4854400000000 1.0
C      1  0.5305340000000  0.4378620000000  0.4965590000000 1.0
C      1  0.4903920000000  0.5110350000000  0.4740050000000 1.0
C      1  0.5251310000000  0.5142450000000  0.5045240000000 1.0
C      1  0.5469010000000  0.4542890000000  0.4747850000000 1.0
C      1  0.4495700000000  0.4725190000000  0.5257320000000 1.0
C      1  0.5460190000000  0.4742320000000  0.5781590000000 1.0
C      1  0.4726010000000  0.4781770000000  0.5516780000000 1.0
C      1  0.5033800000000  0.5346670000000  0.5460060000000 1.0
C      1  0.4690620000000  0.5061830000000  0.5346040000000 1.0
C      1  0.4970830000000  0.5596640000000  0.4947950000000 1.0
C      1  0.4883100000000  0.5562030000000  0.5408920000000 1.0
C      1  0.4192200000000  0.5067270000000  0.5374530000000 1.0
C      1  0.4713960000000  0.4714760000000  0.5017110000000 1.0
C      1  0.5661260000000  0.4942670000000  0.4580390000000 1.0
C      1  0.5389620000000  0.5492160000000  0.5356980000000 1.0
C      1  0.5508260000000  0.4707360000000  0.4516580000000 1.0
C      1  0.4834700000000  0.5463750000000  0.4398160000000 1.0
C      1  0.5641300000000  0.5349820000000  0.5393910000000 1.0
C      1  0.4752950000000  0.4959980000000  0.4483700000000 1.0
C      1  0.4499050000000  0.5131890000000  0.4351410000000 1.0
C      1  0.5256710000000  0.5462120000000  0.5076840000000 1.0
C      1  0.5393310000000  0.4939210000000  0.5528600000000 1.0
C      1  0.5317960000000  0.5464560000000  0.4768280000000 1.0
C      1  0.5222380000000  0.5190010000000  0.4650580000000 1.0
C      1  0.4768080000000  0.4525590000000  0.5297220000000 1.0
C      1  0.4770200000000  0.5562220000000  0.5148480000000 1.0
C      1  0.4594950000000  0.5317220000000  0.5137110000000 1.0
C      1  0.4920980000000  0.4925720000000  0.4985430000000 1.0
C      1  0.5613960000000  0.5082350000000  0.5347610000000 1.0
C      1  0.5228150000000  0.5064220000000  0.4349890000000 1.0
C      1  0.5306880000000  0.5261560000000  0.5593730000000 1.0
C      1  0.5237160000000  0.4822190000000  0.4915240000000 1.0
C      1  0.5057350000000  0.4542490000000  0.5131100000000 1.0
C      1  0.5170380000000  0.4629950000000  0.5708560000000 1.0
C      1  0.5533320000000  0.4698480000000  0.5028030000000 1.0
C      1  0.4623610000000  0.4613050000000  0.4749260000000 1.0
C      1  0.4370800000000  0.4721630000000  0.4673340000000 1.0
C      1  0.4590910000000  0.5188970000000  0.4847750000000 1.0
C      1  0.5002350000000  0.5086290000000  0.5266980000000 1.0
C      1  0.4243240000000  0.4865080000000  0.5194560000000 1.0
C      1  0.5294190000000  0.4784790000000  0.4336380000000 1.0
C      1  0.5019510000000  0.4589810000000  0.4795010000000 1.0
C      1  0.5146820000000  0.4792500000000  0.5344500000000 1.0
C      1  0.5067300000000  0.5079410000000  0.5752210000000 1.0
C      1  0.4229970000000  0.4959520000000  0.4915520000000 1.0
C      1  0.5212030000000  0.5679100000000  0.4640030000000 1.0
C      1  0.5555210000000  0.5012810000000  0.5059110000000 1.0
C      1  0.4918270000000  0.5637890000000  0.4614560000000 1.0
C      1  0.5545100000000  0.4514500000000  0.5276070000000 1.0
C      1  0.4273310000000  0.5296570000000  0.4904110000000 1.0
C      1  0.4388690000000  0.5043730000000  0.4626060000000 1.0
C      1  0.4858140000000  0.4660120000000  0.4527260000000 1.0
C      1  0.4967790000000  0.4829860000000  0.5699620000000 1.0
END
