TITL C-26726-4881-89 0.00140477585987731 125000 -367.339896572781 0 0 60 (C1) n - 1
REM
REM in /home/nfs/bkarasulu/CARBON/AIRSS/Generating-Clusters/AIREBO/Higher-Symm/Only-C60
REM
REM
REM
REM
REM
REM ./C.cell (28575a23ae977d3b5fae324c64b13b57)
REM
REM compiler GCC version 9.2.1 20190827 (Red Hat 9.2.1-1)
REM options -cpp -mtune=generic -march=x86-64 -g -O0 -fpre-include=/usr/include/finclude/math-vector-fortran.h
REM seed 1614674235 525324323 234686949 -698450960 1647983319 -1872897959 1930360291 -537871405 309142641 -1498236170 83360461 -959419732 -102341714 -794677233 -2129152987 1681044855 -854834182 -1854039313 1368404260 627959619 1368510842 1275923402 -2131825273 1237290088 483754429 150961274 -331515202 690204758 -1017113294 -241691083 -1482772049 940147542 -116581944
REM
CELL 1.54180   50.00000   50.00000   50.00000   90.00000   90.00000   90.00000
LATT -1
SFAC C  
C      1  0.5532460000000  0.4408190000000  0.4578740000000 1.0
C      1  0.4770410000000  0.4281110000000  0.4676760000000 1.0
C      1  0.4292410000000  0.4830200000000  0.4641310000000 1.0
C      1  0.4476190000000  0.5509950000000  0.4653720000000 1.0
C      1  0.5208180000000  0.5719460000000  0.4609350000000 1.0
C      1  0.5739980000000  0.5208230000000  0.4609740000000 1.0
C      1  0.5463930000000  0.4447090000000  0.5360450000000 1.0
C      1  0.4740300000000  0.4483880000000  0.5441540000000 1.0
C      1  0.4367030000000  0.4793260000000  0.5387400000000 1.0
C      1  0.4485710000000  0.5496320000000  0.5434990000000 1.0
C      1  0.5168720000000  0.5484680000000  0.5363320000000 1.0
C      1  0.5519320000000  0.5148850000000  0.5258290000000 1.0
C      1  0.5245390000000  0.4626010000000  0.5503100000000 1.0
C      1  0.4976600000000  0.4467110000000  0.5605820000000 1.0
C      1  0.4578400000000  0.4704220000000  0.5546310000000 1.0
C      1  0.4681680000000  0.5418490000000  0.5621780000000 1.0
C      1  0.4972130000000  0.5534020000000  0.5596290000000 1.0
C      1  0.5364500000000  0.5271090000000  0.5459860000000 1.0
C      1  0.5394880000000  0.4621910000000  0.4466330000000 1.0
C      1  0.4878730000000  0.4496890000000  0.4533850000000 1.0
C      1  0.4544500000000  0.4883050000000  0.4538560000000 1.0
C      1  0.4670410000000  0.5369690000000  0.4511530000000 1.0
C      1  0.5143840000000  0.5451730000000  0.4549940000000 1.0
C      1  0.5489470000000  0.5093580000000  0.4546900000000 1.0
C      1  0.4981190000000  0.4722810000000  0.5784170000000 1.0
C      1  0.4733150000000  0.4864730000000  0.5728970000000 1.0
C      1  0.4735390000000  0.5143120000000  0.5769580000000 1.0
C      1  0.5020390000000  0.5283560000000  0.5780010000000 1.0
C      1  0.5248510000000  0.5138330000000  0.5681780000000 1.0
C      1  0.5241730000000  0.4866500000000  0.5717150000000 1.0
C      1  0.4935370000000  0.4712780000000  0.4316240000000 1.0
C      1  0.4737780000000  0.4922230000000  0.4316060000000 1.0
C      1  0.4819270000000  0.5201870000000  0.4289610000000 1.0
C      1  0.5102020000000  0.5272110000000  0.4325380000000 1.0
C      1  0.5300810000000  0.5064040000000  0.4323290000000 1.0
C      1  0.5215580000000  0.4785910000000  0.4274560000000 1.0
C      1  0.5749080000000  0.5249780000000  0.5126660000000 1.0
C      1  0.5411550000000  0.4435820000000  0.5077520000000 1.0
C      1  0.4777910000000  0.4467120000000  0.5158280000000 1.0
C      1  0.4411180000000  0.4875790000000  0.5125750000000 1.0
C      1  0.4533550000000  0.5435750000000  0.5163520000000 1.0
C      1  0.5178750000000  0.5671410000000  0.5091200000000 1.0
C      1  0.5798210000000  0.5305750000000  0.4861970000000 1.0
C      1  0.5471010000000  0.4330950000000  0.4834450000000 1.0
C      1  0.4710150000000  0.4291430000000  0.4948500000000 1.0
C      1  0.4237130000000  0.4876600000000  0.4907340000000 1.0
C      1  0.4445390000000  0.5552160000000  0.4923400000000 1.0
C      1  0.5190420000000  0.5815840000000  0.4869310000000 1.0
C      1  0.4750930000000  0.5255070000000  0.5135970000000 1.0
C      1  0.5017940000000  0.5378110000000  0.5087090000000 1.0
C      1  0.5381810000000  0.4961200000000  0.5102490000000 1.0
C      1  0.5227370000000  0.4708230000000  0.5173620000000 1.0
C      1  0.4925370000000  0.4717130000000  0.5055860000000 1.0
C      1  0.4694360000000  0.4967660000000  0.5065540000000 1.0
C      1  0.4858920000000  0.5206400000000  0.4685410000000 1.0
C      1  0.5128290000000  0.5279830000000  0.4817340000000 1.0
C      1  0.5329080000000  0.5053090000000  0.4821880000000 1.0
C      1  0.5253260000000  0.4796600000000  0.4670460000000 1.0
C      1  0.4980140000000  0.4710630000000  0.4733470000000 1.0
C      1  0.4761810000000  0.4930660000000  0.4760310000000 1.0
END
