TITL C-26738-6379-2 0.0005427507324575 125000 -328.99956819886 0 0 60 (C1) n - 1
REM
REM in /home/nfs/bkarasulu/CARBON/AIRSS/Generating-Clusters/AIREBO/Higher-Symm/Only-C60
REM
REM
REM
REM
REM
REM ./C.cell (28575a23ae977d3b5fae324c64b13b57)
REM
REM compiler GCC version 9.2.1 20190827 (Red Hat 9.2.1-1)
REM options -cpp -mtune=generic -march=x86-64 -g -O0 -fpre-include=/usr/include/finclude/math-vector-fortran.h
REM seed 82894211 1559620939 -919209422 440860309 -1057338594 1193292710 -1101913953 584813358 304302746 -119787394 137998628 216889061 85132088 -1514311333 111989558 1828417700 -2061088534 -1085567550 2035081172 1075971131 -1049881656 -940521400 -1175591425 76762852 1165618084 -610128721 -801807418 299675212 997470306 -84182158 601876932 1713576176 346460690
REM
CELL 1.54180   50.00000   50.00000   50.00000   90.00000   90.00000   90.00000
LATT -1
SFAC C  
C      1  0.5141490000000  0.4370990000000  0.5185650000000 1.0
C      1  0.4871910000000  0.4431260000000  0.5229020000000 1.0
C      1  0.4752180000000  0.4429640000000  0.4976990000000 1.0
C      1  0.4943530000000  0.4436940000000  0.4768000000000 1.0
C      1  0.5191140000000  0.4366340000000  0.4903410000000 1.0
C      1  0.5061910000000  0.4467530000000  0.4270530000000 1.0
C      1  0.5568920000000  0.4607660000000  0.5016610000000 1.0
C      1  0.5522100000000  0.4344140000000  0.5534520000000 1.0
C      1  0.4519670000000  0.4592740000000  0.5325450000000 1.0
C      1  0.4409730000000  0.4549800000000  0.4604790000000 1.0
C      1  0.4854480000000  0.5677470000000  0.5196350000000 1.0
C      1  0.4757040000000  0.5676440000000  0.4924600000000 1.0
C      1  0.4985590000000  0.5685600000000  0.4752220000000 1.0
C      1  0.5221340000000  0.5684390000000  0.4916560000000 1.0
C      1  0.5140520000000  0.5680340000000  0.5192030000000 1.0
C      1  0.5323270000000  0.5114400000000  0.5635270000000 1.0
C      1  0.4475160000000  0.5156810000000  0.5541520000000 1.0
C      1  0.4387060000000  0.5079090000000  0.4679440000000 1.0
C      1  0.5124470000000  0.5162670000000  0.4261830000000 1.0
C      1  0.5716650000000  0.5149160000000  0.4868350000000 1.0
C      1  0.5129720000000  0.5322410000000  0.5556550000000 1.0
C      1  0.4508870000000  0.5340420000000  0.5300750000000 1.0
C      1  0.4577650000000  0.5302590000000  0.4625340000000 1.0
C      1  0.5228910000000  0.5359990000000  0.4459450000000 1.0
C      1  0.5560880000000  0.5341620000000  0.5036650000000 1.0
C      1  0.5222590000000  0.4993890000000  0.5147790000000 1.0
C      1  0.4931360000000  0.4979820000000  0.5270940000000 1.0
C      1  0.4731480000000  0.5000950000000  0.5049140000000 1.0
C      1  0.4895130000000  0.4993450000000  0.4774190000000 1.0
C      1  0.5197750000000  0.5002600000000  0.4848110000000 1.0
C      1  0.4746440000000  0.5495500000000  0.5366020000000 1.0
C      1  0.4566430000000  0.5492000000000  0.4852990000000 1.0
C      1  0.4986860000000  0.5503610000000  0.4547990000000 1.0
C      1  0.5411020000000  0.5501620000000  0.4848050000000 1.0
C      1  0.5260630000000  0.5497560000000  0.5358500000000 1.0
C      1  0.4817670000000  0.5194980000000  0.5508400000000 1.0
C      1  0.4461950000000  0.5200830000000  0.4994180000000 1.0
C      1  0.4870880000000  0.5188090000000  0.4496410000000 1.0
C      1  0.5423240000000  0.5201250000000  0.4689010000000 1.0
C      1  0.5428200000000  0.5204400000000  0.5318140000000 1.0
C      1  0.4461790000000  0.4848320000000  0.4464930000000 1.0
C      1  0.5336210000000  0.4979410000000  0.4225650000000 1.0
C      1  0.5861250000000  0.5019050000000  0.5079940000000 1.0
C      1  0.5187130000000  0.4880660000000  0.5689960000000 1.0
C      1  0.4222840000000  0.5052120000000  0.5441030000000 1.0
C      1  0.4462920000000  0.4814500000000  0.5093890000000 1.0
C      1  0.4639030000000  0.4774020000000  0.4737460000000 1.0
C      1  0.5273650000000  0.4750480000000  0.4653760000000 1.0
C      1  0.5461160000000  0.4804500000000  0.5254310000000 1.0
C      1  0.5105350000000  0.4721620000000  0.5415590000000 1.0
C      1  0.4791450000000  0.4627070000000  0.5495200000000 1.0
C      1  0.4481790000000  0.4543720000000  0.4926830000000 1.0
C      1  0.4996300000000  0.4632860000000  0.4494530000000 1.0
C      1  0.5396540000000  0.4534190000000  0.4821590000000 1.0
C      1  0.5345910000000  0.4514100000000  0.5362700000000 1.0
C      1  0.5458060000000  0.4934880000000  0.4470020000000 1.0
C      1  0.5704410000000  0.4996590000000  0.5308210000000 1.0
C      1  0.4869910000000  0.4904200000000  0.5676850000000 1.0
C      1  0.4232360000000  0.5009130000000  0.5169260000000 1.0
C      1  0.4786120000000  0.4877590000000  0.4386600000000 1.0
END
