TITL C-26730-8313-173 -1308.87705803926 125000 -318.74765170741 0 0 60 (C1) n - 1
REM
REM in /home/nfs/bkarasulu/CARBON/AIRSS/Generating-Clusters/AIREBO/Higher-Symm/Only-C60
REM
REM
REM
REM
REM
REM ./C.cell (28575a23ae977d3b5fae324c64b13b57)
REM
REM compiler GCC version 9.2.1 20190827 (Red Hat 9.2.1-1)
REM options -cpp -mtune=generic -march=x86-64 -g -O0 -fpre-include=/usr/include/finclude/math-vector-fortran.h
REM seed -1026775374 -359367277 1706033145 506492092 -380813374 -2086183764 1944967071 -1357111085 -2115970234 711204631 -126033498 -832825496 -380557913 -350010486 -1447111998 1765813343 -612981151 1746181381 -1637810496 1616331129 -2140152864 1841402172 -1279351745 -1105401654 -1875601317 450710290 -158151165 -323576139 -1953513003 304376999 1580802959 -1281007527 1059857804
REM
CELL 1.54180   50.00000   50.00000   50.00000   90.00000   90.00000   90.00000
LATT -1
SFAC C  
C      1  0.4909140000000  0.5069680000000  0.4875630000000 1.0
C      1  0.5140080000000  0.5037700000000  0.5113200000000 1.0
C      1  0.5399930000000  0.4844300000000  0.4599480000000 1.0
C      1  0.4684330000000  0.4913080000000  0.5364550000000 1.0
C      1  0.4421740000000  0.5021000000000  0.5039120000000 1.0
C      1  0.5602380000000  0.4987520000000  0.4913120000000 1.0
C      1  0.4897400000000  0.4268170000000  0.5233340000000 1.0
C      1  0.5098940000000  0.4320690000000  0.4738680000000 1.0
C      1  0.4549550000000  0.5750800000000  0.5051310000000 1.0
C      1  0.5395750000000  0.5727740000000  0.5034900000000 1.0
C      1  0.5125410000000  0.4683780000000  0.5403690000000 1.0
C      1  0.4861970000000  0.4596200000000  0.4564880000000 1.0
C      1  0.4551360000000  0.4841620000000  0.4609970000000 1.0
C      1  0.5495610000000  0.4834890000000  0.5407030000000 1.0
C      1  0.4423600000000  0.5115930000000  0.5349840000000 1.0
C      1  0.5695080000000  0.4936730000000  0.4639550000000 1.0
C      1  0.5323730000000  0.4356780000000  0.4530170000000 1.0
C      1  0.4710190000000  0.4431170000000  0.5441400000000 1.0
C      1  0.4962380000000  0.5737890000000  0.4629410000000 1.0
C      1  0.4894960000000  0.5513310000000  0.5484960000000 1.0
C      1  0.4708100000000  0.5679250000000  0.4834880000000 1.0
C      1  0.5195020000000  0.5604850000000  0.5239480000000 1.0
C      1  0.4567860000000  0.4398720000000  0.4859380000000 1.0
C      1  0.5419710000000  0.4408230000000  0.5150290000000 1.0
C      1  0.5016340000000  0.4615450000000  0.4851870000000 1.0
C      1  0.4955520000000  0.4592600000000  0.5170150000000 1.0
C      1  0.5384630000000  0.4547130000000  0.5415120000000 1.0
C      1  0.4571470000000  0.4527720000000  0.4588570000000 1.0
C      1  0.5012770000000  0.5342040000000  0.5145170000000 1.0
C      1  0.4916370000000  0.5410320000000  0.4853040000000 1.0
C      1  0.4550980000000  0.5242340000000  0.4886950000000 1.0
C      1  0.5463530000000  0.5223130000000  0.4971200000000 1.0
C      1  0.5177360000000  0.4680150000000  0.4211810000000 1.0
C      1  0.4811070000000  0.4757470000000  0.5809460000000 1.0
C      1  0.5240310000000  0.4821920000000  0.4883650000000 1.0
C      1  0.4774260000000  0.4838410000000  0.5078130000000 1.0
C      1  0.5177050000000  0.5078410000000  0.4579150000000 1.0
C      1  0.4862680000000  0.5175790000000  0.5474340000000 1.0
C      1  0.4626410000000  0.5598420000000  0.5294590000000 1.0
C      1  0.5242640000000  0.5621480000000  0.4760360000000 1.0
C      1  0.4848580000000  0.4995390000000  0.4549360000000 1.0
C      1  0.5266820000000  0.5056780000000  0.5428130000000 1.0
C      1  0.5434230000000  0.5287330000000  0.5242490000000 1.0
C      1  0.4641450000000  0.5258260000000  0.4609520000000 1.0
C      1  0.4737960000000  0.5511610000000  0.4510500000000 1.0
C      1  0.5211720000000  0.5386710000000  0.5489300000000 1.0
C      1  0.5501280000000  0.4733080000000  0.5082660000000 1.0
C      1  0.4517860000000  0.4728450000000  0.4928450000000 1.0
C      1  0.5015270000000  0.4905430000000  0.5599710000000 1.0
C      1  0.4934410000000  0.4754670000000  0.4325110000000 1.0
C      1  0.5905050000000  0.4995310000000  0.4482980000000 1.0
C      1  0.4234540000000  0.5204450000000  0.5557380000000 1.0
C      1  0.4813700000000  0.4267260000000  0.4919000000000 1.0
C      1  0.5185160000000  0.4286840000000  0.5053140000000 1.0
C      1  0.5358520000000  0.4606000000000  0.4416080000000 1.0
C      1  0.4692170000000  0.4676270000000  0.5551320000000 1.0
C      1  0.5054710000000  0.5835060000000  0.4946630000000 1.0
C      1  0.4914180000000  0.5773950000000  0.5250140000000 1.0
C      1  0.5231270000000  0.5307620000000  0.4775850000000 1.0
C      1  0.4683490000000  0.5276750000000  0.5200440000000 1.0
END
