TITL C-26740-8352-143 0.0015359977277412 125000 -304.452855752847 0 0 60 (C1) n - 1
REM
REM in /home/nfs/bkarasulu/CARBON/AIRSS/Generating-Clusters/AIREBO/Higher-Symm/Only-C60
REM
REM
REM
REM
REM
REM ./C.cell (28575a23ae977d3b5fae324c64b13b57)
REM
REM compiler GCC version 9.2.1 20190827 (Red Hat 9.2.1-1)
REM options -cpp -mtune=generic -march=x86-64 -g -O0 -fpre-include=/usr/include/finclude/math-vector-fortran.h
REM seed 1827520737 -1878686658 911205601 884196269 -336640450 -424618320 1992414655 587360155 -938242624 100381221 304106423 -557682832 1746597121 1451088559 1790474067 1521194186 1148111438 34467215 -740220082 -599150924 -410563333 -2047663402 311246742 -1694843902 -1526507007 -1222059463 1883624961 2108363547 558806508 92424256 -1353555478 -425426272 -96460135
REM
CELL 1.54180   50.00000   50.00000   50.00000   90.00000   90.00000   90.00000
LATT -1
SFAC C  
C      1  0.5176510000000  0.5255180000000  0.4544770000000 1.0
C      1  0.4914030000000  0.5543190000000  0.4460780000000 1.0
C      1  0.5412330000000  0.5540160000000  0.4966500000000 1.0
C      1  0.4958240000000  0.5005260000000  0.4470040000000 1.0
C      1  0.4545950000000  0.4627400000000  0.5226850000000 1.0
C      1  0.5367140000000  0.5474240000000  0.5426450000000 1.0
C      1  0.5513660000000  0.4729240000000  0.5342200000000 1.0
C      1  0.5216380000000  0.4825910000000  0.5208430000000 1.0
C      1  0.4941780000000  0.5658220000000  0.4953070000000 1.0
C      1  0.4313110000000  0.4932150000000  0.4787020000000 1.0
C      1  0.5044730000000  0.5238240000000  0.5419650000000 1.0
C      1  0.5297890000000  0.4497610000000  0.5434930000000 1.0
C      1  0.4442390000000  0.4793660000000  0.5417190000000 1.0
C      1  0.4365000000000  0.4972800000000  0.5068560000000 1.0
C      1  0.4830220000000  0.5292520000000  0.4340250000000 1.0
C      1  0.5167980000000  0.5684350000000  0.5426760000000 1.0
C      1  0.4692510000000  0.4922640000000  0.4665450000000 1.0
C      1  0.5241180000000  0.4519250000000  0.4523140000000 1.0
C      1  0.5408190000000  0.5084710000000  0.4363440000000 1.0
C      1  0.5210700000000  0.4241100000000  0.5256290000000 1.0
C      1  0.4723370000000  0.4499470000000  0.4637610000000 1.0
C      1  0.4792630000000  0.5583340000000  0.4716170000000 1.0
C      1  0.4604630000000  0.5048960000000  0.5487930000000 1.0
C      1  0.5358540000000  0.4325900000000  0.4966890000000 1.0
C      1  0.4770130000000  0.4957620000000  0.5217540000000 1.0
C      1  0.4926940000000  0.4535390000000  0.4445180000000 1.0
C      1  0.5480290000000  0.4827920000000  0.4899300000000 1.0
C      1  0.5085180000000  0.4687710000000  0.4975330000000 1.0
C      1  0.4657800000000  0.5303070000000  0.4803280000000 1.0
C      1  0.5459810000000  0.5363590000000  0.5180990000000 1.0
C      1  0.4904220000000  0.5608800000000  0.5381930000000 1.0
C      1  0.5270600000000  0.4985690000000  0.5657960000000 1.0
C      1  0.4367530000000  0.5445030000000  0.5217440000000 1.0
C      1  0.4461420000000  0.4673460000000  0.4654660000000 1.0
C      1  0.4931460000000  0.4346920000000  0.5417800000000 1.0
C      1  0.5531550000000  0.5126380000000  0.4741240000000 1.0
C      1  0.4713160000000  0.4385530000000  0.5250620000000 1.0
C      1  0.5409170000000  0.4824370000000  0.4455790000000 1.0
C      1  0.5210760000000  0.5740250000000  0.4990180000000 1.0
C      1  0.5001860000000  0.4903450000000  0.5460670000000 1.0
C      1  0.5476650000000  0.4807970000000  0.5647570000000 1.0
C      1  0.4697600000000  0.4782930000000  0.4956940000000 1.0
C      1  0.4829820000000  0.4469570000000  0.4952910000000 1.0
C      1  0.5427180000000  0.5430300000000  0.4693620000000 1.0
C      1  0.5030060000000  0.4590610000000  0.5568720000000 1.0
C      1  0.4832390000000  0.5070520000000  0.5713270000000 1.0
C      1  0.5495420000000  0.5025280000000  0.5175910000000 1.0
C      1  0.5221170000000  0.5581310000000  0.4459300000000 1.0
C      1  0.5148370000000  0.4809830000000  0.4673500000000 1.0
C      1  0.4767910000000  0.5370310000000  0.5566400000000 1.0
C      1  0.4993900000000  0.5259150000000  0.4831980000000 1.0
C      1  0.5053220000000  0.4226060000000  0.4954530000000 1.0
C      1  0.4892010000000  0.5375290000000  0.5135000000000 1.0
C      1  0.5308870000000  0.5272690000000  0.5630970000000 1.0
C      1  0.5230590000000  0.5058200000000  0.4884030000000 1.0
C      1  0.4896070000000  0.4753660000000  0.4265900000000 1.0
C      1  0.4583520000000  0.5226950000000  0.5126240000000 1.0
C      1  0.4386650000000  0.5178910000000  0.4660000000000 1.0
C      1  0.4590720000000  0.5154810000000  0.4438160000000 1.0
C      1  0.5416940000000  0.4544970000000  0.4804740000000 1.0
END
