TITL C-26738-6379-131 -0.00432275754954513 125000 -342.166487753684 0 0 60 (C1) n - 1
REM
REM in /home/nfs/bkarasulu/CARBON/AIRSS/Generating-Clusters/AIREBO/Higher-Symm/Only-C60
REM
REM
REM
REM
REM
REM ./C.cell (28575a23ae977d3b5fae324c64b13b57)
REM
REM compiler GCC version 9.2.1 20190827 (Red Hat 9.2.1-1)
REM options -cpp -mtune=generic -march=x86-64 -g -O0 -fpre-include=/usr/include/finclude/math-vector-fortran.h
REM seed 2017653512 1130293870 1706788460 -2070242132 -432550454 -1163295258 -732500918 262463920 1517721074 1382737138 -133862538 1589410083 445864074 1531191173 1963442945 -1418201670 -2080944461 477297619 993019948 -1648377930 1792197253 1424859469 -295543697 -864031821 816006663 657933709 800119407 -2136046482 2018312616 -1634194556 -2065399770 295630983 -1584471873
REM
CELL 1.54180   50.00000   50.00000   50.00000   90.00000   90.00000   90.00000
LATT -1
SFAC C  
C      1  0.5476240000000  0.4569310000000  0.4576210000000 1.0
C      1  0.5587290000000  0.5225520000000  0.4625660000000 1.0
C      1  0.5616450000000  0.5432170000000  0.5257320000000 1.0
C      1  0.5424530000000  0.5145860000000  0.5679680000000 1.0
C      1  0.5571480000000  0.4421170000000  0.5312710000000 1.0
C      1  0.4406580000000  0.5387970000000  0.4510260000000 1.0
C      1  0.4369880000000  0.4686880000000  0.4512440000000 1.0
C      1  0.4537220000000  0.4512200000000  0.5181470000000 1.0
C      1  0.4633470000000  0.4777320000000  0.5793210000000 1.0
C      1  0.4440420000000  0.5521810000000  0.5276870000000 1.0
C      1  0.5124030000000  0.5143540000000  0.5296050000000 1.0
C      1  0.5029410000000  0.4843560000000  0.5250570000000 1.0
C      1  0.5163260000000  0.4700080000000  0.4996320000000 1.0
C      1  0.5180410000000  0.4902690000000  0.4752250000000 1.0
C      1  0.5195670000000  0.5197790000000  0.4837550000000 1.0
C      1  0.4757340000000  0.4836010000000  0.5103660000000 1.0
C      1  0.4834490000000  0.5255950000000  0.5173050000000 1.0
C      1  0.4904490000000  0.5305160000000  0.4882480000000 1.0
C      1  0.4876500000000  0.5038780000000  0.4672840000000 1.0
C      1  0.4699020000000  0.4859830000000  0.4831700000000 1.0
C      1  0.4518770000000  0.5135130000000  0.5213660000000 1.0
C      1  0.4506080000000  0.4816200000000  0.5299260000000 1.0
C      1  0.4556530000000  0.4629730000000  0.4709270000000 1.0
C      1  0.4496910000000  0.5149120000000  0.4386720000000 1.0
C      1  0.4304270000000  0.5329650000000  0.5029830000000 1.0
C      1  0.5600330000000  0.4903080000000  0.5224700000000 1.0
C      1  0.5428940000000  0.5177410000000  0.5177830000000 1.0
C      1  0.5463370000000  0.5363520000000  0.4895210000000 1.0
C      1  0.5422610000000  0.4868640000000  0.4554050000000 1.0
C      1  0.5462730000000  0.4630920000000  0.5070420000000 1.0
C      1  0.4775870000000  0.5107590000000  0.4400250000000 1.0
C      1  0.4571910000000  0.5616230000000  0.4487850000000 1.0
C      1  0.4706910000000  0.5500680000000  0.5324500000000 1.0
C      1  0.4898470000000  0.4769160000000  0.5729010000000 1.0
C      1  0.4690130000000  0.4476750000000  0.4941200000000 1.0
C      1  0.5413690000000  0.5166790000000  0.4390830000000 1.0
C      1  0.5272420000000  0.4387930000000  0.4508070000000 1.0
C      1  0.5381630000000  0.4296330000000  0.5467010000000 1.0
C      1  0.5182450000000  0.5244460000000  0.5583010000000 1.0
C      1  0.5260840000000  0.5624920000000  0.4815950000000 1.0
C      1  0.4244590000000  0.5273340000000  0.5359800000000 1.0
C      1  0.4443370000000  0.4809450000000  0.5601280000000 1.0
C      1  0.4388050000000  0.4312090000000  0.5295490000000 1.0
C      1  0.4343940000000  0.4913770000000  0.4358960000000 1.0
C      1  0.4250400000000  0.5364000000000  0.4741960000000 1.0
C      1  0.5775580000000  0.4634280000000  0.5314350000000 1.0
C      1  0.5618010000000  0.5059340000000  0.5509780000000 1.0
C      1  0.5711050000000  0.5564260000000  0.5034540000000 1.0
C      1  0.5736380000000  0.4975270000000  0.4656370000000 1.0
C      1  0.5604320000000  0.4519810000000  0.4812500000000 1.0
C      1  0.5228170000000  0.5219930000000  0.4197800000000 1.0
C      1  0.4996230000000  0.5576330000000  0.4764490000000 1.0
C      1  0.5046060000000  0.5472130000000  0.5665180000000 1.0
C      1  0.5142920000000  0.4421410000000  0.5505220000000 1.0
C      1  0.5085920000000  0.4311120000000  0.4697140000000 1.0
C      1  0.4964170000000  0.5153700000000  0.4203140000000 1.0
C      1  0.4976310000000  0.4461400000000  0.4909110000000 1.0
C      1  0.5035980000000  0.4676620000000  0.5505920000000 1.0
C      1  0.4871980000000  0.5619310000000  0.5513420000000 1.0
C      1  0.4793490000000  0.5704590000000  0.4622600000000 1.0
END
