TITL C-26738-6379-181 0.00189871413635862 125000 -352.181292107297 0 0 60 (C1) n - 1
REM
REM in /home/nfs/bkarasulu/CARBON/AIRSS/Generating-Clusters/AIREBO/Higher-Symm/Only-C60
REM
REM
REM
REM
REM
REM ./C.cell (28575a23ae977d3b5fae324c64b13b57)
REM
REM compiler GCC version 9.2.1 20190827 (Red Hat 9.2.1-1)
REM options -cpp -mtune=generic -march=x86-64 -g -O0 -fpre-include=/usr/include/finclude/math-vector-fortran.h
REM seed -1092835169 1593548878 -1619492163 -1104946381 1605241344 -1604701878 -1524814580 -2016360724 -896088377 -1923472784 248807133 -1493933444 -1424883960 -704068152 474734215 -274728901 213434954 -574887446 711511976 -273748949 -1414829145 -1487406563 -65704956 1098140890 -1374870901 -814537622 -1852875401 2122828940 2045646880 1149713889 -1533359706 1274976165 -550122955
REM
CELL 1.54180   50.00000   50.00000   50.00000   90.00000   90.00000   90.00000
LATT -1
SFAC C  
C      1  0.5068920000000  0.5431460000000  0.4681870000000 1.0
C      1  0.5201140000000  0.4379430000000  0.4840200000000 1.0
C      1  0.5216610000000  0.5202320000000  0.5599110000000 1.0
C      1  0.5050900000000  0.4527700000000  0.4660480000000 1.0
C      1  0.5178180000000  0.5618120000000  0.4866830000000 1.0
C      1  0.5090820000000  0.4949750000000  0.5594010000000 1.0
C      1  0.5442850000000  0.5709790000000  0.4833180000000 1.0
C      1  0.5498430000000  0.4656010000000  0.4352500000000 1.0
C      1  0.5276820000000  0.4735170000000  0.5570400000000 1.0
C      1  0.5467820000000  0.4309570000000  0.4786000000000 1.0
C      1  0.5484260000000  0.5406730000000  0.4329160000000 1.0
C      1  0.5469520000000  0.5217050000000  0.5728110000000 1.0
C      1  0.4374580000000  0.5162570000000  0.5314200000000 1.0
C      1  0.4527290000000  0.5151120000000  0.4740420000000 1.0
C      1  0.4431460000000  0.4712080000000  0.5063070000000 1.0
C      1  0.4485010000000  0.4891910000000  0.5334990000000 1.0
C      1  0.4530640000000  0.4814100000000  0.4754140000000 1.0
C      1  0.4383090000000  0.5285690000000  0.5009020000000 1.0
C      1  0.4860800000000  0.4401460000000  0.5217200000000 1.0
C      1  0.4888410000000  0.5392980000000  0.5485510000000 1.0
C      1  0.5028030000000  0.5138880000000  0.4286420000000 1.0
C      1  0.4788680000000  0.5616370000000  0.5115820000000 1.0
C      1  0.4844060000000  0.4570520000000  0.5499300000000 1.0
C      1  0.5012450000000  0.4861660000000  0.4293730000000 1.0
C      1  0.4348680000000  0.5547090000000  0.5229720000000 1.0
C      1  0.4550610000000  0.4889170000000  0.4441200000000 1.0
C      1  0.4378310000000  0.4606990000000  0.5443830000000 1.0
C      1  0.4361720000000  0.4414400000000  0.5212120000000 1.0
C      1  0.4558500000000  0.5184780000000  0.4407950000000 1.0
C      1  0.4402290000000  0.5401000000000  0.5502530000000 1.0
C      1  0.4573920000000  0.4233620000000  0.5207010000000 1.0
C      1  0.4654770000000  0.5445300000000  0.5634240000000 1.0
C      1  0.4778530000000  0.5273590000000  0.4255090000000 1.0
C      1  0.4544520000000  0.5746550000000  0.5170270000000 1.0
C      1  0.4565340000000  0.4521680000000  0.5635290000000 1.0
C      1  0.4747340000000  0.4758520000000  0.4282630000000 1.0
C      1  0.5649300000000  0.5019250000000  0.5646210000000 1.0
C      1  0.5689780000000  0.5464690000000  0.4506610000000 1.0
C      1  0.5632240000000  0.4552050000000  0.4798730000000 1.0
C      1  0.5526280000000  0.4830240000000  0.5470610000000 1.0
C      1  0.5700320000000  0.4651460000000  0.4543580000000 1.0
C      1  0.5613190000000  0.5490040000000  0.4780350000000 1.0
C      1  0.4810810000000  0.4620280000000  0.4738650000000 1.0
C      1  0.4807140000000  0.4897170000000  0.5421800000000 1.0
C      1  0.4718980000000  0.5320690000000  0.5044070000000 1.0
C      1  0.4829190000000  0.5308140000000  0.4746170000000 1.0
C      1  0.4835860000000  0.5176700000000  0.5281270000000 1.0
C      1  0.4698240000000  0.4547020000000  0.4995310000000 1.0
C      1  0.5418320000000  0.5182180000000  0.5156170000000 1.0
C      1  0.5331240000000  0.5116480000000  0.4706360000000 1.0
C      1  0.5396160000000  0.4697310000000  0.4995810000000 1.0
C      1  0.5485870000000  0.4911690000000  0.5204110000000 1.0
C      1  0.5278600000000  0.4847500000000  0.4736090000000 1.0
C      1  0.5483420000000  0.5257680000000  0.4892210000000 1.0
C      1  0.5208990000000  0.4708160000000  0.4460340000000 1.0
C      1  0.5154120000000  0.4512090000000  0.5456560000000 1.0
C      1  0.5069680000000  0.5606180000000  0.5127190000000 1.0
C      1  0.5232170000000  0.5278060000000  0.4457380000000 1.0
C      1  0.5185320000000  0.5366880000000  0.5321410000000 1.0
C      1  0.5179490000000  0.4472930000000  0.5135460000000 1.0
END
