TITL C-26738-6379-41 -0.000342394864023255 125000 -316.859635191325 0 0 60 (C1) n - 1
REM
REM in /home/nfs/bkarasulu/CARBON/AIRSS/Generating-Clusters/AIREBO/Higher-Symm/Only-C60
REM
REM
REM
REM
REM
REM ./C.cell (28575a23ae977d3b5fae324c64b13b57)
REM
REM compiler GCC version 9.2.1 20190827 (Red Hat 9.2.1-1)
REM options -cpp -mtune=generic -march=x86-64 -g -O0 -fpre-include=/usr/include/finclude/math-vector-fortran.h
REM seed -1057895320 167739211 427692890 -256261844 1906308668 -853115381 -1190531081 -827603368 1145393749 -37395085 -831586194 -112915605 -1904929337 -1605173353 -1000516007 742504552 1249265071 -1221989881 641833414 2128894575 1132162739 -686127208 -1166153706 1737990663 1282244834 -608752167 -596045014 1772310085 81131189 1622450986 -1786357352 -672288056 -1172840681
REM
CELL 1.54180   50.00000   50.00000   50.00000   90.00000   90.00000   90.00000
LATT -1
SFAC C  
C      1  0.5488100000000  0.4668420000000  0.4594950000000 1.0
C      1  0.4951150000000  0.4453770000000  0.4682950000000 1.0
C      1  0.4397180000000  0.4909810000000  0.4664870000000 1.0
C      1  0.4839980000000  0.5749670000000  0.4669640000000 1.0
C      1  0.5678450000000  0.5341410000000  0.4659900000000 1.0
C      1  0.5461460000000  0.5382860000000  0.5422450000000 1.0
C      1  0.4697160000000  0.5717250000000  0.5271610000000 1.0
C      1  0.4410400000000  0.4955760000000  0.5507060000000 1.0
C      1  0.4756040000000  0.4506660000000  0.5288760000000 1.0
C      1  0.5463190000000  0.4633490000000  0.5373970000000 1.0
C      1  0.4456860000000  0.5707200000000  0.5132920000000 1.0
C      1  0.5539450000000  0.5552260000000  0.5221660000000 1.0
C      1  0.5723320000000  0.4689840000000  0.5307330000000 1.0
C      1  0.4911270000000  0.4270540000000  0.5344580000000 1.0
C      1  0.4225240000000  0.4800240000000  0.5380090000000 1.0
C      1  0.4712720000000  0.4297330000000  0.4636060000000 1.0
C      1  0.5555800000000  0.4411350000000  0.4662840000000 1.0
C      1  0.5870220000000  0.5282390000000  0.4853550000000 1.0
C      1  0.5048040000000  0.5870710000000  0.4806640000000 1.0
C      1  0.4246370000000  0.5130350000000  0.4736630000000 1.0
C      1  0.4956230000000  0.5272910000000  0.5287980000000 1.0
C      1  0.5258830000000  0.5124610000000  0.5333790000000 1.0
C      1  0.5173400000000  0.4796820000000  0.5302990000000 1.0
C      1  0.4879940000000  0.4761320000000  0.5392350000000 1.0
C      1  0.4713910000000  0.5058100000000  0.5392710000000 1.0
C      1  0.4951070000000  0.4738400000000  0.4578790000000 1.0
C      1  0.5226220000000  0.4877970000000  0.4651750000000 1.0
C      1  0.5178310000000  0.5191290000000  0.4630530000000 1.0
C      1  0.4842300000000  0.5231610000000  0.4673140000000 1.0
C      1  0.4734940000000  0.4922370000000  0.4727180000000 1.0
C      1  0.4738940000000  0.5129520000000  0.5728650000000 1.0
C      1  0.4994120000000  0.5247460000000  0.5606260000000 1.0
C      1  0.5237150000000  0.5082150000000  0.5673140000000 1.0
C      1  0.5136320000000  0.4845520000000  0.5810020000000 1.0
C      1  0.4862970000000  0.4844310000000  0.5699230000000 1.0
C      1  0.4665790000000  0.4972710000000  0.4247110000000 1.0
C      1  0.4902550000000  0.4793390000000  0.4276650000000 1.0
C      1  0.5112300000000  0.4983280000000  0.4176940000000 1.0
C      1  0.5058940000000  0.5227750000000  0.4337940000000 1.0
C      1  0.4750700000000  0.5232240000000  0.4352860000000 1.0
C      1  0.5444940000000  0.4834080000000  0.4908470000000 1.0
C      1  0.5025180000000  0.4440650000000  0.4948210000000 1.0
C      1  0.4522720000000  0.4787150000000  0.4956140000000 1.0
C      1  0.4760850000000  0.5484330000000  0.4823560000000 1.0
C      1  0.5391120000000  0.5330110000000  0.4797160000000 1.0
C      1  0.5434480000000  0.5117030000000  0.5048860000000 1.0
C      1  0.4909010000000  0.5524470000000  0.5129420000000 1.0
C      1  0.4530150000000  0.5079510000000  0.5110770000000 1.0
C      1  0.4643820000000  0.4518420000000  0.5035690000000 1.0
C      1  0.5291730000000  0.4577790000000  0.5071210000000 1.0
C      1  0.5380720000000  0.5570680000000  0.4991840000000 1.0
C      1  0.5749740000000  0.4761050000000  0.5037450000000 1.0
C      1  0.5118970000000  0.4225420000000  0.5146950000000 1.0
C      1  0.4226590000000  0.4745770000000  0.5110610000000 1.0
C      1  0.4470010000000  0.5510000000000  0.4930030000000 1.0
C      1  0.5503460000000  0.4351570000000  0.4931230000000 1.0
C      1  0.5750670000000  0.5195250000000  0.5090080000000 1.0
C      1  0.5141480000000  0.5699490000000  0.5011540000000 1.0
C      1  0.4361870000000  0.5258140000000  0.4966410000000 1.0
C      1  0.4535180000000  0.4324060000000  0.4855950000000 1.0
END
