TITL C-26731-8310-179 0.000337013069245151 125000 -346.727604254293 0 0 60 (C1) n - 1
REM
REM in /home/nfs/bkarasulu/CARBON/AIRSS/Generating-Clusters/AIREBO/Higher-Symm/Only-C60
REM
REM
REM
REM
REM
REM ./C.cell (28575a23ae977d3b5fae324c64b13b57)
REM
REM compiler GCC version 9.2.1 20190827 (Red Hat 9.2.1-1)
REM options -cpp -mtune=generic -march=x86-64 -g -O0 -fpre-include=/usr/include/finclude/math-vector-fortran.h
REM seed -281782157 883625129 -834053141 1158518443 -815707342 683849208 -746679641 38093336 240043767 2115767611 -28360239 -439716299 1263592412 1269450429 1907731608 1881116989 -828003658 661458503 -1891660741 1797169688 -1584617989 2060648511 -1634721178 -841425322 1286913982 -1955688696 -336160490 1428551937 -517114736 -1520721804 1166456924 1396572618 1369142497
REM
CELL 1.54180   50.00000   50.00000   50.00000   90.00000   90.00000   90.00000
LATT -1
SFAC C  
C      1  0.5457450000000  0.5004740000000  0.4555180000000 1.0
C      1  0.5112710000000  0.4594910000000  0.4535520000000 1.0
C      1  0.4638990000000  0.4809230000000  0.4486110000000 1.0
C      1  0.4661720000000  0.5312010000000  0.4470610000000 1.0
C      1  0.5152290000000  0.5446720000000  0.4532450000000 1.0
C      1  0.4340880000000  0.5255590000000  0.4959860000000 1.0
C      1  0.4998280000000  0.5821440000000  0.4923110000000 1.0
C      1  0.5731320000000  0.5220000000000  0.4991830000000 1.0
C      1  0.5382370000000  0.4336880000000  0.4912200000000 1.0
C      1  0.4486870000000  0.4293070000000  0.5199300000000 1.0
C      1  0.4903440000000  0.5704720000000  0.5203600000000 1.0
C      1  0.5581100000000  0.5227730000000  0.5287800000000 1.0
C      1  0.5441220000000  0.4428450000000  0.5219270000000 1.0
C      1  0.4637690000000  0.4414160000000  0.5409890000000 1.0
C      1  0.4434730000000  0.5209480000000  0.5254520000000 1.0
C      1  0.5355620000000  0.5258340000000  0.4479900000000 1.0
C      1  0.5331900000000  0.4763690000000  0.4474100000000 1.0
C      1  0.4856180000000  0.4641400000000  0.4432080000000 1.0
C      1  0.4596530000000  0.5059490000000  0.4365570000000 1.0
C      1  0.4901620000000  0.5443110000000  0.4403970000000 1.0
C      1  0.5660270000000  0.5003980000000  0.5436640000000 1.0
C      1  0.5252300000000  0.4307500000000  0.5387070000000 1.0
C      1  0.4537850000000  0.4654140000000  0.5496420000000 1.0
C      1  0.4519270000000  0.5437470000000  0.5373540000000 1.0
C      1  0.5091340000000  0.5590710000000  0.5360510000000 1.0
C      1  0.5403560000000  0.4069310000000  0.4836950000000 1.0
C      1  0.4277370000000  0.4466940000000  0.5123330000000 1.0
C      1  0.4183910000000  0.5553650000000  0.4914480000000 1.0
C      1  0.5146270000000  0.6057890000000  0.4917170000000 1.0
C      1  0.6004830000000  0.5207900000000  0.4947760000000 1.0
C      1  0.4374700000000  0.4751550000000  0.5069690000000 1.0
C      1  0.4515180000000  0.5612760000000  0.4917410000000 1.0
C      1  0.5338210000000  0.5491660000000  0.5062230000000 1.0
C      1  0.5630310000000  0.4744310000000  0.5015380000000 1.0
C      1  0.4910520000000  0.4341850000000  0.5025760000000 1.0
C      1  0.4936120000000  0.4654700000000  0.5522390000000 1.0
C      1  0.4854950000000  0.4914210000000  0.5419170000000 1.0
C      1  0.5112820000000  0.5053700000000  0.5414030000000 1.0
C      1  0.5298920000000  0.4851000000000  0.5500430000000 1.0
C      1  0.5173830000000  0.4674190000000  0.5705430000000 1.0
C      1  0.4809560000000  0.4893070000000  0.4837920000000 1.0
C      1  0.4825470000000  0.5170420000000  0.4845350000000 1.0
C      1  0.5087220000000  0.5246760000000  0.4871580000000 1.0
C      1  0.5240410000000  0.5015320000000  0.4888770000000 1.0
C      1  0.5068250000000  0.4793270000000  0.4878220000000 1.0
C      1  0.4590210000000  0.5339200000000  0.4766840000000 1.0
C      1  0.5142790000000  0.5565690000000  0.4833060000000 1.0
C      1  0.5557710000000  0.4996920000000  0.4866890000000 1.0
C      1  0.5117670000000  0.4476340000000  0.4840540000000 1.0
C      1  0.4524480000000  0.4787020000000  0.4775280000000 1.0
C      1  0.4640530000000  0.5624110000000  0.5203180000000 1.0
C      1  0.5256350000000  0.5314720000000  0.5329800000000 1.0
C      1  0.5537240000000  0.4724990000000  0.5320260000000 1.0
C      1  0.4956650000000  0.4397170000000  0.5339990000000 1.0
C      1  0.4538030000000  0.4925760000000  0.5306150000000 1.0
C      1  0.5642450000000  0.4508070000000  0.4882880000000 1.0
C      1  0.4672160000000  0.4208700000000  0.4997290000000 1.0
C      1  0.4262900000000  0.4979760000000  0.4862500000000 1.0
C      1  0.4701190000000  0.5843310000000  0.4809430000000 1.0
C      1  0.5603340000000  0.5504810000000  0.5001400000000 1.0
END
