TITL C-26733-8285-46 0.00128770464896853 125000 -356.076785962064 0 0 60 (C1) n - 1
REM
REM in /home/nfs/bkarasulu/CARBON/AIRSS/Generating-Clusters/AIREBO/Higher-Symm/Only-C60
REM
REM
REM
REM
REM
REM ./C.cell (28575a23ae977d3b5fae324c64b13b57)
REM
REM compiler GCC version 9.2.1 20190827 (Red Hat 9.2.1-1)
REM options -cpp -mtune=generic -march=x86-64 -g -O0 -fpre-include=/usr/include/finclude/math-vector-fortran.h
REM seed 1341135466 -229631430 -1103465795 -391596397 -1683046697 -1947866903 -555617800 1104227296 29929856 219423931 -1877237944 250041887 1152055083 -367810842 1051540056 -76386732 -1858858253 -1470935559 376475142 696190147 709707243 -1996564428 1479162605 -1459231217 -287694421 1484717893 -1095178136 1866694892 -1186912363 777363929 -1687493510 810640498 -1055735480
REM
CELL 1.54180   50.00000   50.00000   50.00000   90.00000   90.00000   90.00000
LATT -1
SFAC C  
C      1  0.5953510000000  0.4766530000000  0.5118920000000 1.0
C      1  0.5911470000000  0.4999300000000  0.5303440000000 1.0
C      1  0.5971350000000  0.5242070000000  0.5151040000000 1.0
C      1  0.5995490000000  0.5171360000000  0.4870460000000 1.0
C      1  0.5971060000000  0.4883120000000  0.4846790000000 1.0
C      1  0.4038540000000  0.5192170000000  0.4831010000000 1.0
C      1  0.4169060000000  0.4926490000000  0.4729870000000 1.0
C      1  0.4022980000000  0.4754840000000  0.4940950000000 1.0
C      1  0.4013900000000  0.4912220000000  0.5236290000000 1.0
C      1  0.4010000000000  0.5194340000000  0.5108900000000 1.0
C      1  0.4624510000000  0.5453750000000  0.5281720000000 1.0
C      1  0.4598190000000  0.5432530000000  0.4690760000000 1.0
C      1  0.4645700000000  0.4629000000000  0.4507560000000 1.0
C      1  0.4671260000000  0.4542740000000  0.5059110000000 1.0
C      1  0.4734150000000  0.4956720000000  0.5404980000000 1.0
C      1  0.4980370000000  0.4990130000000  0.5559310000000 1.0
C      1  0.4818230000000  0.5650410000000  0.5292900000000 1.0
C      1  0.4848200000000  0.5542820000000  0.4641220000000 1.0
C      1  0.4885900000000  0.4600410000000  0.4377980000000 1.0
C      1  0.4912180000000  0.4362380000000  0.5088600000000 1.0
C      1  0.5115110000000  0.4189670000000  0.5094600000000 1.0
C      1  0.5208020000000  0.4994470000000  0.5703840000000 1.0
C      1  0.5084170000000  0.5690500000000  0.5321760000000 1.0
C      1  0.5109020000000  0.5560550000000  0.4578030000000 1.0
C      1  0.5116040000000  0.4668390000000  0.4256710000000 1.0
C      1  0.5413400000000  0.4912850000000  0.4792410000000 1.0
C      1  0.5547560000000  0.4598990000000  0.4805780000000 1.0
C      1  0.5463990000000  0.4688890000000  0.5119090000000 1.0
C      1  0.5459210000000  0.4952800000000  0.5196370000000 1.0
C      1  0.5465150000000  0.5171390000000  0.4964770000000 1.0
C      1  0.5377730000000  0.4155310000000  0.5032040000000 1.0
C      1  0.5405000000000  0.5037600000000  0.5956640000000 1.0
C      1  0.5304150000000  0.5558480000000  0.5242690000000 1.0
C      1  0.5369720000000  0.5540830000000  0.4645880000000 1.0
C      1  0.5347000000000  0.4803940000000  0.4295640000000 1.0
C      1  0.5525950000000  0.4851820000000  0.4498500000000 1.0
C      1  0.5585540000000  0.4330950000000  0.4994040000000 1.0
C      1  0.5529310000000  0.5020220000000  0.5659200000000 1.0
C      1  0.5524800000000  0.5435480000000  0.5138030000000 1.0
C      1  0.5569060000000  0.5376500000000  0.4745240000000 1.0
C      1  0.4387360000000  0.4621170000000  0.4397230000000 1.0
C      1  0.4398420000000  0.4468320000000  0.5180070000000 1.0
C      1  0.4464820000000  0.4932500000000  0.5529830000000 1.0
C      1  0.4356960000000  0.5468220000000  0.5356910000000 1.0
C      1  0.4344320000000  0.5526820000000  0.4613700000000 1.0
C      1  0.5640810000000  0.5004410000000  0.5412290000000 1.0
C      1  0.5798720000000  0.5462900000000  0.5201640000000 1.0
C      1  0.5845050000000  0.5339200000000  0.4695130000000 1.0
C      1  0.5784980000000  0.4778840000000  0.4666130000000 1.0
C      1  0.5755670000000  0.4558800000000  0.5143390000000 1.0
C      1  0.4589810000000  0.5205740000000  0.4858080000000 1.0
C      1  0.4464480000000  0.4970420000000  0.4797930000000 1.0
C      1  0.4649720000000  0.4723020000000  0.4789560000000 1.0
C      1  0.4728430000000  0.4870480000000  0.5094720000000 1.0
C      1  0.4696370000000  0.5206310000000  0.5138150000000 1.0
C      1  0.4177270000000  0.4791320000000  0.4450140000000 1.0
C      1  0.4183150000000  0.4619680000000  0.5177840000000 1.0
C      1  0.4228460000000  0.4884390000000  0.5474000000000 1.0
C      1  0.4109480000000  0.5405610000000  0.5261970000000 1.0
C      1  0.4099720000000  0.5418860000000  0.4678210000000 1.0
END
