TITL C-26731-8310-96 -0.000314351927854586 125000 -330.698747853682 0 0 60 (C1) n - 1
REM
REM in /home/nfs/bkarasulu/CARBON/AIRSS/Generating-Clusters/AIREBO/Higher-Symm/Only-C60
REM
REM
REM
REM
REM
REM ./C.cell (28575a23ae977d3b5fae324c64b13b57)
REM
REM compiler GCC version 9.2.1 20190827 (Red Hat 9.2.1-1)
REM options -cpp -mtune=generic -march=x86-64 -g -O0 -fpre-include=/usr/include/finclude/math-vector-fortran.h
REM seed -1039769102 949848892 -1098557703 -1270893854 640812266 240803673 1348840808 -613498039 -175968935 -522267189 1809266577 -232888607 595856026 1834855162 -328729143 -1237287176 -25524614 -350292026 530426424 -1663874346 1386091194 -26467253 673475210 -1750021859 -1479174558 -1289440805 -1114046205 -16673275 -1345112820 -1261949849 -1045418637 -1030626864 938217581
REM
CELL 1.54180   50.00000   50.00000   50.00000   90.00000   90.00000   90.00000
LATT -1
SFAC C  
C      1  0.5205990000000  0.4538270000000  0.5459640000000 1.0
C      1  0.5478270000000  0.5071310000000  0.4655530000000 1.0
C      1  0.4517920000000  0.5478920000000  0.5116770000000 1.0
C      1  0.5182560000000  0.5461290000000  0.4601820000000 1.0
C      1  0.4811950000000  0.5354010000000  0.5407380000000 1.0
C      1  0.4857380000000  0.4562840000000  0.4557960000000 1.0
C      1  0.5486260000000  0.4884410000000  0.5454930000000 1.0
C      1  0.4456730000000  0.4794550000000  0.4616150000000 1.0
C      1  0.4446100000000  0.5211770000000  0.5475180000000 1.0
C      1  0.4492470000000  0.4456210000000  0.4826070000000 1.0
C      1  0.5485550000000  0.4501550000000  0.5122400000000 1.0
C      1  0.5607590000000  0.5538830000000  0.4838820000000 1.0
C      1  0.4901610000000  0.4580420000000  0.5444550000000 1.0
C      1  0.4525600000000  0.5082750000000  0.4633450000000 1.0
C      1  0.5508340000000  0.5452930000000  0.5133380000000 1.0
C      1  0.4901570000000  0.5409780000000  0.4635490000000 1.0
C      1  0.5090640000000  0.5355100000000  0.5370750000000 1.0
C      1  0.5123660000000  0.4590020000000  0.4601780000000 1.0
C      1  0.4528620000000  0.4909910000000  0.5439020000000 1.0
C      1  0.5531440000000  0.4782490000000  0.4638720000000 1.0
C      1  0.5558930000000  0.5198470000000  0.5481850000000 1.0
C      1  0.5546710000000  0.4424170000000  0.4814950000000 1.0
C      1  0.4581240000000  0.4572320000000  0.5075860000000 1.0
C      1  0.4457920000000  0.5554020000000  0.4810680000000 1.0
C      1  0.5593740000000  0.4800990000000  0.5166730000000 1.0
C      1  0.5307110000000  0.5576870000000  0.4816420000000 1.0
C      1  0.4729910000000  0.5172870000000  0.5658330000000 1.0
C      1  0.5660400000000  0.5218060000000  0.4851210000000 1.0
C      1  0.4462020000000  0.5159460000000  0.5138720000000 1.0
C      1  0.4275830000000  0.4715720000000  0.4863690000000 1.0
C      1  0.5152730000000  0.4433320000000  0.5138010000000 1.0
C      1  0.4710300000000  0.4361490000000  0.4681550000000 1.0
C      1  0.4840820000000  0.5579000000000  0.5153980000000 1.0
C      1  0.4737540000000  0.4817250000000  0.4431090000000 1.0
C      1  0.5163790000000  0.4873770000000  0.5500550000000 1.0
C      1  0.5177260000000  0.5134030000000  0.4548230000000 1.0
C      1  0.4417430000000  0.4825800000000  0.5153770000000 1.0
C      1  0.4764700000000  0.5562770000000  0.4817280000000 1.0
C      1  0.5249040000000  0.5184760000000  0.5566680000000 1.0
C      1  0.4363530000000  0.5243910000000  0.4834450000000 1.0
C      1  0.5558600000000  0.5127280000000  0.5149380000000 1.0
C      1  0.5730800000000  0.4696140000000  0.4876690000000 1.0
C      1  0.4826590000000  0.4524060000000  0.5170430000000 1.0
C      1  0.5244810000000  0.4473420000000  0.4809550000000 1.0
C      1  0.5178060000000  0.5515240000000  0.5116380000000 1.0
C      1  0.5257870000000  0.4821340000000  0.4440540000000 1.0
C      1  0.4829330000000  0.4870810000000  0.5537100000000 1.0
C      1  0.4838850000000  0.5107440000000  0.4582140000000 1.0
C      1  0.5156680000000  0.5253530000000  0.5856360000000 1.0
C      1  0.5953570000000  0.5115170000000  0.4816110000000 1.0
C      1  0.4829920000000  0.5876170000000  0.5259410000000 1.0
C      1  0.5131040000000  0.4811830000000  0.4155000000000 1.0
C      1  0.4905360000000  0.5246810000000  0.5899540000000 1.0
C      1  0.4875610000000  0.4822660000000  0.4149810000000 1.0
C      1  0.5988030000000  0.4863020000000  0.4833790000000 1.0
C      1  0.4022890000000  0.4896610000000  0.4834150000000 1.0
C      1  0.4065430000000  0.5147620000000  0.4813230000000 1.0
C      1  0.4860800000000  0.4150110000000  0.4801930000000 1.0
C      1  0.5032960000000  0.4137920000000  0.5019620000000 1.0
C      1  0.4821580000000  0.6116390000000  0.5345020000000 1.0
END
