TITL C-26737-6152-149 -1572.77482080903 125000 -281.201952581154 0 0 60 (C1) n - 1
REM
REM in /home/nfs/bkarasulu/CARBON/AIRSS/Generating-Clusters/AIREBO/Higher-Symm/Only-C60
REM
REM
REM
REM
REM
REM ./C.cell (28575a23ae977d3b5fae324c64b13b57)
REM
REM compiler GCC version 9.2.1 20190827 (Red Hat 9.2.1-1)
REM options -cpp -mtune=generic -march=x86-64 -g -O0 -fpre-include=/usr/include/finclude/math-vector-fortran.h
REM seed 1529782583 1772573380 931263038 -1432376146 -1947618632 1293812524 1286340085 198859696 1393871669 377128038 -452519986 -957311130 -1563419488 -1771825078 -384513345 -619410995 -1189842059 -1933869597 -1563016608 283283895 -1455940960 794216890 55322345 285208446 1995345788 -31630997 761184844 611906119 1374700544 1332996207 -968734351 1944281827 2037209396
REM
CELL 1.54180   50.00000   50.00000   50.00000   90.00000   90.00000   90.00000
LATT -1
SFAC C  
C      1  0.5141340000000  0.4854920000000  0.4760300000000 1.0
C      1  0.4824960000000  0.4837560000000  0.4861670000000 1.0
C      1  0.4904640000000  0.4831830000000  0.5192200000000 1.0
C      1  0.5210460000000  0.4859690000000  0.5078090000000 1.0
C      1  0.5222020000000  0.5172740000000  0.4736650000000 1.0
C      1  0.4914070000000  0.5165680000000  0.4860900000000 1.0
C      1  0.4953370000000  0.5170190000000  0.5193070000000 1.0
C      1  0.5264690000000  0.5178550000000  0.5055020000000 1.0
C      1  0.4977400000000  0.4595360000000  0.4087990000000 1.0
C      1  0.4175770000000  0.4680640000000  0.5118220000000 1.0
C      1  0.5026180000000  0.4651580000000  0.5810490000000 1.0
C      1  0.5812080000000  0.4621070000000  0.4985300000000 1.0
C      1  0.4778770000000  0.5354090000000  0.4171750000000 1.0
C      1  0.4174720000000  0.5345900000000  0.5152990000000 1.0
C      1  0.5067570000000  0.5336670000000  0.5822350000000 1.0
C      1  0.5840180000000  0.5382880000000  0.5039500000000 1.0
C      1  0.4644180000000  0.5238730000000  0.5312230000000 1.0
C      1  0.5362150000000  0.5160010000000  0.5452340000000 1.0
C      1  0.5397510000000  0.5090240000000  0.4467780000000 1.0
C      1  0.4657990000000  0.5124830000000  0.4641000000000 1.0
C      1  0.4603340000000  0.4806640000000  0.5336590000000 1.0
C      1  0.5337270000000  0.4833670000000  0.5456490000000 1.0
C      1  0.5458620000000  0.4822260000000  0.4668960000000 1.0
C      1  0.4731270000000  0.4804290000000  0.4540750000000 1.0
C      1  0.4912740000000  0.4440390000000  0.5381610000000 1.0
C      1  0.5323810000000  0.4478900000000  0.5102320000000 1.0
C      1  0.5068360000000  0.4494090000000  0.4617780000000 1.0
C      1  0.4596830000000  0.4512920000000  0.4920990000000 1.0
C      1  0.4968320000000  0.5589370000000  0.5400580000000 1.0
C      1  0.5342910000000  0.5555560000000  0.5146980000000 1.0
C      1  0.5049910000000  0.5507450000000  0.4604090000000 1.0
C      1  0.4636370000000  0.5481140000000  0.4949040000000 1.0
C      1  0.4826180000000  0.5700860000000  0.5112530000000 1.0
C      1  0.5135290000000  0.5810650000000  0.5201550000000 1.0
C      1  0.5154800000000  0.5672120000000  0.4887080000000 1.0
C      1  0.4835090000000  0.5696120000000  0.4773790000000 1.0
C      1  0.4811510000000  0.4310800000000  0.5090340000000 1.0
C      1  0.5120640000000  0.4233380000000  0.5208930000000 1.0
C      1  0.5147850000000  0.4294000000000  0.4875490000000 1.0
C      1  0.4826820000000  0.4314460000000  0.4755280000000 1.0
C      1  0.5393160000000  0.5461280000000  0.5441670000000 1.0
C      1  0.5277300000000  0.5405000000000  0.4421660000000 1.0
C      1  0.4518990000000  0.5434750000000  0.4656100000000 1.0
C      1  0.4697410000000  0.5469910000000  0.5487310000000 1.0
C      1  0.5460530000000  0.4578250000000  0.5357600000000 1.0
C      1  0.5337350000000  0.4588890000000  0.4513610000000 1.0
C      1  0.4557240000000  0.4580420000000  0.4627780000000 1.0
C      1  0.4664110000000  0.4566440000000  0.5505900000000 1.0
C      1  0.4434230000000  0.5272430000000  0.5087470000000 1.0
C      1  0.5045890000000  0.5274340000000  0.5503290000000 1.0
C      1  0.5564300000000  0.5298310000000  0.5122620000000 1.0
C      1  0.4896790000000  0.5253720000000  0.4435980000000 1.0
C      1  0.4447920000000  0.4746660000000  0.5069780000000 1.0
C      1  0.5023990000000  0.4740350000000  0.5497260000000 1.0
C      1  0.5517280000000  0.4737840000000  0.4996270000000 1.0
C      1  0.4985090000000  0.4707820000000  0.4366750000000 1.0
C      1  0.5554870000000  0.4975400000000  0.5236890000000 1.0
C      1  0.5085310000000  0.5012460000000  0.4397770000000 1.0
C      1  0.4472030000000  0.5016420000000  0.4904410000000 1.0
C      1  0.4828240000000  0.5015380000000  0.5538850000000 1.0
END
