TITL C-26740-8352-110 -0.000490652609274773 125000 -308.539937595679 0 0 60 (C1) n - 1
REM
REM in /home/nfs/bkarasulu/CARBON/AIRSS/Generating-Clusters/AIREBO/Higher-Symm/Only-C60
REM
REM
REM
REM
REM
REM ./C.cell (28575a23ae977d3b5fae324c64b13b57)
REM
REM compiler GCC version 9.2.1 20190827 (Red Hat 9.2.1-1)
REM options -cpp -mtune=generic -march=x86-64 -g -O0 -fpre-include=/usr/include/finclude/math-vector-fortran.h
REM seed 1650597653 -1253139134 143584221 522486886 1918273121 1335968933 272050053 -520476078 297065241 535049784 700351384 -418746071 52693398 -1577275960 1543077416 1700926573 1119702833 203659347 -597265861 -324319499 -271327004 -559437168 -2082235849 -1641742360 1841659294 -1347921102 2033092687 -1268487941 1445875964 -600891726 -1554414698 -419746950 -1601447523
REM
CELL 1.54180   50.00000   50.00000   50.00000   90.00000   90.00000   90.00000
LATT -1
SFAC C  
C      1  0.5180970000000  0.4731550000000  0.5222300000000 1.0
C      1  0.4792050000000  0.4738260000000  0.5155310000000 1.0
C      1  0.4680230000000  0.5110410000000  0.5234890000000 1.0
C      1  0.5004260000000  0.5340880000000  0.5237830000000 1.0
C      1  0.5325560000000  0.5095250000000  0.5168780000000 1.0
C      1  0.4985120000000  0.5218010000000  0.5803690000000 1.0
C      1  0.5250190000000  0.5077870000000  0.5810240000000 1.0
C      1  0.5181090000000  0.4780910000000  0.5819660000000 1.0
C      1  0.4892340000000  0.4747040000000  0.5817580000000 1.0
C      1  0.4773760000000  0.5022790000000  0.5798540000000 1.0
C      1  0.5106660000000  0.4555780000000  0.4346100000000 1.0
C      1  0.4594610000000  0.4865430000000  0.4342200000000 1.0
C      1  0.4671370000000  0.5343660000000  0.4371670000000 1.0
C      1  0.5163770000000  0.5351340000000  0.4331920000000 1.0
C      1  0.5471500000000  0.4844730000000  0.4344330000000 1.0
C      1  0.5624550000000  0.4461480000000  0.4919340000000 1.0
C      1  0.4793800000000  0.4312440000000  0.4872120000000 1.0
C      1  0.4194720000000  0.5133800000000  0.4898350000000 1.0
C      1  0.4742790000000  0.5668670000000  0.4926140000000 1.0
C      1  0.5589850000000  0.5394580000000  0.4845750000000 1.0
C      1  0.4580530000000  0.5433730000000  0.5201030000000 1.0
C      1  0.5270320000000  0.5592180000000  0.5173890000000 1.0
C      1  0.5683570000000  0.4921480000000  0.5194270000000 1.0
C      1  0.5078370000000  0.4417750000000  0.5187950000000 1.0
C      1  0.4400750000000  0.4676720000000  0.5158540000000 1.0
C      1  0.5393900000000  0.5132300000000  0.4755170000000 1.0
C      1  0.5367820000000  0.4601500000000  0.4745810000000 1.0
C      1  0.4797420000000  0.4627880000000  0.4745260000000 1.0
C      1  0.4499040000000  0.5096260000000  0.4764280000000 1.0
C      1  0.4957460000000  0.5377920000000  0.4760470000000 1.0
C      1  0.5285950000000  0.5190060000000  0.5493270000000 1.0
C      1  0.5323710000000  0.4793440000000  0.5518570000000 1.0
C      1  0.4785580000000  0.4729720000000  0.5495210000000 1.0
C      1  0.4586680000000  0.5069930000000  0.5560060000000 1.0
C      1  0.4962020000000  0.5410640000000  0.5568100000000 1.0
C      1  0.5444580000000  0.4860260000000  0.4953410000000 1.0
C      1  0.5086700000000  0.4486980000000  0.4855140000000 1.0
C      1  0.4584930000000  0.4824340000000  0.4899710000000 1.0
C      1  0.4644930000000  0.5346510000000  0.4878680000000 1.0
C      1  0.5250190000000  0.5410360000000  0.4888020000000 1.0
C      1  0.4538170000000  0.5105920000000  0.4461340000000 1.0
C      1  0.4931870000000  0.5421100000000  0.4462770000000 1.0
C      1  0.5326880000000  0.5100230000000  0.4447560000000 1.0
C      1  0.5354550000000  0.4619700000000  0.4449340000000 1.0
C      1  0.4841660000000  0.4712460000000  0.4451500000000 1.0
C      1  0.5270760000000  0.5512110000000  0.5467950000000 1.0
C      1  0.5622870000000  0.4839130000000  0.5446840000000 1.0
C      1  0.4897950000000  0.4416270000000  0.5426280000000 1.0
C      1  0.4457890000000  0.4786130000000  0.5423960000000 1.0
C      1  0.4651510000000  0.5397980000000  0.5505940000000 1.0
C      1  0.4366230000000  0.5200540000000  0.5125100000000 1.0
C      1  0.4969990000000  0.5628260000000  0.5071530000000 1.0
C      1  0.5624900000000  0.5196430000000  0.5072970000000 1.0
C      1  0.5395500000000  0.4518490000000  0.5116020000000 1.0
C      1  0.4621230000000  0.4464470000000  0.5064040000000 1.0
C      1  0.5030880000000  0.4965190000000  0.5498090000000 1.0
C      1  0.4996280000000  0.5010220000000  0.5158040000000 1.0
C      1  0.5035050000000  0.4963520000000  0.4209780000000 1.0
C      1  0.4971630000000  0.5064000000000  0.4823160000000 1.0
C      1  0.5046660000000  0.4953510000000  0.4549490000000 1.0
END
