TITL C-26730-8313-51 -0.00155301120544255 125000 -300.356367274606 0 0 60 (Ci) n - 1
REM
REM in /home/nfs/bkarasulu/CARBON/AIRSS/Generating-Clusters/AIREBO/Higher-Symm/Only-C60
REM
REM
REM
REM
REM
REM ./C.cell (28575a23ae977d3b5fae324c64b13b57)
REM
REM compiler GCC version 9.2.1 20190827 (Red Hat 9.2.1-1)
REM options -cpp -mtune=generic -march=x86-64 -g -O0 -fpre-include=/usr/include/finclude/math-vector-fortran.h
REM seed 281947946 -1529051583 1466650618 -1018451412 -1821506180 879179209 -711790897 -767814589 941806476 -2076441341 1240008833 -527414751 511519285 1530635844 304623146 -888267275 18133583 1499920273 -2034701201 -895439689 -2105276425 -783820395 1744980356 -1704621950 -401098491 705269139 -2080846885 1858009831 -390558074 1356461446 61292917 -1196690549 443964622
REM
CELL 1.54180   50.00000   50.00000   50.00000   90.00000   90.00000   90.00000
LATT -1
SFAC C  
C      1  0.5364190000000  0.5454500000000  0.5289760000000 1.0
C      1  0.4611080000000  0.5502770000000  0.4706200000000 1.0
C      1  0.5359430000000  0.4989620000000  0.4436850000000 1.0
C      1  0.4636520000000  0.4546250000000  0.4709300000000 1.0
C      1  0.5388720000000  0.4497190000000  0.5294280000000 1.0
C      1  0.4640190000000  0.5010840000000  0.5562500000000 1.0
C      1  0.4226330000000  0.5114820000000  0.5146220000000 1.0
C      1  0.5767180000000  0.5193580000000  0.4958500000000 1.0
C      1  0.4226840000000  0.5053250000000  0.4823220000000 1.0
C      1  0.5773610000000  0.4884790000000  0.4853360000000 1.0
C      1  0.4233430000000  0.4805950000000  0.5041110000000 1.0
C      1  0.5773330000000  0.4946340000000  0.5176450000000 1.0
C      1  0.4906800000000  0.4704890000000  0.4841350000000 1.0
C      1  0.5126170000000  0.4675460000000  0.5182920000000 1.0
C      1  0.4894630000000  0.5000740000000  0.5337080000000 1.0
C      1  0.5093410000000  0.5296980000000  0.5157370000000 1.0
C      1  0.4874620000000  0.5325300000000  0.4817730000000 1.0
C      1  0.5105190000000  0.5001900000000  0.4662410000000 1.0
C      1  0.5621580000000  0.4968930000000  0.4368290000000 1.0
C      1  0.4399300000000  0.4420620000000  0.4745560000000 1.0
C      1  0.5653100000000  0.4471340000000  0.5350240000000 1.0
C      1  0.4378040000000  0.5030820000000  0.5631310000000 1.0
C      1  0.5601720000000  0.5579510000000  0.5253570000000 1.0
C      1  0.4346770000000  0.5528390000000  0.4649880000000 1.0
C      1  0.4935410000000  0.4572150000000  0.5700880000000 1.0
C      1  0.4996610000000  0.5418720000000  0.5706050000000 1.0
C      1  0.5064720000000  0.5833090000000  0.4980720000000 1.0
C      1  0.5062060000000  0.5428560000000  0.4298590000000 1.0
C      1  0.5002830000000  0.4574460000000  0.4298430000000 1.0
C      1  0.4931890000000  0.4169580000000  0.5020160000000 1.0
C      1  0.4266610000000  0.4461160000000  0.5240540000000 1.0
C      1  0.5687860000000  0.4919620000000  0.5564260000000 1.0
C      1  0.4289330000000  0.5443220000000  0.5362940000000 1.0
C      1  0.5736180000000  0.5538460000000  0.4758830000000 1.0
C      1  0.4312490000000  0.5080280000000  0.4435470000000 1.0
C      1  0.5710400000000  0.4556490000000  0.4636550000000 1.0
C      1  0.5792560000000  0.5499780000000  0.5065920000000 1.0
C      1  0.4185660000000  0.5303020000000  0.4605920000000 1.0
C      1  0.5806020000000  0.4829340000000  0.4528030000000 1.0
C      1  0.4208700000000  0.4499650000000  0.4933760000000 1.0
C      1  0.5814410000000  0.4696640000000  0.5393850000000 1.0
C      1  0.4193670000000  0.5170320000000  0.5471430000000 1.0
C      1  0.5238700000000  0.4770200000000  0.4876360000000 1.0
C      1  0.4743220000000  0.4777020000000  0.5130600000000 1.0
C      1  0.5223470000000  0.4994180000000  0.5250650000000 1.0
C      1  0.4761700000000  0.5229960000000  0.5123960000000 1.0
C      1  0.5258010000000  0.5224830000000  0.4868710000000 1.0
C      1  0.4776520000000  0.5005300000000  0.4749570000000 1.0
C      1  0.4491780000000  0.5322360000000  0.5176210000000 1.0
C      1  0.5506820000000  0.5328420000000  0.4813710000000 1.0
C      1  0.4506350000000  0.4983420000000  0.4641790000000 1.0
C      1  0.5508290000000  0.4677100000000  0.4823700000000 1.0
C      1  0.4494770000000  0.4672480000000  0.5185940000000 1.0
C      1  0.5493910000000  0.5016390000000  0.5357930000000 1.0
C      1  0.5004260000000  0.4706800000000  0.4515510000000 1.0
C      1  0.4975390000000  0.4420270000000  0.5014340000000 1.0
C      1  0.4974790000000  0.4703950000000  0.5486060000000 1.0
C      1  0.4994700000000  0.5288910000000  0.5487450000000 1.0
C      1  0.5023220000000  0.5582100000000  0.4985860000000 1.0
C      1  0.5024540000000  0.5296980000000  0.4513850000000 1.0
END
