TITL C-26736-6558-105 -0.000585090772387141 125000 -349.517864722646 0 0 60 (C1) n - 1
REM
REM in /home/nfs/bkarasulu/CARBON/AIRSS/Generating-Clusters/AIREBO/Higher-Symm/Only-C60
REM
REM
REM
REM
REM
REM ./C.cell (28575a23ae977d3b5fae324c64b13b57)
REM
REM compiler GCC version 9.2.1 20190827 (Red Hat 9.2.1-1)
REM options -cpp -mtune=generic -march=x86-64 -g -O0 -fpre-include=/usr/include/finclude/math-vector-fortran.h
REM seed -970680072 1777589520 -21127451 548906987 -1378386982 143282613 -729011515 -926307381 990097950 -1509537404 -342157519 -1261809970 -84660988 1612822666 -187326790 -1286516748 -1748266425 -1183336745 526386997 -1697798695 -1100004084 -299267116 1065162013 1405166967 -1932750992 -1211218936 1622309314 1410130045 -1909404373 1549272077 692947070 -1538816487 -1969755861
REM
CELL 1.54180   50.00000   50.00000   50.00000   90.00000   90.00000   90.00000
LATT -1
SFAC C  
C      1  0.5419670000000  0.5282420000000  0.4501640000000 1.0
C      1  0.5404590000000  0.4436890000000  0.4994700000000 1.0
C      1  0.5393380000000  0.5278030000000  0.5478360000000 1.0
C      1  0.5404540000000  0.4717820000000  0.4504290000000 1.0
C      1  0.5382420000000  0.5543370000000  0.4989460000000 1.0
C      1  0.5406010000000  0.4716320000000  0.5487230000000 1.0
C      1  0.5589100000000  0.4717670000000  0.4996210000000 1.0
C      1  0.5578480000000  0.5140600000000  0.5239650000000 1.0
C      1  0.5611130000000  0.5143100000000  0.4745890000000 1.0
C      1  0.5570840000000  0.5277620000000  0.4994280000000 1.0
C      1  0.5586760000000  0.4858750000000  0.5242090000000 1.0
C      1  0.5595340000000  0.4856510000000  0.4749190000000 1.0
C      1  0.4343630000000  0.5277440000000  0.5006610000000 1.0
C      1  0.4327170000000  0.4857530000000  0.4751850000000 1.0
C      1  0.4330240000000  0.4846740000000  0.5247480000000 1.0
C      1  0.4321970000000  0.4711260000000  0.4997810000000 1.0
C      1  0.4334700000000  0.5140430000000  0.4756550000000 1.0
C      1  0.4326760000000  0.5132570000000  0.5250500000000 1.0
C      1  0.5242340000000  0.4863990000000  0.5744470000000 1.0
C      1  0.5256800000000  0.5717470000000  0.4737490000000 1.0
C      1  0.5234720000000  0.4425630000000  0.4504830000000 1.0
C      1  0.5238470000000  0.5136420000000  0.5741520000000 1.0
C      1  0.5229520000000  0.4293050000000  0.4742120000000 1.0
C      1  0.5250760000000  0.5578340000000  0.4502880000000 1.0
C      1  0.4738640000000  0.4450580000000  0.4869840000000 1.0
C      1  0.4735480000000  0.5157990000000  0.5563510000000 1.0
C      1  0.4760730000000  0.5382170000000  0.4595950000000 1.0
C      1  0.4751870000000  0.5613400000000  0.4845760000000 1.0
C      1  0.4736890000000  0.4817820000000  0.5580050000000 1.0
C      1  0.4740280000000  0.4608850000000  0.4568460000000 1.0
C      1  0.5165240000000  0.4477950000000  0.5458110000000 1.0
C      1  0.5149640000000  0.5650740000000  0.5209660000000 1.0
C      1  0.5160930000000  0.4868710000000  0.4320970000000 1.0
C      1  0.5140510000000  0.5501220000000  0.5433160000000 1.0
C      1  0.5155400000000  0.4364520000000  0.5215020000000 1.0
C      1  0.5167160000000  0.5136120000000  0.4327030000000 1.0
C      1  0.5031910000000  0.5726210000000  0.4940080000000 1.0
C      1  0.5026280000000  0.4621760000000  0.4418590000000 1.0
C      1  0.5032260000000  0.4686950000000  0.5625270000000 1.0
C      1  0.5023130000000  0.4325020000000  0.4954550000000 1.0
C      1  0.5039200000000  0.5381510000000  0.4429180000000 1.0
C      1  0.5021030000000  0.5303120000000  0.5620550000000 1.0
C      1  0.5191770000000  0.4687930000000  0.4983040000000 1.0
C      1  0.5181010000000  0.5137780000000  0.5271550000000 1.0
C      1  0.5215230000000  0.5162720000000  0.4722600000000 1.0
C      1  0.5155660000000  0.5298690000000  0.5001380000000 1.0
C      1  0.5190030000000  0.4827130000000  0.5265180000000 1.0
C      1  0.5197680000000  0.4853750000000  0.4718500000000 1.0
C      1  0.4903600000000  0.5122600000000  0.4746450000000 1.0
C      1  0.4876770000000  0.4679570000000  0.5068000000000 1.0
C      1  0.4866840000000  0.5212400000000  0.5263400000000 1.0
C      1  0.4876450000000  0.4810920000000  0.4770440000000 1.0
C      1  0.4818050000000  0.5333400000000  0.4987160000000 1.0
C      1  0.4870060000000  0.4888960000000  0.5302090000000 1.0
C      1  0.4444690000000  0.4727700000000  0.5485020000000 1.0
C      1  0.4464400000000  0.5536570000000  0.4991780000000 1.0
C      1  0.4445740000000  0.4715520000000  0.4530490000000 1.0
C      1  0.4438080000000  0.5244730000000  0.5490220000000 1.0
C      1  0.4442300000000  0.4451900000000  0.4975390000000 1.0
C      1  0.4465720000000  0.5283120000000  0.4544450000000 1.0
END
