TITL C-26727-7196-135 0.0160931696712526 125000 -306.905880065994 0 0 60 (C1) n - 1
REM
REM in /home/nfs/bkarasulu/CARBON/AIRSS/Generating-Clusters/AIREBO/Higher-Symm/Only-C60
REM
REM
REM
REM
REM
REM ./C.cell (28575a23ae977d3b5fae324c64b13b57)
REM
REM compiler GCC version 9.2.1 20190827 (Red Hat 9.2.1-1)
REM options -cpp -mtune=generic -march=x86-64 -g -O0 -fpre-include=/usr/include/finclude/math-vector-fortran.h
REM seed 263669836 1851188615 -1251385195 1298059641 1139315174 -644975397 -1019074398 -1517553298 -2082010265 -335875197 -2129118915 -348926697 -139458093 1989041569 900526805 -823490263 -1832636147 628314377 -2063233753 2080039887 1571025780 986670985 -767899565 659149084 -1476986387 -1448351745 2086737663 -1989079811 -101679106 543351112 1476858179 -1675475767 -139849375
REM
CELL 1.54180   50.00000   50.00000   50.00000   90.00000   90.00000   90.00000
LATT -1
SFAC C  
C      1  0.5048540000000  0.5370520000000  0.4642070000000 1.0
C      1  0.5393460000000  0.5135240000000  0.4980410000000 1.0
C      1  0.5496450000000  0.5387660000000  0.5183980000000 1.0
C      1  0.4930650000000  0.5117940000000  0.5333760000000 1.0
C      1  0.4712960000000  0.5328360000000  0.5178870000000 1.0
C      1  0.4537740000000  0.5230250000000  0.4939040000000 1.0
C      1  0.4813120000000  0.5168420000000  0.4782990000000 1.0
C      1  0.4717380000000  0.5480010000000  0.4449630000000 1.0
C      1  0.5304750000000  0.5338390000000  0.4438200000000 1.0
C      1  0.5495830000000  0.5393860000000  0.4784700000000 1.0
C      1  0.5703210000000  0.5319740000000  0.5344840000000 1.0
C      1  0.5005410000000  0.5384540000000  0.5505460000000 1.0
C      1  0.4546530000000  0.5497080000000  0.5413970000000 1.0
C      1  0.4399000000000  0.5498150000000  0.4856410000000 1.0
C      1  0.5348740000000  0.4377480000000  0.4795810000000 1.0
C      1  0.5286270000000  0.4440640000000  0.5122640000000 1.0
C      1  0.5101880000000  0.4422090000000  0.5352760000000 1.0
C      1  0.4825120000000  0.4431560000000  0.5303130000000 1.0
C      1  0.4693490000000  0.4411940000000  0.5059630000000 1.0
C      1  0.4790490000000  0.4451090000000  0.4801370000000 1.0
C      1  0.5060980000000  0.4436920000000  0.4631630000000 1.0
C      1  0.5704820000000  0.4610740000000  0.4931410000000 1.0
C      1  0.5465500000000  0.4512540000000  0.5491020000000 1.0
C      1  0.4909950000000  0.4606300000000  0.5732720000000 1.0
C      1  0.4405570000000  0.4489800000000  0.5417730000000 1.0
C      1  0.4360430000000  0.4558490000000  0.4777510000000 1.0
C      1  0.4763480000000  0.4606600000000  0.4323370000000 1.0
C      1  0.5380040000000  0.4535840000000  0.4411620000000 1.0
C      1  0.4775760000000  0.5662150000000  0.4656250000000 1.0
C      1  0.5077300000000  0.5677710000000  0.4742770000000 1.0
C      1  0.5375260000000  0.5635970000000  0.4860870000000 1.0
C      1  0.5322880000000  0.5652260000000  0.5181540000000 1.0
C      1  0.5023260000000  0.5612070000000  0.5322470000000 1.0
C      1  0.4724060000000  0.5668200000000  0.5176060000000 1.0
C      1  0.4602240000000  0.5687930000000  0.4874580000000 1.0
C      1  0.4577500000000  0.5229550000000  0.5541590000000 1.0
C      1  0.4342900000000  0.5023340000000  0.5041810000000 1.0
C      1  0.4600940000000  0.5175710000000  0.4397090000000 1.0
C      1  0.4932970000000  0.5219800000000  0.4364580000000 1.0
C      1  0.5444700000000  0.5130730000000  0.4461120000000 1.0
C      1  0.5703940000000  0.5049200000000  0.5393980000000 1.0
C      1  0.5283700000000  0.5124710000000  0.5700070000000 1.0
C      1  0.4406580000000  0.4534820000000  0.5091840000000 1.0
C      1  0.4620590000000  0.4646320000000  0.4613320000000 1.0
C      1  0.5075930000000  0.4647830000000  0.4380310000000 1.0
C      1  0.5505210000000  0.4658740000000  0.4686070000000 1.0
C      1  0.5537640000000  0.4626060000000  0.5192840000000 1.0
C      1  0.5178700000000  0.4647800000000  0.5570480000000 1.0
C      1  0.4676750000000  0.4632250000000  0.5519240000000 1.0
C      1  0.5198610000000  0.4946140000000  0.5456750000000 1.0
C      1  0.4658550000000  0.4932850000000  0.5422200000000 1.0
C      1  0.4440030000000  0.4828510000000  0.5208400000000 1.0
C      1  0.4757480000000  0.4929900000000  0.4572310000000 1.0
C      1  0.5090340000000  0.4950400000000  0.4503960000000 1.0
C      1  0.5366710000000  0.4937580000000  0.4702880000000 1.0
C      1  0.5450000000000  0.4923790000000  0.5244890000000 1.0
C      1  0.5044730000000  0.5486860000000  0.5022260000000 1.0
C      1  0.5038480000000  0.4848240000000  0.5010750000000 1.0
C      1  0.5137310000000  0.4622870000000  0.4900300000000 1.0
C      1  0.5056500000000  0.5157590000000  0.5020190000000 1.0
END
