TITL C-26731-8310-55 -0.000185518162711764 125000 -339.570691693374 0 0 60 (C3) n - 1
REM
REM in /home/nfs/bkarasulu/CARBON/AIRSS/Generating-Clusters/AIREBO/Higher-Symm/Only-C60
REM
REM
REM
REM
REM
REM ./C.cell (28575a23ae977d3b5fae324c64b13b57)
REM
REM compiler GCC version 9.2.1 20190827 (Red Hat 9.2.1-1)
REM options -cpp -mtune=generic -march=x86-64 -g -O0 -fpre-include=/usr/include/finclude/math-vector-fortran.h
REM seed -1958160072 -385886262 -1344357607 463669408 -263884066 -391568038 -153272235 2115310020 1780393026 176617091 848055831 2015571516 73835003 779436691 -1886407574 -1587724718 1129918048 1617018963 -1200544600 -1954602196 2079153225 1639687656 1463492860 -1641959436 -1737169775 79214851 1897624389 -1732330934 -1095325761 -793720777 1064720060 -872486886 -2117967618
REM
CELL 1.54180   50.00000   50.00000   50.00000   90.00000   90.00000   90.00000
LATT -1
SFAC C  
C      1  0.5263550000000  0.4957680000000  0.5473200000000 1.0
C      1  0.5463960000000  0.5291910000000  0.4953320000000 1.0
C      1  0.4991410000000  0.5350120000000  0.5166980000000 1.0
C      1  0.4833040000000  0.4991420000000  0.4649870000000 1.0
C      1  0.5291910000000  0.5046710000000  0.4536050000000 1.0
C      1  0.4734310000000  0.4987100000000  0.5454250000000 1.0
C      1  0.4526800000000  0.5263550000000  0.5042310000000 1.0
C      1  0.5350130000000  0.4833030000000  0.5008590000000 1.0
C      1  0.4545750000000  0.4734310000000  0.5012870000000 1.0
C      1  0.5046700000000  0.5463970000000  0.4708110000000 1.0
C      1  0.4957700000000  0.4526810000000  0.4736430000000 1.0
C      1  0.4987120000000  0.4545740000000  0.5265670000000 1.0
C      1  0.5459180000000  0.4904400000000  0.5263110000000 1.0
C      1  0.5012810000000  0.5168990000000  0.5396150000000 1.0
C      1  0.5219420000000  0.5452360000000  0.4983090000000 1.0
C      1  0.4603860000000  0.5012810000000  0.4830990000000 1.0
C      1  0.4552930000000  0.4985550000000  0.5226320000000 1.0
C      1  0.5452360000000  0.5016930000000  0.4780580000000 1.0
C      1  0.5016930000000  0.5219430000000  0.4547650000000 1.0
C      1  0.4985560000000  0.4773660000000  0.5447060000000 1.0
C      1  0.4904410000000  0.4736910000000  0.4540800000000 1.0
C      1  0.4736890000000  0.5459180000000  0.5095610000000 1.0
C      1  0.4773680000000  0.4552930000000  0.5014420000000 1.0
C      1  0.5169000000000  0.4603860000000  0.4987180000000 1.0
C      1  0.4995070000000  0.4193270000000  0.4737390000000 1.0
C      1  0.4765870000000  0.5125540000000  0.4106100000000 1.0
C      1  0.4231260000000  0.4686330000000  0.4979300000000 1.0
C      1  0.5020680000000  0.4231250000000  0.5313640000000 1.0
C      1  0.5125510000000  0.5893900000000  0.5234170000000 1.0
C      1  0.4920570000000  0.5725110000000  0.4747390000000 1.0
C      1  0.5262580000000  0.4995040000000  0.5806740000000 1.0
C      1  0.4686330000000  0.5020660000000  0.5768740000000 1.0
C      1  0.5252640000000  0.4920600000000  0.4274890000000 1.0
C      1  0.5893910000000  0.4765870000000  0.4874490000000 1.0
C      1  0.4193260000000  0.5262590000000  0.5004930000000 1.0
C      1  0.5725100000000  0.5252630000000  0.5079440000000 1.0
C      1  0.4787160000000  0.4106600000000  0.5189760000000 1.0
C      1  0.4292660000000  0.5095720000000  0.4765400000000 1.0
C      1  0.5007520000000  0.4758920000000  0.4276590000000 1.0
C      1  0.5234600000000  0.4292670000000  0.4904260000000 1.0
C      1  0.5255480000000  0.5771840000000  0.5009960000000 1.0
C      1  0.4758900000000  0.5723400000000  0.4992510000000 1.0
C      1  0.5723400000000  0.5007510000000  0.5241110000000 1.0
C      1  0.5771850000000  0.4990070000000  0.4744530000000 1.0
C      1  0.4106610000000  0.4810200000000  0.5212820000000 1.0
C      1  0.4810200000000  0.4787140000000  0.5893380000000 1.0
C      1  0.4990070000000  0.5255510000000  0.4228160000000 1.0
C      1  0.5095710000000  0.5234570000000  0.5707350000000 1.0
C      1  0.5243940000000  0.5163240000000  0.4090050000000 1.0
C      1  0.4848640000000  0.5912880000000  0.5190360000000 1.0
C      1  0.5072030000000  0.4758420000000  0.5762010000000 1.0
C      1  0.5909960000000  0.5243940000000  0.4836800000000 1.0
C      1  0.5163210000000  0.5909970000000  0.4756100000000 1.0
C      1  0.4758440000000  0.4237980000000  0.4927940000000 1.0
C      1  0.5261630000000  0.4159260000000  0.5163960000000 1.0
C      1  0.4809680000000  0.4848670000000  0.4087110000000 1.0
C      1  0.4836000000000  0.5261600000000  0.5840740000000 1.0
C      1  0.4237980000000  0.5072030000000  0.5241560000000 1.0
C      1  0.5912880000000  0.4809670000000  0.5151360000000 1.0
C      1  0.4159270000000  0.4836020000000  0.4738360000000 1.0
END
