TITL C-26736-6558-205 -0.000695683187679938 125000 -314.296993492995 0 0 60 (C1) n - 1
REM
REM in /home/nfs/bkarasulu/CARBON/AIRSS/Generating-Clusters/AIREBO/Higher-Symm/Only-C60
REM
REM
REM
REM
REM
REM ./C.cell (28575a23ae977d3b5fae324c64b13b57)
REM
REM compiler GCC version 9.2.1 20190827 (Red Hat 9.2.1-1)
REM options -cpp -mtune=generic -march=x86-64 -g -O0 -fpre-include=/usr/include/finclude/math-vector-fortran.h
REM seed -1285576033 31795321 -649109462 16270962 -1779156953 386663692 1957682349 -1318479728 469183317 146671463 -1915490352 -981675963 -1631970169 1628738773 -1496552882 828142748 -708998287 -2075948425 779628064 1989214660 1175973242 -1193626047 603526496 -288825435 304617309 896179556 66914194 -1132111660 -803532252 -1670988590 -1094576271 2144427950 -5781392
REM
CELL 1.54180   50.00000   50.00000   50.00000   90.00000   90.00000   90.00000
LATT -1
SFAC C  
C      1  0.5063340000000  0.5167200000000  0.4821200000000 1.0
C      1  0.5160370000000  0.5077900000000  0.5129120000000 1.0
C      1  0.4857140000000  0.4774620000000  0.4833560000000 1.0
C      1  0.4755450000000  0.4917640000000  0.5156830000000 1.0
C      1  0.4624540000000  0.4968950000000  0.5567870000000 1.0
C      1  0.5086490000000  0.5405220000000  0.4491800000000 1.0
C      1  0.5379970000000  0.5041630000000  0.5536720000000 1.0
C      1  0.5089000000000  0.4781060000000  0.4512220000000 1.0
C      1  0.5137900000000  0.4798840000000  0.4956580000000 1.0
C      1  0.4646980000000  0.4634170000000  0.5038550000000 1.0
C      1  0.4761050000000  0.5169870000000  0.4952040000000 1.0
C      1  0.5298870000000  0.5340360000000  0.4987300000000 1.0
C      1  0.4484410000000  0.4708410000000  0.4536140000000 1.0
C      1  0.4834800000000  0.5388120000000  0.5393230000000 1.0
C      1  0.5538770000000  0.5200960000000  0.4606500000000 1.0
C      1  0.5165810000000  0.4619040000000  0.5409340000000 1.0
C      1  0.5096650000000  0.4357840000000  0.5198340000000 1.0
C      1  0.4374850000000  0.4831200000000  0.4822240000000 1.0
C      1  0.4895290000000  0.5640160000000  0.5161650000000 1.0
C      1  0.5732820000000  0.5088640000000  0.4863950000000 1.0
C      1  0.5222200000000  0.5095610000000  0.4529190000000 1.0
C      1  0.4916250000000  0.4848240000000  0.5441560000000 1.0
C      1  0.4765500000000  0.4855040000000  0.4523930000000 1.0
C      1  0.5073960000000  0.5149750000000  0.5435210000000 1.0
C      1  0.4782300000000  0.4412300000000  0.5211740000000 1.0
C      1  0.4440060000000  0.5064640000000  0.4961500000000 1.0
C      1  0.5194330000000  0.5539570000000  0.5206430000000 1.0
C      1  0.5442380000000  0.4875200000000  0.4934450000000 1.0
C      1  0.4664200000000  0.4269940000000  0.4763360000000 1.0
C      1  0.4308950000000  0.5373210000000  0.5308830000000 1.0
C      1  0.5377780000000  0.5747870000000  0.4742000000000 1.0
C      1  0.5701630000000  0.4637000000000  0.5273860000000 1.0
C      1  0.5118450000000  0.5688060000000  0.4909520000000 1.0
C      1  0.5681380000000  0.4923270000000  0.5156890000000 1.0
C      1  0.4927840000000  0.4383420000000  0.4904230000000 1.0
C      1  0.4320950000000  0.5106540000000  0.5220230000000 1.0
C      1  0.5669810000000  0.5370280000000  0.5275490000000 1.0
C      1  0.5381760000000  0.4404510000000  0.4703630000000 1.0
C      1  0.4290990000000  0.4649130000000  0.5329000000000 1.0
C      1  0.4696930000000  0.5593570000000  0.4703700000000 1.0
C      1  0.4744150000000  0.4556690000000  0.5474110000000 1.0
C      1  0.4726400000000  0.5087750000000  0.4364390000000 1.0
C      1  0.5251910000000  0.5437330000000  0.5471750000000 1.0
C      1  0.5286170000000  0.5093700000000  0.4218280000000 1.0
C      1  0.5352440000000  0.4780390000000  0.5616860000000 1.0
C      1  0.4345300000000  0.4691580000000  0.4296640000000 1.0
C      1  0.4673650000000  0.5233380000000  0.5631230000000 1.0
C      1  0.5693030000000  0.5166600000000  0.4364320000000 1.0
C      1  0.4390720000000  0.4903270000000  0.5412670000000 1.0
C      1  0.4967850000000  0.5591320000000  0.4647930000000 1.0
C      1  0.5599850000000  0.5121570000000  0.5379250000000 1.0
C      1  0.5109180000000  0.4522550000000  0.4652200000000 1.0
C      1  0.4672960000000  0.5468050000000  0.4985130000000 1.0
C      1  0.5607000000000  0.5363570000000  0.4965130000000 1.0
C      1  0.5296280000000  0.4514540000000  0.5002210000000 1.0
C      1  0.4326170000000  0.4570950000000  0.5019310000000 1.0
C      1  0.5458680000000  0.4507400000000  0.5277480000000 1.0
C      1  0.4460600000000  0.4454710000000  0.4735080000000 1.0
C      1  0.4539560000000  0.5508060000000  0.5274660000000 1.0
C      1  0.5535980000000  0.5527650000000  0.4701450000000 1.0
END
