TITL C-26730-8313-96 0.000282048224411343 125000 -290.473602171592 0 0 60 (C1) n - 1
REM
REM in /home/nfs/bkarasulu/CARBON/AIRSS/Generating-Clusters/AIREBO/Higher-Symm/Only-C60
REM
REM
REM
REM
REM
REM ./C.cell (28575a23ae977d3b5fae324c64b13b57)
REM
REM compiler GCC version 9.2.1 20190827 (Red Hat 9.2.1-1)
REM options -cpp -mtune=generic -march=x86-64 -g -O0 -fpre-include=/usr/include/finclude/math-vector-fortran.h
REM seed -294807048 -1061169609 -144398728 1170831522 -2027156960 -792788775 1236652722 1443097702 -1708449654 650701065 144887352 -1471145069 -1061055294 -1964768055 1309424309 -232057919 -1531220084 501175083 474476673 -1190183192 -1820624042 -685348223 330383685 -1727374371 -1564225215 -967293114 -1197716425 1147449334 1373677287 -1347186942 -921086711 877648791 1544661992
REM
CELL 1.54180   50.00000   50.00000   50.00000   90.00000   90.00000   90.00000
LATT -1
SFAC C  
C      1  0.4431090000000  0.5441320000000  0.5151300000000 1.0
C      1  0.5561010000000  0.4537150000000  0.4887520000000 1.0
C      1  0.5051030000000  0.4247170000000  0.4801780000000 1.0
C      1  0.4924470000000  0.5761270000000  0.5184820000000 1.0
C      1  0.4532070000000  0.4865530000000  0.5063410000000 1.0
C      1  0.5463820000000  0.5120300000000  0.4970190000000 1.0
C      1  0.4804020000000  0.4928960000000  0.4586560000000 1.0
C      1  0.5183190000000  0.5076370000000  0.5413290000000 1.0
C      1  0.4601980000000  0.5628230000000  0.4714390000000 1.0
C      1  0.5418790000000  0.4384990000000  0.5268800000000 1.0
C      1  0.4515900000000  0.4808680000000  0.4632740000000 1.0
C      1  0.5486890000000  0.5204940000000  0.5368160000000 1.0
C      1  0.5034100000000  0.5322030000000  0.4424820000000 1.0
C      1  0.5000420000000  0.4650080000000  0.5557730000000 1.0
C      1  0.4717770000000  0.5086500000000  0.5224700000000 1.0
C      1  0.5281150000000  0.4917890000000  0.4799770000000 1.0
C      1  0.5165360000000  0.4429910000000  0.5057060000000 1.0
C      1  0.4806700000000  0.5542340000000  0.4963620000000 1.0
C      1  0.5202820000000  0.5661300000000  0.5229810000000 1.0
C      1  0.4791140000000  0.4379500000000  0.4709250000000 1.0
C      1  0.4571710000000  0.5013920000000  0.5646690000000 1.0
C      1  0.5438000000000  0.4989450000000  0.4387520000000 1.0
C      1  0.5250720000000  0.5668760000000  0.4734590000000 1.0
C      1  0.4677700000000  0.4371400000000  0.5276050000000 1.0
C      1  0.4825500000000  0.4668810000000  0.5248410000000 1.0
C      1  0.5145230000000  0.5356140000000  0.4761860000000 1.0
C      1  0.5011450000000  0.5309700000000  0.5551390000000 1.0
C      1  0.4979820000000  0.4684810000000  0.4481060000000 1.0
C      1  0.5255970000000  0.4727780000000  0.5150830000000 1.0
C      1  0.4706480000000  0.5266300000000  0.4839640000000 1.0
C      1  0.5555360000000  0.4807860000000  0.5068250000000 1.0
C      1  0.4432690000000  0.5174540000000  0.4962210000000 1.0
C      1  0.5513910000000  0.5512370000000  0.5225460000000 1.0
C      1  0.4517600000000  0.4533600000000  0.4595060000000 1.0
C      1  0.5371340000000  0.4716640000000  0.4553890000000 1.0
C      1  0.4624320000000  0.5279970000000  0.5460520000000 1.0
C      1  0.4750670000000  0.4645940000000  0.4917450000000 1.0
C      1  0.5245750000000  0.5355430000000  0.5086770000000 1.0
C      1  0.5313060000000  0.4433220000000  0.4690370000000 1.0
C      1  0.4685640000000  0.5567890000000  0.5337970000000 1.0
C      1  0.5629670000000  0.5206770000000  0.4511950000000 1.0
C      1  0.4388680000000  0.4784000000000  0.5530380000000 1.0
C      1  0.5345270000000  0.5334560000000  0.4487580000000 1.0
C      1  0.4683370000000  0.4671640000000  0.5557490000000 1.0
C      1  0.5222840000000  0.4766490000000  0.4263400000000 1.0
C      1  0.4772800000000  0.5244510000000  0.5759410000000 1.0
C      1  0.4584350000000  0.5388580000000  0.4537070000000 1.0
C      1  0.5450830000000  0.4642530000000  0.5417090000000 1.0
C      1  0.4980380000000  0.5069190000000  0.4841350000000 1.0
C      1  0.5006770000000  0.4941450000000  0.5155700000000 1.0
C      1  0.5072070000000  0.4643680000000  0.4805870000000 1.0
C      1  0.4934620000000  0.5365480000000  0.5224720000000 1.0
C      1  0.4329370000000  0.4973270000000  0.4736590000000 1.0
C      1  0.5670820000000  0.5005920000000  0.5291970000000 1.0
C      1  0.4786860000000  0.5203150000000  0.4436380000000 1.0
C      1  0.5232250000000  0.4795170000000  0.5544150000000 1.0
C      1  0.4762760000000  0.4453580000000  0.4385280000000 1.0
C      1  0.5287480000000  0.5455220000000  0.5483070000000 1.0
C      1  0.5701680000000  0.5208340000000  0.4777200000000 1.0
C      1  0.4310470000000  0.4767470000000  0.5267660000000 1.0
END
