TITL C-26728-8286-77 2.24899261338324 125000 -313.109500988785 0 0 60 (C1) n - 1
REM
REM in /home/nfs/bkarasulu/CARBON/AIRSS/Generating-Clusters/AIREBO/Higher-Symm/Only-C60
REM
REM
REM
REM
REM
REM ./C.cell (28575a23ae977d3b5fae324c64b13b57)
REM
REM compiler GCC version 9.2.1 20190827 (Red Hat 9.2.1-1)
REM options -cpp -mtune=generic -march=x86-64 -g -O0 -fpre-include=/usr/include/finclude/math-vector-fortran.h
REM seed -1358214588 2053665964 -541853131 825682667 -2142651423 -367978045 1737831194 465529455 8042199 2031291150 -332829016 1944064291 -2076005236 -2111916345 13507332 41778632 1742767570 -362433232 -1584880145 480708679 -637028924 -915569791 -2121977566 1679644208 -873664252 -1575357282 332842091 371325276 1759663744 1048248558 545970577 24577010 -1192511335
REM
CELL 1.54180   50.00000   50.00000   50.00000   90.00000   90.00000   90.00000
LATT -1
SFAC C  
C      1  0.5331980000000  0.5259910000000  0.4581710000000 1.0
C      1  0.5196650000000  0.5248270000000  0.5452560000000 1.0
C      1  0.4526450000000  0.5193530000000  0.4887320000000 1.0
C      1  0.4844400000000  0.5676770000000  0.5455230000000 1.0
C      1  0.4595850000000  0.5614730000000  0.4474020000000 1.0
C      1  0.5587250000000  0.5615000000000  0.4994310000000 1.0
C      1  0.4428940000000  0.4784920000000  0.4595710000000 1.0
C      1  0.5615600000000  0.4841960000000  0.4751120000000 1.0
C      1  0.4920530000000  0.4823320000000  0.5679190000000 1.0
C      1  0.5609810000000  0.5340720000000  0.5129500000000 1.0
C      1  0.4762550000000  0.5352950000000  0.5466410000000 1.0
C      1  0.4735810000000  0.5330580000000  0.4577080000000 1.0
C      1  0.4623510000000  0.4983250000000  0.5328900000000 1.0
C      1  0.4928400000000  0.4992190000000  0.4485350000000 1.0
C      1  0.5416680000000  0.4997330000000  0.5061200000000 1.0
C      1  0.5183800000000  0.5113780000000  0.4842520000000 1.0
C      1  0.4959840000000  0.5032770000000  0.5337750000000 1.0
C      1  0.4794410000000  0.5004970000000  0.4795690000000 1.0
C      1  0.4989800000000  0.5736430000000  0.5228450000000 1.0
C      1  0.4427930000000  0.5805730000000  0.4442820000000 1.0
C      1  0.5344460000000  0.5725610000000  0.5044710000000 1.0
C      1  0.5123260000000  0.4795750000000  0.4884690000000 1.0
C      1  0.4971470000000  0.4747590000000  0.5182340000000 1.0
C      1  0.4797510000000  0.4721790000000  0.4907400000000 1.0
C      1  0.4920180000000  0.4592730000000  0.5442480000000 1.0
C      1  0.4623300000000  0.4547420000000  0.4733470000000 1.0
C      1  0.5376290000000  0.4639950000000  0.4833230000000 1.0
C      1  0.4416520000000  0.4960970000000  0.5601260000000 1.0
C      1  0.4755450000000  0.4936800000000  0.4196130000000 1.0
C      1  0.5689510000000  0.4809340000000  0.5138830000000 1.0
C      1  0.5189520000000  0.4224360000000  0.4675540000000 1.0
C      1  0.5197740000000  0.4218740000000  0.5337910000000 1.0
C      1  0.4631630000000  0.4159570000000  0.5012580000000 1.0
C      1  0.5720750000000  0.5088680000000  0.4960350000000 1.0
C      1  0.4709280000000  0.5087040000000  0.5641120000000 1.0
C      1  0.4594180000000  0.5046530000000  0.4454650000000 1.0
C      1  0.5363530000000  0.4251480000000  0.5122700000000 1.0
C      1  0.4723730000000  0.4187000000000  0.5268700000000 1.0
C      1  0.4922540000000  0.4187160000000  0.4630490000000 1.0
C      1  0.5350030000000  0.4361170000000  0.4862990000000 1.0
C      1  0.4938760000000  0.4315240000000  0.5399960000000 1.0
C      1  0.4687970000000  0.4275710000000  0.4760620000000 1.0
C      1  0.5680430000000  0.5348290000000  0.5427040000000 1.0
C      1  0.4533550000000  0.5498230000000  0.5279910000000 1.0
C      1  0.4953360000000  0.5536490000000  0.4429090000000 1.0
C      1  0.4930030000000  0.5405360000000  0.5175030000000 1.0
C      1  0.4907860000000  0.5308860000000  0.4870410000000 1.0
C      1  0.5264970000000  0.5450110000000  0.5187540000000 1.0
C      1  0.5422960000000  0.4803800000000  0.4473570000000 1.0
C      1  0.5242110000000  0.4780510000000  0.5577390000000 1.0
C      1  0.4359100000000  0.4753010000000  0.4926970000000 1.0
C      1  0.5210570000000  0.5509870000000  0.4463000000000 1.0
C      1  0.5488130000000  0.5325800000000  0.5592970000000 1.0
C      1  0.4474960000000  0.5448920000000  0.5043380000000 1.0
C      1  0.4487980000000  0.4947230000000  0.5076420000000 1.0
C      1  0.5217340000000  0.4990320000000  0.4464240000000 1.0
C      1  0.5297990000000  0.4947090000000  0.5331650000000 1.0
C      1  0.5091440000000  0.5109840000000  0.5744800000000 1.0
C      1  0.4284310000000  0.5073800000000  0.4701750000000 1.0
C      1  0.5625080000000  0.5132710000000  0.4575840000000 1.0
END
