TITL C-26736-6558-172 -0.0029976311133467 125000 -332.01166642081 0 0 60 (C1) n - 1
REM
REM in /home/nfs/bkarasulu/CARBON/AIRSS/Generating-Clusters/AIREBO/Higher-Symm/Only-C60
REM
REM
REM
REM
REM
REM ./C.cell (28575a23ae977d3b5fae324c64b13b57)
REM
REM compiler GCC version 9.2.1 20190827 (Red Hat 9.2.1-1)
REM options -cpp -mtune=generic -march=x86-64 -g -O0 -fpre-include=/usr/include/finclude/math-vector-fortran.h
REM seed -1127553700 -695573626 -221995884 -1088604141 188584013 -575537832 -839107696 -1592076800 -1111742793 115466395 -341166404 184329519 -1518194370 1953876786 -1931779419 662692700 -323699604 1906844936 54625890 -633772409 1570924843 2116270458 -843822997 -1141931380 -948772445 -1769352349 -480188064 -1312411438 1391597982 1378486756 717291044 1139196808 1063497100
REM
CELL 1.54180   50.00000   50.00000   50.00000   90.00000   90.00000   90.00000
LATT -1
SFAC C  
C      1  0.5325090000000  0.4654300000000  0.5492470000000 1.0
C      1  0.4913660000000  0.4403990000000  0.4482670000000 1.0
C      1  0.4976160000000  0.4725760000000  0.4572980000000 1.0
C      1  0.5693070000000  0.5424900000000  0.5073440000000 1.0
C      1  0.5057190000000  0.4575610000000  0.5435860000000 1.0
C      1  0.5163900000000  0.5032360000000  0.5778750000000 1.0
C      1  0.5217510000000  0.5581690000000  0.4873210000000 1.0
C      1  0.4565980000000  0.5273170000000  0.5334840000000 1.0
C      1  0.4573340000000  0.4529170000000  0.5125020000000 1.0
C      1  0.4889530000000  0.4738910000000  0.4223210000000 1.0
C      1  0.5343960000000  0.5384660000000  0.5277960000000 1.0
C      1  0.5023490000000  0.5697880000000  0.4619180000000 1.0
C      1  0.4174250000000  0.5051350000000  0.5006440000000 1.0
C      1  0.5302180000000  0.5055790000000  0.5312880000000 1.0
C      1  0.4244630000000  0.4941010000000  0.5223000000000 1.0
C      1  0.4756100000000  0.5521190000000  0.4621990000000 1.0
C      1  0.5335170000000  0.4887790000000  0.4522520000000 1.0
C      1  0.4551750000000  0.4638610000000  0.4846960000000 1.0
C      1  0.5756890000000  0.4793810000000  0.4803680000000 1.0
C      1  0.5503100000000  0.4386800000000  0.5025260000000 1.0
C      1  0.4688690000000  0.4843280000000  0.5595560000000 1.0
C      1  0.5265420000000  0.5259710000000  0.4971580000000 1.0
C      1  0.5433760000000  0.4768650000000  0.4771060000000 1.0
C      1  0.4833020000000  0.5195940000000  0.4634900000000 1.0
C      1  0.4985680000000  0.4384830000000  0.4977300000000 1.0
C      1  0.4359260000000  0.5224110000000  0.4825210000000 1.0
C      1  0.4701700000000  0.5600880000000  0.4919090000000 1.0
C      1  0.5667290000000  0.4897870000000  0.5067560000000 1.0
C      1  0.5129530000000  0.4976890000000  0.4260230000000 1.0
C      1  0.5330230000000  0.4925190000000  0.5587590000000 1.0
C      1  0.5291050000000  0.5403310000000  0.4593100000000 1.0
C      1  0.4941500000000  0.5663220000000  0.5054730000000 1.0
C      1  0.4652530000000  0.4594820000000  0.4382680000000 1.0
C      1  0.4848740000000  0.5315490000000  0.5399950000000 1.0
C      1  0.4324650000000  0.5489110000000  0.5328370000000 1.0
C      1  0.4842440000000  0.4812300000000  0.4815470000000 1.0
C      1  0.5198690000000  0.4644710000000  0.4328840000000 1.0
C      1  0.5012740000000  0.4650370000000  0.5138830000000 1.0
C      1  0.5001950000000  0.5118250000000  0.5229810000000 1.0
C      1  0.4944760000000  0.5618670000000  0.5324000000000 1.0
C      1  0.5175900000000  0.5516100000000  0.5500380000000 1.0
C      1  0.4533100000000  0.5045630000000  0.4590160000000 1.0
C      1  0.4526190000000  0.4749520000000  0.4579300000000 1.0
C      1  0.5484520000000  0.5627680000000  0.5078630000000 1.0
C      1  0.4787110000000  0.4575700000000  0.5545890000000 1.0
C      1  0.5382360000000  0.4457980000000  0.4778830000000 1.0
C      1  0.5276660000000  0.4817730000000  0.5071250000000 1.0
C      1  0.4603480000000  0.4418720000000  0.5384780000000 1.0
C      1  0.5519180000000  0.4640100000000  0.5230180000000 1.0
C      1  0.4489750000000  0.5419120000000  0.5038550000000 1.0
C      1  0.4486640000000  0.5373740000000  0.4547880000000 1.0
C      1  0.4849520000000  0.5013130000000  0.5736180000000 1.0
C      1  0.4737370000000  0.4827370000000  0.5138510000000 1.0
C      1  0.5139590000000  0.5166540000000  0.4526840000000 1.0
C      1  0.5005970000000  0.5314500000000  0.5698940000000 1.0
C      1  0.5581280000000  0.5160090000000  0.5048470000000 1.0
C      1  0.5112660000000  0.4380800000000  0.4723040000000 1.0
C      1  0.4975270000000  0.5103850000000  0.4919090000000 1.0
C      1  0.5977520000000  0.4735790000000  0.4663410000000 1.0
C      1  0.4535330000000  0.4969580000000  0.5341490000000 1.0
END
