TITL C-26735-8354-58 0.00165414374251116 125000 -358.618062335054 0 0 60 (C1) n - 1
REM
REM in /home/nfs/bkarasulu/CARBON/AIRSS/Generating-Clusters/AIREBO/Higher-Symm/Only-C60
REM
REM
REM
REM
REM
REM ./C.cell (28575a23ae977d3b5fae324c64b13b57)
REM
REM compiler GCC version 9.2.1 20190827 (Red Hat 9.2.1-1)
REM options -cpp -mtune=generic -march=x86-64 -g -O0 -fpre-include=/usr/include/finclude/math-vector-fortran.h
REM seed 1529139795 -1097476700 -1522426928 488381675 723899374 417458660 -1992030630 -1118179216 2101384910 -559791150 1340307882 -2003346762 -1733322818 -433364134 345452046 -421014961 -109191062 -1555152760 2073284385 -1875393957 2129521826 -167979480 86863808 143318146 -143900738 1331263237 1215665888 872083257 1882210842 -1173117568 -1751427685 608857474 97497035
REM
CELL 1.54180   50.00000   50.00000   50.00000   90.00000   90.00000   90.00000
LATT -1
SFAC C  
C      1  0.4772580000000  0.5648690000000  0.5339060000000 1.0
C      1  0.4531000000000  0.4602030000000  0.5337660000000 1.0
C      1  0.5674410000000  0.4872390000000  0.5268000000000 1.0
C      1  0.4773660000000  0.4401180000000  0.5298900000000 1.0
C      1  0.4533740000000  0.5453480000000  0.5277180000000 1.0
C      1  0.5663780000000  0.5168140000000  0.5287090000000 1.0
C      1  0.4306300000000  0.5376860000000  0.4781460000000 1.0
C      1  0.5014240000000  0.4187520000000  0.4865500000000 1.0
C      1  0.5554340000000  0.5338730000000  0.4755900000000 1.0
C      1  0.4303040000000  0.4566460000000  0.4856240000000 1.0
C      1  0.5002280000000  0.5803470000000  0.4889380000000 1.0
C      1  0.5717680000000  0.4581640000000  0.4853470000000 1.0
C      1  0.5017530000000  0.5353710000000  0.4878110000000 1.0
C      1  0.4692950000000  0.4876540000000  0.4864250000000 1.0
C      1  0.5203910000000  0.4824520000000  0.4911830000000 1.0
C      1  0.4921610000000  0.4677450000000  0.4861410000000 1.0
C      1  0.4750710000000  0.5199110000000  0.4865180000000 1.0
C      1  0.5264650000000  0.5145990000000  0.4984950000000 1.0
C      1  0.4595470000000  0.5205280000000  0.5475490000000 1.0
C      1  0.5007410000000  0.4454340000000  0.5535820000000 1.0
C      1  0.5435460000000  0.5287450000000  0.5388970000000 1.0
C      1  0.4558740000000  0.4700200000000  0.5631220000000 1.0
C      1  0.4990610000000  0.5542750000000  0.5570820000000 1.0
C      1  0.5440320000000  0.4743840000000  0.5353270000000 1.0
C      1  0.5041200000000  0.4713180000000  0.5638350000000 1.0
C      1  0.5266680000000  0.5145700000000  0.5567040000000 1.0
C      1  0.4789020000000  0.5120550000000  0.5648970000000 1.0
C      1  0.5025900000000  0.5274700000000  0.5647650000000 1.0
C      1  0.5270540000000  0.4860140000000  0.5551140000000 1.0
C      1  0.4797260000000  0.4845090000000  0.5697320000000 1.0
C      1  0.5514510000000  0.5270780000000  0.4482310000000 1.0
C      1  0.4617740000000  0.5228310000000  0.4580650000000 1.0
C      1  0.5001730000000  0.4536290000000  0.4571880000000 1.0
C      1  0.5382430000000  0.4773660000000  0.4641820000000 1.0
C      1  0.4586440000000  0.4818680000000  0.4558140000000 1.0
C      1  0.5073630000000  0.5473170000000  0.4569350000000 1.0
C      1  0.5176890000000  0.4337940000000  0.4695120000000 1.0
C      1  0.5408010000000  0.5538540000000  0.4886950000000 1.0
C      1  0.4331330000000  0.5119220000000  0.4618820000000 1.0
C      1  0.5208690000000  0.5675050000000  0.4737610000000 1.0
C      1  0.5410810000000  0.4493330000000  0.4828730000000 1.0
C      1  0.4318540000000  0.4826550000000  0.4735640000000 1.0
C      1  0.5101650000000  0.5626930000000  0.5282940000000 1.0
C      1  0.4509290000000  0.4844260000000  0.5132520000000 1.0
C      1  0.5300220000000  0.4596480000000  0.5131060000000 1.0
C      1  0.5109190000000  0.4401280000000  0.5242870000000 1.0
C      1  0.4607080000000  0.5146970000000  0.5145800000000 1.0
C      1  0.5286940000000  0.5435700000000  0.5161780000000 1.0
C      1  0.4484480000000  0.4460730000000  0.5031740000000 1.0
C      1  0.5760500000000  0.4810060000000  0.4987210000000 1.0
C      1  0.4799390000000  0.5579860000000  0.5008750000000 1.0
C      1  0.4479260000000  0.5478730000000  0.4954330000000 1.0
C      1  0.5600660000000  0.5101450000000  0.4950130000000 1.0
C      1  0.4809540000000  0.4394630000000  0.4978200000000 1.0
C      1  0.5268530000000  0.4863040000000  0.4403110000000 1.0
C      1  0.5052610000000  0.5287740000000  0.4369060000000 1.0
C      1  0.4774620000000  0.4877710000000  0.4352770000000 1.0
C      1  0.5294490000000  0.5139100000000  0.4351260000000 1.0
C      1  0.5017120000000  0.4728470000000  0.4367210000000 1.0
C      1  0.4796680000000  0.5164230000000  0.4360620000000 1.0
END
