TITL C-26735-8354-74 0.000179937672856146 125000 -354.853680317774 0 0 60 (C1) n - 1
REM
REM in /home/nfs/bkarasulu/CARBON/AIRSS/Generating-Clusters/AIREBO/Higher-Symm/Only-C60
REM
REM
REM
REM
REM
REM ./C.cell (28575a23ae977d3b5fae324c64b13b57)
REM
REM compiler GCC version 9.2.1 20190827 (Red Hat 9.2.1-1)
REM options -cpp -mtune=generic -march=x86-64 -g -O0 -fpre-include=/usr/include/finclude/math-vector-fortran.h
REM seed 1923814834 502254750 -1103531078 -1704266239 -1200108674 -1595636461 1370051657 1041076601 -815970832 -803903241 1311003724 -3601789 760886084 1059964977 569801087 243891227 -236386616 -73557428 -215070186 -1893962447 -627987450 543223545 -290813914 1757659983 612165511 1974609313 810485382 -588930821 317743333 -303950198 -1303114173 1605840169 1524570679
REM
CELL 1.54180   50.00000   50.00000   50.00000   90.00000   90.00000   90.00000
LATT -1
SFAC C  
C      1  0.4497250000000  0.4643540000000  0.4269100000000 1.0
C      1  0.5432930000000  0.4553900000000  0.5573470000000 1.0
C      1  0.5401250000000  0.5466990000000  0.4420890000000 1.0
C      1  0.4574650000000  0.5369210000000  0.5539630000000 1.0
C      1  0.4345390000000  0.4564170000000  0.4479750000000 1.0
C      1  0.5634090000000  0.4570270000000  0.5391840000000 1.0
C      1  0.4351630000000  0.5326190000000  0.5391140000000 1.0
C      1  0.5631860000000  0.5444280000000  0.4565130000000 1.0
C      1  0.4377240000000  0.4817520000000  0.4981700000000 1.0
C      1  0.5641180000000  0.4896010000000  0.4958510000000 1.0
C      1  0.5699690000000  0.5164060000000  0.5003570000000 1.0
C      1  0.4313070000000  0.5084290000000  0.4952090000000 1.0
C      1  0.4975650000000  0.4828920000000  0.4325160000000 1.0
C      1  0.5011300000000  0.4881640000000  0.5685140000000 1.0
C      1  0.5038000000000  0.5158390000000  0.5669620000000 1.0
C      1  0.4977610000000  0.5106700000000  0.4310040000000 1.0
C      1  0.5779810000000  0.5673460000000  0.5569910000000 1.0
C      1  0.4393640000000  0.5730150000000  0.4559260000000 1.0
C      1  0.4545460000000  0.4224560000000  0.5243570000000 1.0
C      1  0.5438370000000  0.4272210000000  0.4810690000000 1.0
C      1  0.5640790000000  0.5608180000000  0.5799110000000 1.0
C      1  0.4630650000000  0.5768320000000  0.4427700000000 1.0
C      1  0.5176110000000  0.4234110000000  0.4735440000000 1.0
C      1  0.4711030000000  0.4229300000000  0.5461030000000 1.0
C      1  0.4708740000000  0.5127350000000  0.4936070000000 1.0
C      1  0.5308440000000  0.5220060000000  0.5055710000000 1.0
C      1  0.5292380000000  0.5057540000000  0.4850000000000 1.0
C      1  0.4751490000000  0.4965640000000  0.5145640000000 1.0
C      1  0.4851550000000  0.5113500000000  0.4689110000000 1.0
C      1  0.5189140000000  0.5140640000000  0.5301250000000 1.0
C      1  0.4996750000000  0.4960350000000  0.5294110000000 1.0
C      1  0.5079750000000  0.4972580000000  0.4684060000000 1.0
C      1  0.5002140000000  0.4450720000000  0.4694960000000 1.0
C      1  0.4899680000000  0.4424630000000  0.5520320000000 1.0
C      1  0.4828500000000  0.5574860000000  0.4407320000000 1.0
C      1  0.5471440000000  0.5393520000000  0.5795890000000 1.0
C      1  0.4551670000000  0.4469360000000  0.5064320000000 1.0
C      1  0.5533020000000  0.4520450000000  0.4890080000000 1.0
C      1  0.4332320000000  0.5535110000000  0.4745450000000 1.0
C      1  0.5694570000000  0.5576560000000  0.5329210000000 1.0
C      1  0.4555860000000  0.4736430000000  0.5248660000000 1.0
C      1  0.5426160000000  0.4778370000000  0.4721700000000 1.0
C      1  0.5546700000000  0.5314360000000  0.5262070000000 1.0
C      1  0.4484460000000  0.5266080000000  0.4721470000000 1.0
C      1  0.5134850000000  0.4688460000000  0.4565200000000 1.0
C      1  0.4824690000000  0.4723130000000  0.5454770000000 1.0
C      1  0.5341530000000  0.5257690000000  0.5552840000000 1.0
C      1  0.4732370000000  0.5283320000000  0.4456720000000 1.0
C      1  0.5190930000000  0.5286430000000  0.4252420000000 1.0
C      1  0.4802440000000  0.5310320000000  0.5675370000000 1.0
C      1  0.4759670000000  0.4690170000000  0.4215520000000 1.0
C      1  0.5218780000000  0.4703850000000  0.5763880000000 1.0
C      1  0.4229910000000  0.5295060000000  0.5138900000000 1.0
C      1  0.5754210000000  0.5332350000000  0.4782390000000 1.0
C      1  0.4436970000000  0.4586630000000  0.4766530000000 1.0
C      1  0.5673480000000  0.4640370000000  0.5127610000000 1.0
C      1  0.4174920000000  0.5529120000000  0.4981280000000 1.0
C      1  0.5149870000000  0.4414060000000  0.5644680000000 1.0
C      1  0.5101700000000  0.5578680000000  0.4345610000000 1.0
C      1  0.4750310000000  0.4465890000000  0.4795410000000 1.0
END
