TITL C-26734-8308-1 9.20368658894708e-05 125000 -338.93057334847 0 0 60 (S4) n - 1
REM
REM in /home/nfs/bkarasulu/CARBON/AIRSS/Generating-Clusters/AIREBO/Higher-Symm/Only-C60
REM
REM
REM
REM
REM
REM ./C.cell (28575a23ae977d3b5fae324c64b13b57)
REM
REM compiler GCC version 9.2.1 20190827 (Red Hat 9.2.1-1)
REM options -cpp -mtune=generic -march=x86-64 -g -O0 -fpre-include=/usr/include/finclude/math-vector-fortran.h
REM seed -1896759487 732040478 -485687912 2066836930 -1786105174 -498110584 1645686985 -1577803102 830051620 -1942592483 -353549006 1293239935 -1106981181 -287215959 -1644882952 -1660029751 785815970 894868663 -1726322295 -893237784 -1624141110 -1788394067 1084889175 -1747840588 -515954167 -129228846 -718759289 -520825183 774496217 1218702359 -55963623 -791348052 -409958153
REM
CELL 1.54180   50.00000   50.00000   50.00000   90.00000   90.00000   90.00000
LATT -1
SFAC C  
C      1  0.5264010000000  0.4938300000000  0.5439530000000 1.0
C      1  0.4936220000000  0.4735150000000  0.4560460000000 1.0
C      1  0.4735180000000  0.5064020000000  0.5439410000000 1.0
C      1  0.5061960000000  0.5263970000000  0.4560600000000 1.0
C      1  0.5461830000000  0.5277140000000  0.4526940000000 1.0
C      1  0.5276990000000  0.4537670000000  0.5473180000000 1.0
C      1  0.4537290000000  0.4721970000000  0.4526060000000 1.0
C      1  0.4721770000000  0.5462310000000  0.5473820000000 1.0
C      1  0.4926950000000  0.4352680000000  0.5208640000000 1.0
C      1  0.4353640000000  0.5072570000000  0.4790550000000 1.0
C      1  0.5072240000000  0.5646530000000  0.5209620000000 1.0
C      1  0.5647440000000  0.4927280000000  0.4791200000000 1.0
C      1  0.4564280000000  0.5541340000000  0.5094180000000 1.0
C      1  0.5540710000000  0.5435390000000  0.4905900000000 1.0
C      1  0.5434920000000  0.4459340000000  0.5094140000000 1.0
C      1  0.4458740000000  0.4564740000000  0.4905780000000 1.0
C      1  0.4800830000000  0.4700940000000  0.5769280000000 1.0
C      1  0.4699680000000  0.5198810000000  0.4230570000000 1.0
C      1  0.5198710000000  0.5300540000000  0.5769580000000 1.0
C      1  0.5299250000000  0.4800880000000  0.4230550000000 1.0
C      1  0.4956570000000  0.4803260000000  0.5385990000000 1.0
C      1  0.4807080000000  0.5045170000000  0.4613780000000 1.0
C      1  0.5045220000000  0.5193180000000  0.5386300000000 1.0
C      1  0.5197000000000  0.4956490000000  0.4613930000000 1.0
C      1  0.5082100000000  0.4660350000000  0.5667970000000 1.0
C      1  0.4661280000000  0.4917810000000  0.4334100000000 1.0
C      1  0.4917650000000  0.5338640000000  0.5666070000000 1.0
C      1  0.5339510000000  0.5082210000000  0.4331830000000 1.0
C      1  0.5389680000000  0.5184020000000  0.5588930000000 1.0
C      1  0.5183110000000  0.4611440000000  0.4412560000000 1.0
C      1  0.4611460000000  0.4817210000000  0.5587280000000 1.0
C      1  0.4816330000000  0.5389670000000  0.4411230000000 1.0
C      1  0.4738780000000  0.4537330000000  0.4728400000000 1.0
C      1  0.4537430000000  0.5260970000000  0.5271050000000 1.0
C      1  0.5260110000000  0.5461710000000  0.4729110000000 1.0
C      1  0.5461800000000  0.4739600000000  0.5271440000000 1.0
C      1  0.5698000000000  0.5171210000000  0.4650490000000 1.0
C      1  0.5170780000000  0.4301740000000  0.5349370000000 1.0
C      1  0.4301760000000  0.4828840000000  0.4650110000000 1.0
C      1  0.4828400000000  0.5698050000000  0.5350010000000 1.0
C      1  0.4525780000000  0.5232270000000  0.4634740000000 1.0
C      1  0.5232200000000  0.5474520000000  0.5365400000000 1.0
C      1  0.5475560000000  0.4767010000000  0.4634940000000 1.0
C      1  0.4766960000000  0.4524720000000  0.5364920000000 1.0
C      1  0.4492660000000  0.4632850000000  0.5376300000000 1.0
C      1  0.4632320000000  0.5507650000000  0.4623530000000 1.0
C      1  0.5507640000000  0.5368090000000  0.5376710000000 1.0
C      1  0.5367540000000  0.4492640000000  0.4623470000000 1.0
C      1  0.5269720000000  0.4416670000000  0.4876320000000 1.0
C      1  0.4416820000000  0.4730440000000  0.5123330000000 1.0
C      1  0.4729950000000  0.5583400000000  0.4876610000000 1.0
C      1  0.5583510000000  0.5270220000000  0.5123740000000 1.0
C      1  0.5209250000000  0.4992240000000  0.4935710000000 1.0
C      1  0.4992760000000  0.4790980000000  0.5064110000000 1.0
C      1  0.4792090000000  0.5007600000000  0.4935620000000 1.0
C      1  0.5008130000000  0.5208180000000  0.5064560000000 1.0
C      1  0.4499570000000  0.5018480000000  0.5061000000000 1.0
C      1  0.5017960000000  0.5500830000000  0.4939120000000 1.0
C      1  0.5501510000000  0.4981900000000  0.5061720000000 1.0
C      1  0.4981380000000  0.4498840000000  0.4938170000000 1.0
END
