TITL C-26740-8352-149 -0.00127807958666512 125000 -324.441977823865 0 0 60 (C1) n - 1
REM
REM in /home/nfs/bkarasulu/CARBON/AIRSS/Generating-Clusters/AIREBO/Higher-Symm/Only-C60
REM
REM
REM
REM
REM
REM ./C.cell (28575a23ae977d3b5fae324c64b13b57)
REM
REM compiler GCC version 9.2.1 20190827 (Red Hat 9.2.1-1)
REM options -cpp -mtune=generic -march=x86-64 -g -O0 -fpre-include=/usr/include/finclude/math-vector-fortran.h
REM seed -1468460679 863129992 1074605299 -1098290703 -1363410193 -236518493 -1605457378 -1424343952 1198428620 -1163768678 -963485094 647042752 -767541693 -154039003 1497894172 1894141726 1798429649 1858957365 -1384814577 856474810 -2032540246 -1803362572 -1429380831 -295061247 984943053 -1545302534 -1222577745 -1728983902 1931389256 371539707 -1709278588 485054222 -783928498
REM
CELL 1.54180   50.00000   50.00000   50.00000   90.00000   90.00000   90.00000
LATT -1
SFAC C  
C      1  0.4317030000000  0.5097380000000  0.4537620000000 1.0
C      1  0.5198670000000  0.4400510000000  0.4602560000000 1.0
C      1  0.5414710000000  0.5480530000000  0.4653050000000 1.0
C      1  0.4423340000000  0.4835210000000  0.4573480000000 1.0
C      1  0.5270860000000  0.5703210000000  0.4722700000000 1.0
C      1  0.5427220000000  0.4605300000000  0.4531860000000 1.0
C      1  0.5025250000000  0.4686380000000  0.5222970000000 1.0
C      1  0.5247980000000  0.5170270000000  0.5190630000000 1.0
C      1  0.4749900000000  0.5130870000000  0.5136160000000 1.0
C      1  0.4961020000000  0.5339330000000  0.5179530000000 1.0
C      1  0.5277810000000  0.4835290000000  0.5169210000000 1.0
C      1  0.4737520000000  0.4855570000000  0.5254190000000 1.0
C      1  0.4344560000000  0.4865550000000  0.5313790000000 1.0
C      1  0.5417670000000  0.4473000000000  0.5258860000000 1.0
C      1  0.5233090000000  0.5609750000000  0.5289490000000 1.0
C      1  0.4382740000000  0.5202340000000  0.5276930000000 1.0
C      1  0.5527710000000  0.5440690000000  0.5273320000000 1.0
C      1  0.5154590000000  0.4311750000000  0.5253510000000 1.0
C      1  0.5570880000000  0.4772710000000  0.5329970000000 1.0
C      1  0.4894750000000  0.5628870000000  0.5344440000000 1.0
C      1  0.4546940000000  0.4588050000000  0.5342100000000 1.0
C      1  0.5556550000000  0.5102920000000  0.5302780000000 1.0
C      1  0.4848570000000  0.4425310000000  0.5350470000000 1.0
C      1  0.4620600000000  0.5428650000000  0.5368830000000 1.0
C      1  0.4712900000000  0.5688890000000  0.4702330000000 1.0
C      1  0.4484540000000  0.4369380000000  0.4728880000000 1.0
C      1  0.5805660000000  0.4864220000000  0.4706980000000 1.0
C      1  0.4754670000000  0.4320490000000  0.4784180000000 1.0
C      1  0.4459660000000  0.5587010000000  0.4634310000000 1.0
C      1  0.5712550000000  0.5118410000000  0.4780230000000 1.0
C      1  0.5344500000000  0.4805690000000  0.4866630000000 1.0
C      1  0.4922990000000  0.5483470000000  0.4873810000000 1.0
C      1  0.4650050000000  0.4740740000000  0.4946340000000 1.0
C      1  0.5387680000000  0.5131890000000  0.4879660000000 1.0
C      1  0.4931470000000  0.4581890000000  0.4910990000000 1.0
C      1  0.4600650000000  0.5167380000000  0.4907420000000 1.0
C      1  0.4337050000000  0.4733590000000  0.5034810000000 1.0
C      1  0.5533810000000  0.4562170000000  0.4993100000000 1.0
C      1  0.5115720000000  0.5707340000000  0.5020540000000 1.0
C      1  0.4339960000000  0.5275270000000  0.4980810000000 1.0
C      1  0.5691590000000  0.5531350000000  0.5052110000000 1.0
C      1  0.5140430000000  0.4136770000000  0.5024020000000 1.0
C      1  0.5658870000000  0.4615170000000  0.4713860000000 1.0
C      1  0.4981360000000  0.5847960000000  0.4732890000000 1.0
C      1  0.4328160000000  0.4611570000000  0.4750630000000 1.0
C      1  0.5653700000000  0.5416260000000  0.4792680000000 1.0
C      1  0.5045770000000  0.4226520000000  0.4769860000000 1.0
C      1  0.4312950000000  0.5343090000000  0.4692190000000 1.0
C      1  0.5283030000000  0.4914280000000  0.4561620000000 1.0
C      1  0.4952960000000  0.5279550000000  0.4649590000000 1.0
C      1  0.4751630000000  0.4797120000000  0.4626780000000 1.0
C      1  0.5236380000000  0.5223840000000  0.4593160000000 1.0
C      1  0.5050060000000  0.4698060000000  0.4614040000000 1.0
C      1  0.4739560000000  0.5104940000000  0.4673750000000 1.0
C      1  0.5234650000000  0.5136460000000  0.5530530000000 1.0
C      1  0.4776340000000  0.5170460000000  0.5664020000000 1.0
C      1  0.4990120000000  0.4744490000000  0.5556180000000 1.0
C      1  0.5205640000000  0.4891000000000  0.5666140000000 1.0
C      1  0.4737510000000  0.4899220000000  0.5592220000000 1.0
C      1  0.4985510000000  0.5284620000000  0.5514260000000 1.0
END
