TITL C-26736-6558-20 0.000467069555876995 125000 -343.24640332703 0 0 60 (C1) n - 1
REM
REM in /home/nfs/bkarasulu/CARBON/AIRSS/Generating-Clusters/AIREBO/Higher-Symm/Only-C60
REM
REM
REM
REM
REM
REM ./C.cell (28575a23ae977d3b5fae324c64b13b57)
REM
REM compiler GCC version 9.2.1 20190827 (Red Hat 9.2.1-1)
REM options -cpp -mtune=generic -march=x86-64 -g -O0 -fpre-include=/usr/include/finclude/math-vector-fortran.h
REM seed -1985815435 332479664 1856334125 51493678 1327786348 -1749550475 86404137 1279497431 2017380560 -1227509893 1264355219 -1961945097 98561399 -820897500 2094159488 -651282639 -1775348143 -697699945 954606146 1913192864 -222672362 305569704 1842548478 1599413773 1616313436 -1643625776 2026093166 -1893249684 -2130375940 -1675173217 -607023869 -468463434 932994940
REM
CELL 1.54180   50.00000   50.00000   50.00000   90.00000   90.00000   90.00000
LATT -1
SFAC C  
C      1  0.5240350000000  0.5762970000000  0.5000110000000 1.0
C      1  0.5064060000000  0.5772790000000  0.5235040000000 1.0
C      1  0.4786700000000  0.5769510000000  0.5138830000000 1.0
C      1  0.4791800000000  0.5769240000000  0.4844480000000 1.0
C      1  0.5074060000000  0.5763050000000  0.4757810000000 1.0
C      1  0.5648380000000  0.4661440000000  0.4817750000000 1.0
C      1  0.5375410000000  0.4726100000000  0.5604570000000 1.0
C      1  0.4583110000000  0.4693470000000  0.5531480000000 1.0
C      1  0.4361970000000  0.4704160000000  0.4752490000000 1.0
C      1  0.5021390000000  0.4701120000000  0.4303880000000 1.0
C      1  0.5436900000000  0.4990600000000  0.4894230000000 1.0
C      1  0.5250300000000  0.5035910000000  0.5386440000000 1.0
C      1  0.4752560000000  0.5002090000000  0.5343690000000 1.0
C      1  0.4596690000000  0.5009540000000  0.4857460000000 1.0
C      1  0.4995320000000  0.4997920000000  0.4568990000000 1.0
C      1  0.4355180000000  0.4714650000000  0.5302920000000 1.0
C      1  0.4502100000000  0.4736230000000  0.4460010000000 1.0
C      1  0.5343240000000  0.4716360000000  0.4351710000000 1.0
C      1  0.5582750000000  0.4714230000000  0.5143440000000 1.0
C      1  0.5077950000000  0.4730200000000  0.5721580000000 1.0
C      1  0.4556160000000  0.4478200000000  0.4640810000000 1.0
C      1  0.5179030000000  0.4454290000000  0.4434400000000 1.0
C      1  0.5540270000000  0.4416600000000  0.5016360000000 1.0
C      1  0.5171720000000  0.4495560000000  0.5521960000000 1.0
C      1  0.4550400000000  0.4459340000000  0.5316880000000 1.0
C      1  0.5047160000000  0.5387420000000  0.5644440000000 1.0
C      1  0.4421420000000  0.5353810000000  0.5267870000000 1.0
C      1  0.4551750000000  0.5370370000000  0.4529330000000 1.0
C      1  0.5308940000000  0.5351780000000  0.4440100000000 1.0
C      1  0.5623060000000  0.5377000000000  0.5137340000000 1.0
C      1  0.4963040000000  0.4772320000000  0.4764860000000 1.0
C      1  0.5250940000000  0.4710260000000  0.4872420000000 1.0
C      1  0.5261090000000  0.4781640000000  0.5185020000000 1.0
C      1  0.4955560000000  0.4752690000000  0.5275510000000 1.0
C      1  0.4753560000000  0.4780990000000  0.5010910000000 1.0
C      1  0.4648190000000  0.5544650000000  0.5241210000000 1.0
C      1  0.4646520000000  0.5547920000000  0.4745530000000 1.0
C      1  0.5130210000000  0.5541170000000  0.4589990000000 1.0
C      1  0.5418100000000  0.5544690000000  0.5006790000000 1.0
C      1  0.5117040000000  0.5556270000000  0.5409760000000 1.0
C      1  0.5136110000000  0.5285340000000  0.5235760000000 1.0
C      1  0.4824240000000  0.5273450000000  0.5193240000000 1.0
C      1  0.4761860000000  0.5280750000000  0.4882220000000 1.0
C      1  0.5036290000000  0.5270220000000  0.4735630000000 1.0
C      1  0.5265710000000  0.5257380000000  0.4945820000000 1.0
C      1  0.5572710000000  0.5111170000000  0.5156050000000 1.0
C      1  0.5037660000000  0.5117490000000  0.5599200000000 1.0
C      1  0.4471670000000  0.5089020000000  0.5228710000000 1.0
C      1  0.4611020000000  0.5106210000000  0.4555820000000 1.0
C      1  0.5295340000000  0.5084660000000  0.4495740000000 1.0
C      1  0.5502900000000  0.4845630000000  0.4593820000000 1.0
C      1  0.5560850000000  0.4900700000000  0.5417690000000 1.0
C      1  0.4813570000000  0.4875330000000  0.5644910000000 1.0
C      1  0.4345960000000  0.4863190000000  0.5023930000000 1.0
C      1  0.4766800000000  0.4884250000000  0.4360610000000 1.0
C      1  0.4765430000000  0.4449590000000  0.5105000000000 1.0
C      1  0.4817610000000  0.4464750000000  0.4779910000000 1.0
C      1  0.5142680000000  0.4420390000000  0.4731200000000 1.0
C      1  0.5267240000000  0.4336920000000  0.5011270000000 1.0
C      1  0.5069990000000  0.4435000000000  0.5235060000000 1.0
END
