TITL C-26739-6686-141 1.65878133625191e-05 125000 -310.219604608277 0 0 60 (C2v) n - 1
REM
REM in /home/nfs/bkarasulu/CARBON/AIRSS/Generating-Clusters/AIREBO/Higher-Symm/Only-C60
REM
REM
REM
REM
REM
REM ./C.cell (28575a23ae977d3b5fae324c64b13b57)
REM
REM compiler GCC version 9.2.1 20190827 (Red Hat 9.2.1-1)
REM options -cpp -mtune=generic -march=x86-64 -g -O0 -fpre-include=/usr/include/finclude/math-vector-fortran.h
REM seed 472729478 1638307749 1066302834 -1696579176 -1214899372 694538885 1633155599 -1294768769 1677614270 -1564167659 1754461822 -113199644 1334561917 1296324430 1364564163 -860848432 1863628697 -1481803964 -718392809 214914724 -1760600205 -587097821 -1481021262 1725691401 -668654937 932140263 -751319070 -822709009 1718743420 4035911 1664868624 -1169965900 621225937
REM
CELL 1.54180   50.00000   50.00000   50.00000   90.00000   90.00000   90.00000
LATT -1
SFAC C  
C      1  0.5000300000000  0.5474970000000  0.5237230000000 1.0
C      1  0.5199220000000  0.4999650000000  0.5444460000000 1.0
C      1  0.5428730000000  0.5253950000000  0.5012280000000 1.0
C      1  0.5000600000000  0.5446570000000  0.4734040000000 1.0
C      1  0.4999740000000  0.4553620000000  0.4733720000000 1.0
C      1  0.4999390000000  0.4524860000000  0.5236880000000 1.0
C      1  0.4746040000000  0.5000400000000  0.4565840000000 1.0
C      1  0.5254520000000  0.4999910000000  0.4566170000000 1.0
C      1  0.4800210000000  0.5000030000000  0.5444210000000 1.0
C      1  0.4571740000000  0.5254780000000  0.5011720000000 1.0
C      1  0.5428250000000  0.4745220000000  0.5012090000000 1.0
C      1  0.4571250000000  0.4746040000000  0.5011540000000 1.0
C      1  0.5199540000000  0.5465540000000  0.4987050000000 1.0
C      1  0.5423170000000  0.4999520000000  0.5213690000000 1.0
C      1  0.4999950000000  0.5250810000000  0.5446440000000 1.0
C      1  0.4801370000000  0.5465920000000  0.4986790000000 1.0
C      1  0.4800480000000  0.4534470000000  0.4986450000000 1.0
C      1  0.5198640000000  0.4534090000000  0.4986710000000 1.0
C      1  0.4555370000000  0.5000490000000  0.4815610000000 1.0
C      1  0.4576550000000  0.5000330000000  0.5213150000000 1.0
C      1  0.5444860000000  0.4999640000000  0.4816180000000 1.0
C      1  0.5000480000000  0.5198930000000  0.4545730000000 1.0
C      1  0.4999470000000  0.4748860000000  0.5446260000000 1.0
C      1  0.5000100000000  0.4801400000000  0.4545580000000 1.0
C      1  0.5733030000000  0.4999420000000  0.4668690000000 1.0
C      1  0.4632380000000  0.5739810000000  0.4970320000000 1.0
C      1  0.4999140000000  0.4588590000000  0.5721830000000 1.0
C      1  0.4304180000000  0.5000530000000  0.5384420000000 1.0
C      1  0.5695330000000  0.4999190000000  0.5385310000000 1.0
C      1  0.4267400000000  0.5000820000000  0.4667740000000 1.0
C      1  0.5369080000000  0.5739100000000  0.4970800000000 1.0
C      1  0.4630960000000  0.4260920000000  0.4969790000000 1.0
C      1  0.5367660000000  0.4260210000000  0.4970260000000 1.0
C      1  0.5000150000000  0.4658310000000  0.4256120000000 1.0
C      1  0.5000810000000  0.5342230000000  0.4256360000000 1.0
C      1  0.4999930000000  0.5410890000000  0.5722130000000 1.0
C      1  0.4624010000000  0.5000100000000  0.5711790000000 1.0
C      1  0.5000960000000  0.5698710000000  0.4544910000000 1.0
C      1  0.5694940000000  0.4576050000000  0.5027000000000 1.0
C      1  0.5443270000000  0.4999820000000  0.4313880000000 1.0
C      1  0.5375070000000  0.4999380000000  0.5712270000000 1.0
C      1  0.4557620000000  0.5000670000000  0.4313310000000 1.0
C      1  0.5000450000000  0.5742830000000  0.5404330000000 1.0
C      1  0.4999620000000  0.4301620000000  0.4544410000000 1.0
C      1  0.4999030000000  0.4256870000000  0.5403790000000 1.0
C      1  0.4304210000000  0.4577380000000  0.5026100000000 1.0
C      1  0.4305030000000  0.5423930000000  0.5026410000000 1.0
C      1  0.5695750000000  0.5422600000000  0.5027310000000 1.0
C      1  0.4359580000000  0.5694790000000  0.4997990000000 1.0
C      1  0.5000220000000  0.5686090000000  0.5677260000000 1.0
C      1  0.4352730000000  0.5000380000000  0.5656930000000 1.0
C      1  0.4999870000000  0.4381060000000  0.4278030000000 1.0
C      1  0.5709590000000  0.4999540000000  0.4391990000000 1.0
C      1  0.5640420000000  0.4305210000000  0.4998320000000 1.0
C      1  0.5641750000000  0.5693560000000  0.4998820000000 1.0
C      1  0.4998900000000  0.4313420000000  0.5676770000000 1.0
C      1  0.5001060000000  0.5619460000000  0.4278470000000 1.0
C      1  0.5646420000000  0.4999140000000  0.5657760000000 1.0
C      1  0.4291190000000  0.5000900000000  0.4391070000000 1.0
C      1  0.4358250000000  0.4306440000000  0.4997490000000 1.0
END
