TITL C-26726-4881-48 -0.00136381153539851 125000 -325.77955506393 0 0 60 (C2) n - 1
REM
REM in /home/nfs/bkarasulu/CARBON/AIRSS/Generating-Clusters/AIREBO/Higher-Symm/Only-C60
REM
REM
REM
REM
REM
REM ./C.cell (28575a23ae977d3b5fae324c64b13b57)
REM
REM compiler GCC version 9.2.1 20190827 (Red Hat 9.2.1-1)
REM options -cpp -mtune=generic -march=x86-64 -g -O0 -fpre-include=/usr/include/finclude/math-vector-fortran.h
REM seed 1165776500 2044207465 -1444027944 -229828891 -904875010 1727080464 -357045148 292909025 1524625989 -1504367524 1839687184 2125536430 38838980 1450601686 904758755 1698132569 -89451342 -159454314 -1978414727 1862138780 -113232613 1186228546 -1979720328 -1857196261 439156155 1634378009 250055355 -417693436 -1144556000 1194771634 -1729882538 128113500 1223211386
REM
CELL 1.54180   50.00000   50.00000   50.00000   90.00000   90.00000   90.00000
LATT -1
SFAC C  
C      1  0.5322500000000  0.5186200000000  0.4360080000000 1.0
C      1  0.4894970000000  0.5347780000000  0.5602490000000 1.0
C      1  0.4677660000000  0.4813280000000  0.4360120000000 1.0
C      1  0.5104890000000  0.4652700000000  0.5602820000000 1.0
C      1  0.4851240000000  0.4404350000000  0.4917670000000 1.0
C      1  0.5599410000000  0.4694980000000  0.5157890000000 1.0
C      1  0.5148750000000  0.5595650000000  0.4917230000000 1.0
C      1  0.4400650000000  0.5305130000000  0.5157470000000 1.0
C      1  0.4789770000000  0.5087640000000  0.5623150000000 1.0
C      1  0.4952580000000  0.4759620000000  0.4315910000000 1.0
C      1  0.5210070000000  0.4912870000000  0.5623250000000 1.0
C      1  0.5047590000000  0.5239810000000  0.4315740000000 1.0
C      1  0.5465110000000  0.5411990000000  0.4452310000000 1.0
C      1  0.4694030000000  0.5545850000000  0.5567150000000 1.0
C      1  0.4534990000000  0.4587560000000  0.4452460000000 1.0
C      1  0.5305860000000  0.4454620000000  0.5567700000000 1.0
C      1  0.4853900000000  0.5690780000000  0.4830170000000 1.0
C      1  0.4267580000000  0.5026770000000  0.5256760000000 1.0
C      1  0.5146110000000  0.4309100000000  0.4830780000000 1.0
C      1  0.5732380000000  0.4973460000000  0.5256980000000 1.0
C      1  0.4482160000000  0.4543390000000  0.5337110000000 1.0
C      1  0.5545370000000  0.4646510000000  0.4834970000000 1.0
C      1  0.5517740000000  0.5456880000000  0.5336880000000 1.0
C      1  0.4454700000000  0.5353330000000  0.4834550000000 1.0
C      1  0.5222850000000  0.5569640000000  0.5229840000000 1.0
C      1  0.4405480000000  0.5126650000000  0.4672130000000 1.0
C      1  0.4777100000000  0.4430520000000  0.5230260000000 1.0
C      1  0.5594650000000  0.4873060000000  0.4672360000000 1.0
C      1  0.4432260000000  0.5535250000000  0.5356510000000 1.0
C      1  0.4621340000000  0.4389540000000  0.4701810000000 1.0
C      1  0.5567700000000  0.4465030000000  0.5357130000000 1.0
C      1  0.5378690000000  0.5610330000000  0.4701400000000 1.0
C      1  0.4544730000000  0.4835540000000  0.4765600000000 1.0
C      1  0.5099620000000  0.4534910000000  0.5201910000000 1.0
C      1  0.5455270000000  0.5164220000000  0.4765620000000 1.0
C      1  0.4900310000000  0.5465280000000  0.5201510000000 1.0
C      1  0.4703250000000  0.5195160000000  0.5138670000000 1.0
C      1  0.4850510000000  0.4706960000000  0.4783760000000 1.0
C      1  0.5296820000000  0.4804890000000  0.5138910000000 1.0
C      1  0.5149510000000  0.5292970000000  0.4783580000000 1.0
C      1  0.5266070000000  0.5074730000000  0.5343840000000 1.0
C      1  0.4872150000000  0.5249540000000  0.4591210000000 1.0
C      1  0.4733840000000  0.4925530000000  0.5343890000000 1.0
C      1  0.5127940000000  0.4750130000000  0.4591430000000 1.0
C      1  0.5314950000000  0.4504590000000  0.4732150000000 1.0
C      1  0.5565370000000  0.5180600000000  0.5323090000000 1.0
C      1  0.4685120000000  0.5495190000000  0.4731660000000 1.0
C      1  0.4434550000000  0.4819670000000  0.5323100000000 1.0
C      1  0.4904600000000  0.4780090000000  0.5088360000000 1.0
C      1  0.5246920000000  0.4917410000000  0.4862510000000 1.0
C      1  0.5095300000000  0.5219980000000  0.5088210000000 1.0
C      1  0.4753180000000  0.5082340000000  0.4862340000000 1.0
C      1  0.5644830000000  0.5423440000000  0.4724930000000 1.0
C      1  0.4697050000000  0.5696330000000  0.5284180000000 1.0
C      1  0.4355100000000  0.4576360000000  0.4724990000000 1.0
C      1  0.5302900000000  0.4303970000000  0.5284830000000 1.0
C      1  0.5384260000000  0.4926020000000  0.4453560000000 1.0
C      1  0.5153090000000  0.5360390000000  0.5489690000000 1.0
C      1  0.4615890000000  0.5073520000000  0.4453400000000 1.0
C      1  0.4846790000000  0.4639980000000  0.5489980000000 1.0
END
