TITL C-26735-8354-137 -0.00142642058203253 125000 -313.371593693938 0 0 60 (C1) n - 1
REM
REM in /home/nfs/bkarasulu/CARBON/AIRSS/Generating-Clusters/AIREBO/Higher-Symm/Only-C60
REM
REM
REM
REM
REM
REM ./C.cell (28575a23ae977d3b5fae324c64b13b57)
REM
REM compiler GCC version 9.2.1 20190827 (Red Hat 9.2.1-1)
REM options -cpp -mtune=generic -march=x86-64 -g -O0 -fpre-include=/usr/include/finclude/math-vector-fortran.h
REM seed -505890081 -903796662 2075584549 1121504210 -1079061006 -1757281170 -470933516 -1220738355 -253402485 461975221 -14605008 173605244 879993693 -1538399332 1071213771 -2023778032 -1225507992 893832031 2084114049 -881187703 -1468465371 -1593156659 2057579655 -1001806459 -772405649 780591705 -119482219 -1519016137 -666557013 -1559431704 1399348133 -1798170809 -1698811862
REM
CELL 1.54180   50.00000   50.00000   50.00000   90.00000   90.00000   90.00000
LATT -1
SFAC C  
C      1  0.5394240000000  0.4517780000000  0.4805230000000 1.0
C      1  0.5380670000000  0.5415240000000  0.4696570000000 1.0
C      1  0.5397810000000  0.5035830000000  0.5416310000000 1.0
C      1  0.4694420000000  0.4454660000000  0.5343090000000 1.0
C      1  0.4723100000000  0.4980550000000  0.4339490000000 1.0
C      1  0.4710130000000  0.5624180000000  0.5320990000000 1.0
C      1  0.4300010000000  0.4750420000000  0.5112860000000 1.0
C      1  0.4298820000000  0.5062230000000  0.4701750000000 1.0
C      1  0.4295730000000  0.5267330000000  0.5179640000000 1.0
C      1  0.4502470000000  0.4517170000000  0.5140460000000 1.0
C      1  0.4529010000000  0.5103330000000  0.4505690000000 1.0
C      1  0.4513290000000  0.5421010000000  0.5330480000000 1.0
C      1  0.5247940000000  0.4854380000000  0.4407900000000 1.0
C      1  0.5210900000000  0.5583620000000  0.5189450000000 1.0
C      1  0.5288450000000  0.4510420000000  0.5453700000000 1.0
C      1  0.5122720000000  0.5229090000000  0.4380520000000 1.0
C      1  0.5072510000000  0.5442300000000  0.5533700000000 1.0
C      1  0.5116620000000  0.4399490000000  0.5114370000000 1.0
C      1  0.5152780000000  0.5037440000000  0.5101680000000 1.0
C      1  0.5243050000000  0.4787550000000  0.4946620000000 1.0
C      1  0.5196090000000  0.5168380000000  0.4835570000000 1.0
C      1  0.5498900000000  0.4748310000000  0.5444780000000 1.0
C      1  0.5457230000000  0.4749780000000  0.4589960000000 1.0
C      1  0.5425810000000  0.5473130000000  0.5018150000000 1.0
C      1  0.4822270000000  0.5423030000000  0.4532470000000 1.0
C      1  0.4837140000000  0.5076530000000  0.5582190000000 1.0
C      1  0.4836030000000  0.4362700000000  0.4831940000000 1.0
C      1  0.5795530000000  0.5007610000000  0.5228840000000 1.0
C      1  0.5837790000000  0.4828210000000  0.4929270000000 1.0
C      1  0.5798070000000  0.5168070000000  0.4920930000000 1.0
C      1  0.4830990000000  0.4858640000000  0.5249580000000 1.0
C      1  0.4835000000000  0.4828290000000  0.4780840000000 1.0
C      1  0.4852830000000  0.5283980000000  0.5000190000000 1.0
C      1  0.4883480000000  0.5635980000000  0.5552270000000 1.0
C      1  0.4920300000000  0.4267320000000  0.5271640000000 1.0
C      1  0.4905970000000  0.5163150000000  0.4204940000000 1.0
C      1  0.4937300000000  0.5123260000000  0.4645180000000 1.0
C      1  0.4978160000000  0.5226000000000  0.5310960000000 1.0
C      1  0.4890490000000  0.4626050000000  0.5040090000000 1.0
C      1  0.5091710000000  0.4631910000000  0.4696220000000 1.0
C      1  0.5074780000000  0.5479270000000  0.4832180000000 1.0
C      1  0.5121440000000  0.4864030000000  0.5392110000000 1.0
C      1  0.5362250000000  0.5354580000000  0.5391770000000 1.0
C      1  0.5427810000000  0.4498610000000  0.5143030000000 1.0
C      1  0.5416060000000  0.5135390000000  0.4504210000000 1.0
C      1  0.4308600000000  0.4976630000000  0.5278790000000 1.0
C      1  0.4278000000000  0.4808430000000  0.4814740000000 1.0
C      1  0.4303090000000  0.5291940000000  0.4901990000000 1.0
C      1  0.4883520000000  0.4836630000000  0.5710130000000 1.0
C      1  0.4735980000000  0.4501660000000  0.4574170000000 1.0
C      1  0.4712540000000  0.5631640000000  0.4781900000000 1.0
C      1  0.4605370000000  0.5309090000000  0.4768250000000 1.0
C      1  0.4606330000000  0.5091340000000  0.5354560000000 1.0
C      1  0.4554310000000  0.4641600000000  0.4826840000000 1.0
C      1  0.4907640000000  0.5670990000000  0.5058150000000 1.0
C      1  0.4961300000000  0.4587110000000  0.5507640000000 1.0
C      1  0.4932880000000  0.4725380000000  0.4410380000000 1.0
C      1  0.5698720000000  0.4682960000000  0.5199800000000 1.0
C      1  0.5658790000000  0.4973520000000  0.4679360000000 1.0
C      1  0.5624810000000  0.5294860000000  0.5183480000000 1.0
END
