TITL C-26734-8308-94 -0.00240471234844701 125000 -344.982499753572 0 0 60 (C1) n - 1
REM
REM in /home/nfs/bkarasulu/CARBON/AIRSS/Generating-Clusters/AIREBO/Higher-Symm/Only-C60
REM
REM
REM
REM
REM
REM ./C.cell (28575a23ae977d3b5fae324c64b13b57)
REM
REM compiler GCC version 9.2.1 20190827 (Red Hat 9.2.1-1)
REM options -cpp -mtune=generic -march=x86-64 -g -O0 -fpre-include=/usr/include/finclude/math-vector-fortran.h
REM seed 1818416259 155724504 -1630764898 1335138755 -1276720820 -1281296708 1824772454 371064161 1443761179 -1631035422 -1116742030 518736050 -782315740 -1687913046 336478708 410516313 1191398198 -1929994291 1912935177 -1490909506 -79472825 -232817592 -614296121 -708217032 175943637 978788014 -1311257231 -1495418316 1881279579 1696034928 346196043 -1158774606 210415571
REM
CELL 1.54180   50.00000   50.00000   50.00000   90.00000   90.00000   90.00000
LATT -1
SFAC C  
C      1  0.5407490000000  0.5659450000000  0.5095800000000 1.0
C      1  0.4862680000000  0.5554840000000  0.4618720000000 1.0
C      1  0.4706460000000  0.5707470000000  0.5264770000000 1.0
C      1  0.5432470000000  0.4343200000000  0.5115300000000 1.0
C      1  0.4869770000000  0.4418850000000  0.4589260000000 1.0
C      1  0.4693020000000  0.4309770000000  0.5208520000000 1.0
C      1  0.4500540000000  0.5790320000000  0.5092030000000 1.0
C      1  0.5111030000000  0.5543560000000  0.4615020000000 1.0
C      1  0.5308820000000  0.5783320000000  0.5311190000000 1.0
C      1  0.4500130000000  0.4238700000000  0.5041130000000 1.0
C      1  0.5117810000000  0.4399220000000  0.4592620000000 1.0
C      1  0.5335290000000  0.4249270000000  0.5356580000000 1.0
C      1  0.4866570000000  0.4848590000000  0.4458040000000 1.0
C      1  0.4845100000000  0.4914860000000  0.5542950000000 1.0
C      1  0.5599380000000  0.4842270000000  0.5073840000000 1.0
C      1  0.4821630000000  0.5164040000000  0.4466840000000 1.0
C      1  0.4661530000000  0.5118100000000  0.5477590000000 1.0
C      1  0.5545460000000  0.5116670000000  0.5172850000000 1.0
C      1  0.5190620000000  0.4819520000000  0.4478200000000 1.0
C      1  0.5158680000000  0.4896480000000  0.5472550000000 1.0
C      1  0.4444460000000  0.4843840000000  0.5076610000000 1.0
C      1  0.5142030000000  0.5133120000000  0.4501430000000 1.0
C      1  0.5355280000000  0.5123960000000  0.5439860000000 1.0
C      1  0.4488310000000  0.5113880000000  0.5202680000000 1.0
C      1  0.4395780000000  0.5588620000000  0.4920600000000 1.0
C      1  0.5151060000000  0.5604540000000  0.5528910000000 1.0
C      1  0.5450230000000  0.5557860000000  0.4596260000000 1.0
C      1  0.4373370000000  0.4415640000000  0.4857030000000 1.0
C      1  0.5168090000000  0.4390320000000  0.5533480000000 1.0
C      1  0.5458800000000  0.4380630000000  0.4598970000000 1.0
C      1  0.5591900000000  0.5563150000000  0.4877600000000 1.0
C      1  0.4826540000000  0.5607750000000  0.5528410000000 1.0
C      1  0.4521410000000  0.5565940000000  0.4629390000000 1.0
C      1  0.5611020000000  0.4404270000000  0.4878180000000 1.0
C      1  0.4870730000000  0.4404000000000  0.5468420000000 1.0
C      1  0.4530280000000  0.4453570000000  0.4588760000000 1.0
C      1  0.4614380000000  0.5371330000000  0.4364720000000 1.0
C      1  0.4696750000000  0.5367670000000  0.5606140000000 1.0
C      1  0.5717710000000  0.5337700000000  0.4981150000000 1.0
C      1  0.4655230000000  0.4645540000000  0.4334320000000 1.0
C      1  0.4748240000000  0.4666180000000  0.5611730000000 1.0
C      1  0.5758000000000  0.4644640000000  0.4937900000000 1.0
C      1  0.5347740000000  0.5325320000000  0.4378050000000 1.0
C      1  0.5324700000000  0.5344820000000  0.5600350000000 1.0
C      1  0.4315750000000  0.5359840000000  0.5048940000000 1.0
C      1  0.5378700000000  0.4608640000000  0.4358960000000 1.0
C      1  0.5260630000000  0.4632480000000  0.5629730000000 1.0
C      1  0.4255340000000  0.4653030000000  0.4976540000000 1.0
C      1  0.4852030000000  0.5466430000000  0.5156180000000 1.0
C      1  0.5325990000000  0.5330460000000  0.5060940000000 1.0
C      1  0.4689760000000  0.5294500000000  0.4745950000000 1.0
C      1  0.4865500000000  0.4595950000000  0.5187510000000 1.0
C      1  0.5347960000000  0.4658540000000  0.5037400000000 1.0
C      1  0.4733130000000  0.4693640000000  0.4718500000000 1.0
C      1  0.5107340000000  0.5443850000000  0.5247040000000 1.0
C      1  0.4704140000000  0.5270710000000  0.5030820000000 1.0
C      1  0.5276600000000  0.5296730000000  0.4768110000000 1.0
C      1  0.5122500000000  0.4742540000000  0.5206250000000 1.0
C      1  0.4694790000000  0.4740720000000  0.4997030000000 1.0
C      1  0.5293330000000  0.4639140000000  0.4745320000000 1.0
END
