TITL C-26728-8286-117 0.00635223966365055 125000 -329.224152683432 0 0 60 (C1) n - 1
REM
REM in /home/nfs/bkarasulu/CARBON/AIRSS/Generating-Clusters/AIREBO/Higher-Symm/Only-C60
REM
REM
REM
REM
REM
REM ./C.cell (28575a23ae977d3b5fae324c64b13b57)
REM
REM compiler GCC version 9.2.1 20190827 (Red Hat 9.2.1-1)
REM options -cpp -mtune=generic -march=x86-64 -g -O0 -fpre-include=/usr/include/finclude/math-vector-fortran.h
REM seed -1228578422 -887234492 -239953448 83172581 105584217 1904235272 -1056203947 533533609 -1193884381 319110724 -1182164929 879068148 2044232395 -1919678107 -1966336807 1644186884 -1046648747 -1744222890 929851175 -1678339847 1213827425 -784663060 956748529 -1502417256 -1559438087 2005452479 -707155778 -1334130382 -700475964 -1154570964 -1804506093 -80448736 -910693702
REM
CELL 1.54180   50.00000   50.00000   50.00000   90.00000   90.00000   90.00000
LATT -1
SFAC C  
C      1  0.5412560000000  0.5774920000000  0.4320130000000 1.0
C      1  0.4213170000000  0.5101710000000  0.4287080000000 1.0
C      1  0.5422050000000  0.4264830000000  0.4305240000000 1.0
C      1  0.5625780000000  0.5064020000000  0.5036170000000 1.0
C      1  0.4508300000000  0.5428000000000  0.5072640000000 1.0
C      1  0.4776200000000  0.4433170000000  0.5053840000000 1.0
C      1  0.4642740000000  0.5672220000000  0.5104750000000 1.0
C      1  0.4525930000000  0.4406770000000  0.5135550000000 1.0
C      1  0.5756640000000  0.4856150000000  0.5134250000000 1.0
C      1  0.5298490000000  0.4405820000000  0.4509180000000 1.0
C      1  0.5378730000000  0.5564700000000  0.4498420000000 1.0
C      1  0.4403650000000  0.5079760000000  0.4489150000000 1.0
C      1  0.4675820000000  0.4907520000000  0.4432350000000 1.0
C      1  0.5419160000000  0.4710740000000  0.4599010000000 1.0
C      1  0.5060650000000  0.5494580000000  0.4597810000000 1.0
C      1  0.4306020000000  0.5040660000000  0.4770660000000 1.0
C      1  0.5218590000000  0.4257010000000  0.4763800000000 1.0
C      1  0.5571440000000  0.5544350000000  0.4732290000000 1.0
C      1  0.5729140000000  0.4788150000000  0.5402450000000 1.0
C      1  0.4796140000000  0.5729770000000  0.5331920000000 1.0
C      1  0.4456000000000  0.4488470000000  0.5392340000000 1.0
C      1  0.5427840000000  0.5281500000000  0.5209510000000 1.0
C      1  0.4501420000000  0.5259750000000  0.5320180000000 1.0
C      1  0.5043930000000  0.4523790000000  0.5243210000000 1.0
C      1  0.5979030000000  0.5853730000000  0.4843090000000 1.0
C      1  0.3846410000000  0.4843040000000  0.4926960000000 1.0
C      1  0.5324490000000  0.3761900000000  0.4896740000000 1.0
C      1  0.5256530000000  0.4675100000000  0.5824980000000 1.0
C      1  0.5233650000000  0.5441760000000  0.5747620000000 1.0
C      1  0.4519700000000  0.5013750000000  0.5749840000000 1.0
C      1  0.4903260000000  0.4457070000000  0.5518460000000 1.0
C      1  0.5567310000000  0.5216690000000  0.5484840000000 1.0
C      1  0.4558920000000  0.5396530000000  0.5559080000000 1.0
C      1  0.5131710000000  0.4798510000000  0.5309970000000 1.0
C      1  0.5137130000000  0.5270910000000  0.5269450000000 1.0
C      1  0.4691190000000  0.5020720000000  0.5258850000000 1.0
C      1  0.5074210000000  0.4466760000000  0.4923180000000 1.0
C      1  0.5471000000000  0.5308380000000  0.4886220000000 1.0
C      1  0.4533760000000  0.5127050000000  0.4947180000000 1.0
C      1  0.4667780000000  0.4595330000000  0.5547370000000 1.0
C      1  0.5551950000000  0.4951000000000  0.5550980000000 1.0
C      1  0.4804380000000  0.5533760000000  0.5537830000000 1.0
C      1  0.4741300000000  0.5079950000000  0.4719160000000 1.0
C      1  0.5120500000000  0.4726160000000  0.4762330000000 1.0
C      1  0.5222270000000  0.5224710000000  0.4726860000000 1.0
C      1  0.5274420000000  0.4845080000000  0.5604360000000 1.0
C      1  0.5045340000000  0.5355400000000  0.5559770000000 1.0
C      1  0.4689830000000  0.4896900000000  0.5559670000000 1.0
C      1  0.4724090000000  0.5540330000000  0.4412310000000 1.0
C      1  0.4830890000000  0.4710860000000  0.4353180000000 1.0
C      1  0.5356550000000  0.5108780000000  0.4195830000000 1.0
C      1  0.5260480000000  0.4005660000000  0.4824800000000 1.0
C      1  0.5782960000000  0.5691380000000  0.4780740000000 1.0
C      1  0.4080960000000  0.4929820000000  0.4848640000000 1.0
C      1  0.5294580000000  0.5255820000000  0.4396930000000 1.0
C      1  0.4661310000000  0.5297650000000  0.4475270000000 1.0
C      1  0.5065890000000  0.4636240000000  0.4448520000000 1.0
C      1  0.4993330000000  0.5029210000000  0.5552370000000 1.0
C      1  0.4987730000000  0.5033600000000  0.5152480000000 1.0
C      1  0.5023560000000  0.5011740000000  0.4836390000000 1.0
END
