TITL C-26740-8352-8 0.00494958673567898 125000 -326.634827367999 0 0 60 (C1) n - 1
REM
REM in /home/nfs/bkarasulu/CARBON/AIRSS/Generating-Clusters/AIREBO/Higher-Symm/Only-C60
REM
REM
REM
REM
REM
REM ./C.cell (28575a23ae977d3b5fae324c64b13b57)
REM
REM compiler GCC version 9.2.1 20190827 (Red Hat 9.2.1-1)
REM options -cpp -mtune=generic -march=x86-64 -g -O0 -fpre-include=/usr/include/finclude/math-vector-fortran.h
REM seed -1070948968 -1442647810 666496525 -488213952 -843236109 1662697481 -1404582847 -1323147140 2033583737 -1478957272 353120089 1848701512 1783927624 860420740 1536697451 -1919605328 -2058762016 797081706 327347008 1495578482 -1873075127 -725272904 -843000465 1253394868 -1991971514 -1924697482 -824618271 -1937401570 21563927 317415299 1930755758 1435183865 -716728457
REM
CELL 1.54180   50.00000   50.00000   50.00000   90.00000   90.00000   90.00000
LATT -1
SFAC C  
C      1  0.5034970000000  0.4704660000000  0.4261530000000 1.0
C      1  0.4947890000000  0.5331760000000  0.5790550000000 1.0
C      1  0.5167160000000  0.5376140000000  0.5618310000000 1.0
C      1  0.4827110000000  0.4472770000000  0.4407350000000 1.0
C      1  0.5298070000000  0.5516590000000  0.4758550000000 1.0
C      1  0.4684280000000  0.4482020000000  0.5287280000000 1.0
C      1  0.4534150000000  0.4634120000000  0.4852590000000 1.0
C      1  0.5461240000000  0.5322600000000  0.5173800000000 1.0
C      1  0.5547950000000  0.4959560000000  0.5316710000000 1.0
C      1  0.4459850000000  0.5056000000000  0.4675520000000 1.0
C      1  0.4988020000000  0.4902950000000  0.4634570000000 1.0
C      1  0.5001410000000  0.5112440000000  0.5364340000000 1.0
C      1  0.4680860000000  0.4398910000000  0.4685950000000 1.0
C      1  0.5320980000000  0.5546590000000  0.5367270000000 1.0
C      1  0.4517540000000  0.5275260000000  0.5255080000000 1.0
C      1  0.5477090000000  0.4748700000000  0.4739870000000 1.0
C      1  0.5213750000000  0.4792370000000  0.5684370000000 1.0
C      1  0.4708230000000  0.5246800000000  0.4267120000000 1.0
C      1  0.5067100000000  0.5087850000000  0.4887300000000 1.0
C      1  0.4936630000000  0.4896470000000  0.5127810000000 1.0
C      1  0.4875100000000  0.5428290000000  0.5348510000000 1.0
C      1  0.5119990000000  0.4591880000000  0.4651220000000 1.0
C      1  0.5516260000000  0.5155410000000  0.5751480000000 1.0
C      1  0.4710350000000  0.4746640000000  0.4264540000000 1.0
C      1  0.4990990000000  0.4658210000000  0.5598020000000 1.0
C      1  0.4805180000000  0.5333550000000  0.4033330000000 1.0
C      1  0.5276850000000  0.4940600000000  0.4203300000000 1.0
C      1  0.4715140000000  0.5082010000000  0.5811480000000 1.0
C      1  0.5460860000000  0.4712940000000  0.5533980000000 1.0
C      1  0.4544730000000  0.5331780000000  0.4495610000000 1.0
C      1  0.5304220000000  0.4940880000000  0.4601070000000 1.0
C      1  0.4682230000000  0.5087360000000  0.5414210000000 1.0
C      1  0.5038670000000  0.4347020000000  0.5038660000000 1.0
C      1  0.5003520000000  0.5666090000000  0.4980060000000 1.0
C      1  0.5354160000000  0.5080590000000  0.4991310000000 1.0
C      1  0.4657790000000  0.4898530000000  0.4983990000000 1.0
C      1  0.4686970000000  0.5373550000000  0.4752140000000 1.0
C      1  0.5342840000000  0.4620970000000  0.5269980000000 1.0
C      1  0.5043840000000  0.5614800000000  0.5241110000000 1.0
C      1  0.4978340000000  0.4399370000000  0.4781490000000 1.0
C      1  0.5300770000000  0.5078500000000  0.5522520000000 1.0
C      1  0.4725530000000  0.4978630000000  0.4475590000000 1.0
C      1  0.4607840000000  0.4872480000000  0.5604620000000 1.0
C      1  0.5382970000000  0.5149110000000  0.4403940000000 1.0
C      1  0.4502810000000  0.4679470000000  0.5402830000000 1.0
C      1  0.5483930000000  0.5345240000000  0.4603220000000 1.0
C      1  0.5746010000000  0.5069560000000  0.5062960000000 1.0
C      1  0.4265200000000  0.4920790000000  0.4919410000000 1.0
C      1  0.5363860000000  0.4636770000000  0.4237390000000 1.0
C      1  0.4632170000000  0.5394560000000  0.5750760000000 1.0
C      1  0.5615010000000  0.5204530000000  0.4827180000000 1.0
C      1  0.4390880000000  0.4821150000000  0.5172870000000 1.0
C      1  0.5004020000000  0.4592660000000  0.5267170000000 1.0
C      1  0.4988770000000  0.5394830000000  0.4791860000000 1.0
C      1  0.4608420000000  0.4385200000000  0.5030350000000 1.0
C      1  0.5392410000000  0.5585770000000  0.5022950000000 1.0
C      1  0.4543180000000  0.5202490000000  0.4973460000000 1.0
C      1  0.5470750000000  0.4780940000000  0.5037150000000 1.0
C      1  0.5384850000000  0.4557310000000  0.4517490000000 1.0
C      1  0.4608330000000  0.5474980000000  0.5474950000000 1.0
END
