TITL C-26737-6152-200 0.00138136912345489 125000 -342.708317811082 0 0 60 (C1) n - 1
REM
REM in /home/nfs/bkarasulu/CARBON/AIRSS/Generating-Clusters/AIREBO/Higher-Symm/Only-C60
REM
REM
REM
REM
REM
REM ./C.cell (28575a23ae977d3b5fae324c64b13b57)
REM
REM compiler GCC version 9.2.1 20190827 (Red Hat 9.2.1-1)
REM options -cpp -mtune=generic -march=x86-64 -g -O0 -fpre-include=/usr/include/finclude/math-vector-fortran.h
REM seed 2028008654 -18881905 -1781465853 -1083044779 -161204772 -1828420365 185016764 657866536 -1016736435 -1579196536 674469231 -1962939819 1277285753 -742538821 1509962812 -487511470 1044881889 1998781530 1861158551 2000123411 -959128713 1161168666 -1310694440 -218833464 686554287 -2071325433 96709998 -547967588 185220788 -1107760135 -400731493 -1869268005 -652972466
REM
CELL 1.54180   50.00000   50.00000   50.00000   90.00000   90.00000   90.00000
LATT -1
SFAC C  
C      1  0.4381380000000  0.5078970000000  0.5057980000000 1.0
C      1  0.4781160000000  0.4390960000000  0.5054330000000 1.0
C      1  0.5497870000000  0.4569180000000  0.5072550000000 1.0
C      1  0.5545650000000  0.5328230000000  0.5069880000000 1.0
C      1  0.4832680000000  0.5614340000000  0.5073400000000 1.0
C      1  0.5206530000000  0.5353510000000  0.5778870000000 1.0
C      1  0.4718410000000  0.5317720000000  0.5826240000000 1.0
C      1  0.4631910000000  0.4855380000000  0.5718040000000 1.0
C      1  0.5054640000000  0.4595530000000  0.5790800000000 1.0
C      1  0.5421230000000  0.4904660000000  0.5788900000000 1.0
C      1  0.5508220000000  0.5220440000000  0.5448290000000 1.0
C      1  0.4891950000000  0.5404940000000  0.5407380000000 1.0
C      1  0.4605880000000  0.5231680000000  0.5349350000000 1.0
C      1  0.4775700000000  0.4518400000000  0.5428170000000 1.0
C      1  0.5411290000000  0.4558080000000  0.5458700000000 1.0
C      1  0.4948010000000  0.5413090000000  0.5687930000000 1.0
C      1  0.4587960000000  0.5124380000000  0.5662300000000 1.0
C      1  0.4806770000000  0.4643360000000  0.5668620000000 1.0
C      1  0.5311390000000  0.4662510000000  0.5696940000000 1.0
C      1  0.5398100000000  0.5166630000000  0.5693990000000 1.0
C      1  0.5258060000000  0.4380780000000  0.5209950000000 1.0
C      1  0.5589730000000  0.5014630000000  0.5193690000000 1.0
C      1  0.5119690000000  0.5525720000000  0.5198840000000 1.0
C      1  0.4396620000000  0.5390530000000  0.5133020000000 1.0
C      1  0.4623230000000  0.4666170000000  0.5177530000000 1.0
C      1  0.4602500000000  0.5619490000000  0.5215900000000 1.0
C      1  0.4495310000000  0.4916670000000  0.5281290000000 1.0
C      1  0.4971030000000  0.4335990000000  0.5287080000000 1.0
C      1  0.5614600000000  0.4731640000000  0.5299220000000 1.0
C      1  0.5400950000000  0.5465280000000  0.5300520000000 1.0
C      1  0.4588500000000  0.5061900000000  0.4237020000000 1.0
C      1  0.4837790000000  0.4633380000000  0.4260690000000 1.0
C      1  0.5315950000000  0.4730360000000  0.4217220000000 1.0
C      1  0.5358380000000  0.5223310000000  0.4232390000000 1.0
C      1  0.4905160000000  0.5432380000000  0.4234190000000 1.0
C      1  0.4475650000000  0.4587120000000  0.4889990000000 1.0
C      1  0.5275360000000  0.4299230000000  0.4880240000000 1.0
C      1  0.5697260000000  0.5018240000000  0.4871120000000 1.0
C      1  0.5183440000000  0.5663900000000  0.4894590000000 1.0
C      1  0.4323500000000  0.5423310000000  0.4810670000000 1.0
C      1  0.4454630000000  0.4725750000000  0.4582160000000 1.0
C      1  0.5156480000000  0.4453590000000  0.4607510000000 1.0
C      1  0.5504160000000  0.4939090000000  0.4607870000000 1.0
C      1  0.5204070000000  0.5479030000000  0.4609960000000 1.0
C      1  0.4572590000000  0.5394640000000  0.4608980000000 1.0
C      1  0.4810520000000  0.5510710000000  0.4817050000000 1.0
C      1  0.4432990000000  0.4975790000000  0.4812590000000 1.0
C      1  0.4895310000000  0.4414680000000  0.4808330000000 1.0
C      1  0.5442940000000  0.4712400000000  0.4851390000000 1.0
C      1  0.5396510000000  0.5332020000000  0.4842780000000 1.0
C      1  0.5105600000000  0.4575280000000  0.4323070000000 1.0
C      1  0.5432720000000  0.4965480000000  0.4318980000000 1.0
C      1  0.5171750000000  0.5414240000000  0.4323010000000 1.0
C      1  0.4662970000000  0.5318620000000  0.4322480000000 1.0
C      1  0.4618620000000  0.4796660000000  0.4321780000000 1.0
C      1  0.5089210000000  0.5210530000000  0.4771530000000 1.0
C      1  0.4776880000000  0.5179930000000  0.4753730000000 1.0
C      1  0.4735550000000  0.4880940000000  0.4694420000000 1.0
C      1  0.4979960000000  0.4724380000000  0.4706900000000 1.0
C      1  0.5207100000000  0.4924200000000  0.4757660000000 1.0
END
