TITL C-26727-7196-64 -0.000528744703229098 125000 -351.51395649273 0 0 60 (C1) n - 1
REM
REM in /home/nfs/bkarasulu/CARBON/AIRSS/Generating-Clusters/AIREBO/Higher-Symm/Only-C60
REM
REM
REM
REM
REM
REM ./C.cell (28575a23ae977d3b5fae324c64b13b57)
REM
REM compiler GCC version 9.2.1 20190827 (Red Hat 9.2.1-1)
REM options -cpp -mtune=generic -march=x86-64 -g -O0 -fpre-include=/usr/include/finclude/math-vector-fortran.h
REM seed -1489149848 -1258824304 -755628413 592934719 -1352302183 949240966 -871040114 1133573878 884593020 -97507014 1007666297 -1113979597 -182478852 729420178 -367805214 -498118950 245227418 1258624187 -1170528697 -2030180336 1663644660 1446805570 1097057150 312787086 1625132146 33606991 -176512131 1779149396 63801703 1648741960 979241111 -20050797 -373179051
REM
CELL 1.54180   50.00000   50.00000   50.00000   90.00000   90.00000   90.00000
LATT -1
SFAC C  
C      1  0.4359280000000  0.5243420000000  0.4794340000000 1.0
C      1  0.5235750000000  0.5300690000000  0.5691410000000 1.0
C      1  0.5398700000000  0.5287910000000  0.4584610000000 1.0
C      1  0.4355180000000  0.4738770000000  0.5145680000000 1.0
C      1  0.5174190000000  0.4663600000000  0.4350670000000 1.0
C      1  0.5489920000000  0.4744470000000  0.5429890000000 1.0
C      1  0.5640310000000  0.4703810000000  0.5155570000000 1.0
C      1  0.4846890000000  0.4707270000000  0.4339920000000 1.0
C      1  0.4491030000000  0.4726700000000  0.5442970000000 1.0
C      1  0.5591870000000  0.5309430000000  0.4840520000000 1.0
C      1  0.4973400000000  0.5201860000000  0.5712980000000 1.0
C      1  0.4524450000000  0.5282900000000  0.4520220000000 1.0
C      1  0.4781450000000  0.5428560000000  0.4576110000000 1.0
C      1  0.4693280000000  0.5428440000000  0.5310190000000 1.0
C      1  0.5443640000000  0.5465830000000  0.5073270000000 1.0
C      1  0.4741180000000  0.4564050000000  0.5410060000000 1.0
C      1  0.4719890000000  0.4603970000000  0.4628170000000 1.0
C      1  0.5441290000000  0.4566270000000  0.4950300000000 1.0
C      1  0.5247180000000  0.4506240000000  0.5427110000000 1.0
C      1  0.5281990000000  0.4508620000000  0.4622290000000 1.0
C      1  0.4561450000000  0.4590560000000  0.4917970000000 1.0
C      1  0.5297280000000  0.5580330000000  0.4530060000000 1.0
C      1  0.5282460000000  0.5437580000000  0.5401750000000 1.0
C      1  0.4535270000000  0.5392180000000  0.5034530000000 1.0
C      1  0.5449360000000  0.5103340000000  0.4339320000000 1.0
C      1  0.4112650000000  0.5091520000000  0.4889610000000 1.0
C      1  0.5450680000000  0.5137060000000  0.5773840000000 1.0
C      1  0.5557860000000  0.4901970000000  0.5684750000000 1.0
C      1  0.4113050000000  0.4879880000000  0.5025260000000 1.0
C      1  0.5333660000000  0.4868090000000  0.4265840000000 1.0
C      1  0.4521240000000  0.4918140000000  0.5649240000000 1.0
C      1  0.5800540000000  0.4896440000000  0.5051690000000 1.0
C      1  0.4644310000000  0.4884460000000  0.4188760000000 1.0
C      1  0.4526380000000  0.5102260000000  0.4306000000000 1.0
C      1  0.5779710000000  0.5130290000000  0.4912430000000 1.0
C      1  0.4707510000000  0.5071110000000  0.5786970000000 1.0
C      1  0.4842970000000  0.4864740000000  0.5314580000000 1.0
C      1  0.5297670000000  0.4862740000000  0.5026130000000 1.0
C      1  0.4934210000000  0.4859400000000  0.4617380000000 1.0
C      1  0.4860460000000  0.5148110000000  0.4695530000000 1.0
C      1  0.5271780000000  0.5200690000000  0.5053510000000 1.0
C      1  0.4822630000000  0.5185050000000  0.5422550000000 1.0
C      1  0.5185420000000  0.5134840000000  0.4757990000000 1.0
C      1  0.4648540000000  0.5113970000000  0.4906130000000 1.0
C      1  0.5130190000000  0.5154600000000  0.5336200000000 1.0
C      1  0.5178470000000  0.4832330000000  0.5325380000000 1.0
C      1  0.4651430000000  0.4871140000000  0.5071900000000 1.0
C      1  0.5214110000000  0.4800050000000  0.4722930000000 1.0
C      1  0.5124010000000  0.4330090000000  0.5247470000000 1.0
C      1  0.5096780000000  0.4285290000000  0.4745280000000 1.0
C      1  0.4693320000000  0.4308860000000  0.5022880000000 1.0
C      1  0.5144170000000  0.5701160000000  0.4738700000000 1.0
C      1  0.5149870000000  0.5668430000000  0.5252250000000 1.0
C      1  0.4726060000000  0.5651420000000  0.4984500000000 1.0
C      1  0.4864850000000  0.5642040000000  0.4739450000000 1.0
C      1  0.4869320000000  0.5676980000000  0.5256520000000 1.0
C      1  0.5276820000000  0.5721420000000  0.4988800000000 1.0
C      1  0.4837980000000  0.4348070000000  0.5260240000000 1.0
C      1  0.4824310000000  0.4336640000000  0.4758470000000 1.0
C      1  0.5250370000000  0.4333980000000  0.4990930000000 1.0
END
