TITL C-26727-7196-183 -0.00292903695908975 125000 -332.691461980949 0 0 60 (C1) n - 1
REM
REM in /home/nfs/bkarasulu/CARBON/AIRSS/Generating-Clusters/AIREBO/Higher-Symm/Only-C60
REM
REM
REM
REM
REM
REM ./C.cell (28575a23ae977d3b5fae324c64b13b57)
REM
REM compiler GCC version 9.2.1 20190827 (Red Hat 9.2.1-1)
REM options -cpp -mtune=generic -march=x86-64 -g -O0 -fpre-include=/usr/include/finclude/math-vector-fortran.h
REM seed 225564325 -1810749280 -627476197 85059545 -295080925 868948093 -1945141482 297347791 -1107259176 1255173943 1596925935 -810318795 -434314038 -1046527530 -2001947809 393555785 1434652873 -160217238 -1876177877 -1441503136 -1028227682 -494325902 -2142718136 -1962210991 -1460835809 -1618386128 -634045664 278820722 -1042634118 1484163031 1292567821 -343246047 2029509017
REM
CELL 1.54180   50.00000   50.00000   50.00000   90.00000   90.00000   90.00000
LATT -1
SFAC C  
C      1  0.4256790000000  0.5383040000000  0.4771990000000 1.0
C      1  0.5599150000000  0.5376640000000  0.4867250000000 1.0
C      1  0.5506130000000  0.5286280000000  0.5118020000000 1.0
C      1  0.4432430000000  0.5354530000000  0.5050910000000 1.0
C      1  0.5305570000000  0.4499360000000  0.4779350000000 1.0
C      1  0.4783760000000  0.4511590000000  0.4722760000000 1.0
C      1  0.5264510000000  0.5296080000000  0.5547410000000 1.0
C      1  0.4981210000000  0.5306300000000  0.5542170000000 1.0
C      1  0.4668090000000  0.5589680000000  0.4984950000000 1.0
C      1  0.5216960000000  0.5691480000000  0.4904480000000 1.0
C      1  0.5380060000000  0.5439260000000  0.5323900000000 1.0
C      1  0.4700070000000  0.5428820000000  0.5469300000000 1.0
C      1  0.4499900000000  0.4721590000000  0.5064920000000 1.0
C      1  0.5584780000000  0.4792190000000  0.5105600000000 1.0
C      1  0.4504810000000  0.4684080000000  0.4757340000000 1.0
C      1  0.5555890000000  0.4686830000000  0.4845950000000 1.0
C      1  0.5204570000000  0.4656980000000  0.4284570000000 1.0
C      1  0.4933300000000  0.4700170000000  0.4386090000000 1.0
C      1  0.5389140000000  0.5060070000000  0.5660030000000 1.0
C      1  0.4519780000000  0.5157160000000  0.5392190000000 1.0
C      1  0.4544780000000  0.4811060000000  0.5707550000000 1.0
C      1  0.5578150000000  0.4714660000000  0.5376850000000 1.0
C      1  0.4720780000000  0.5188690000000  0.4577720000000 1.0
C      1  0.5232460000000  0.5069190000000  0.4696180000000 1.0
C      1  0.5215290000000  0.4348640000000  0.5321630000000 1.0
C      1  0.4709210000000  0.4576230000000  0.5274970000000 1.0
C      1  0.5222050000000  0.5336550000000  0.4534110000000 1.0
C      1  0.4955470000000  0.5368790000000  0.4411400000000 1.0
C      1  0.4635050000000  0.4398260000000  0.5000660000000 1.0
C      1  0.5227400000000  0.4305280000000  0.4997480000000 1.0
C      1  0.4594730000000  0.4705710000000  0.4429300000000 1.0
C      1  0.5491010000000  0.4761000000000  0.4378530000000 1.0
C      1  0.5226850000000  0.4815410000000  0.5678780000000 1.0
C      1  0.4974680000000  0.4772990000000  0.5765230000000 1.0
C      1  0.5213240000000  0.5640390000000  0.5215650000000 1.0
C      1  0.4645830000000  0.5640540000000  0.5308070000000 1.0
C      1  0.5516510000000  0.4924990000000  0.4637170000000 1.0
C      1  0.4497320000000  0.4973200000000  0.4590280000000 1.0
C      1  0.5452620000000  0.5542390000000  0.4389070000000 1.0
C      1  0.4732300000000  0.5560940000000  0.4437520000000 1.0
C      1  0.4782510000000  0.4734000000000  0.5513650000000 1.0
C      1  0.5286410000000  0.4621960000000  0.5426920000000 1.0
C      1  0.5396250000000  0.5547540000000  0.4721160000000 1.0
C      1  0.4566110000000  0.5474730000000  0.4697220000000 1.0
C      1  0.5705210000000  0.5175440000000  0.4707930000000 1.0
C      1  0.4296720000000  0.5077140000000  0.4807970000000 1.0
C      1  0.4759360000000  0.4408900000000  0.4408920000000 1.0
C      1  0.5381040000000  0.4473270000000  0.4476020000000 1.0
C      1  0.4409520000000  0.5013780000000  0.5638230000000 1.0
C      1  0.5637500000000  0.4923680000000  0.5569720000000 1.0
C      1  0.4430390000000  0.5019780000000  0.5110870000000 1.0
C      1  0.5420290000000  0.5022530000000  0.5098400000000 1.0
C      1  0.4959780000000  0.5513460000000  0.5035210000000 1.0
C      1  0.4935890000000  0.4378770000000  0.5149340000000 1.0
C      1  0.4937850000000  0.4944980000000  0.4613710000000 1.0
C      1  0.5037090000000  0.4819720000000  0.5304760000000 1.0
C      1  0.4965280000000  0.5218220000000  0.5073360000000 1.0
C      1  0.5041240000000  0.4673100000000  0.4789790000000 1.0
C      1  0.4847910000000  0.5086430000000  0.5337910000000 1.0
C      1  0.5122100000000  0.4938400000000  0.4990140000000 1.0
END
