TITL C-26736-6558-159 0.00027268050777716 125000 -299.778219786614 0 0 60 (C1) n - 1
REM
REM in /home/nfs/bkarasulu/CARBON/AIRSS/Generating-Clusters/AIREBO/Higher-Symm/Only-C60
REM
REM
REM
REM
REM
REM ./C.cell (28575a23ae977d3b5fae324c64b13b57)
REM
REM compiler GCC version 9.2.1 20190827 (Red Hat 9.2.1-1)
REM options -cpp -mtune=generic -march=x86-64 -g -O0 -fpre-include=/usr/include/finclude/math-vector-fortran.h
REM seed -1177134389 -142629914 -1093147722 -1989539202 1736278697 1453473218 -149091448 1153376422 -1362506830 1176805121 -128238173 42025655 909811877 947592365 1686411974 137074054 1631321294 -799964396 389803465 -651050481 -1203571955 1760610988 1596133045 318646064 -915566245 -1028536609 467334390 -417958198 -505166850 769583532 -944995697 1062352076 1221509461
REM
CELL 1.54180   50.00000   50.00000   50.00000   90.00000   90.00000   90.00000
LATT -1
SFAC C  
C      1  0.5426690000000  0.5536050000000  0.4804540000000 1.0
C      1  0.5406280000000  0.5464200000000  0.5530870000000 1.0
C      1  0.4661020000000  0.5505900000000  0.5500230000000 1.0
C      1  0.4350510000000  0.5467930000000  0.4802020000000 1.0
C      1  0.4969100000000  0.5514170000000  0.4331850000000 1.0
C      1  0.5597660000000  0.4528380000000  0.4785660000000 1.0
C      1  0.5357460000000  0.4536590000000  0.5537150000000 1.0
C      1  0.4610580000000  0.4560890000000  0.5483140000000 1.0
C      1  0.4391040000000  0.4600990000000  0.4761720000000 1.0
C      1  0.5021540000000  0.4517460000000  0.4447110000000 1.0
C      1  0.4810170000000  0.4799880000000  0.5212990000000 1.0
C      1  0.4756050000000  0.4800020000000  0.4896430000000 1.0
C      1  0.5040130000000  0.4780780000000  0.4752500000000 1.0
C      1  0.5262780000000  0.4898170000000  0.4960170000000 1.0
C      1  0.5148540000000  0.4784850000000  0.5242730000000 1.0
C      1  0.4820440000000  0.5250170000000  0.5209940000000 1.0
C      1  0.4731980000000  0.5295550000000  0.4897810000000 1.0
C      1  0.4996810000000  0.5388270000000  0.4707950000000 1.0
C      1  0.5106510000000  0.5161840000000  0.4886410000000 1.0
C      1  0.5141460000000  0.5203610000000  0.5205190000000 1.0
C      1  0.5569750000000  0.4501130000000  0.5030510000000 1.0
C      1  0.5120070000000  0.4528600000000  0.5614830000000 1.0
C      1  0.4466660000000  0.4537850000000  0.5280950000000 1.0
C      1  0.4534100000000  0.4604560000000  0.4556860000000 1.0
C      1  0.5265020000000  0.4528400000000  0.4395210000000 1.0
C      1  0.5496380000000  0.5539760000000  0.5047350000000 1.0
C      1  0.5175490000000  0.5497160000000  0.5628790000000 1.0
C      1  0.4490030000000  0.5532420000000  0.5321330000000 1.0
C      1  0.4467890000000  0.5492820000000  0.4582800000000 1.0
C      1  0.5226350000000  0.5473230000000  0.4482510000000 1.0
C      1  0.4460570000000  0.5354620000000  0.5076260000000 1.0
C      1  0.4728500000000  0.5353670000000  0.4503650000000 1.0
C      1  0.5391830000000  0.5243660000000  0.4671110000000 1.0
C      1  0.5419780000000  0.5327110000000  0.5256290000000 1.0
C      1  0.4934450000000  0.5345810000000  0.5515690000000 1.0
C      1  0.4459210000000  0.4730370000000  0.5041330000000 1.0
C      1  0.4807080000000  0.4753420000000  0.4506410000000 1.0
C      1  0.5465650000000  0.4699170000000  0.4563240000000 1.0
C      1  0.5464980000000  0.4663750000000  0.5268790000000 1.0
C      1  0.4887100000000  0.4710370000000  0.5531900000000 1.0
C      1  0.5015540000000  0.5018900000000  0.5468250000000 1.0
C      1  0.4764900000000  0.5053350000000  0.4661360000000 1.0
C      1  0.5482570000000  0.4997830000000  0.5198590000000 1.0
C      1  0.4563430000000  0.5036300000000  0.5147610000000 1.0
C      1  0.5243960000000  0.4957210000000  0.4562830000000 1.0
C      1  0.5640570000000  0.4971370000000  0.4516770000000 1.0
C      1  0.5735890000000  0.5045800000000  0.5410840000000 1.0
C      1  0.4223930000000  0.5040430000000  0.5106950000000 1.0
C      1  0.4746980000000  0.5056090000000  0.4264330000000 1.0
C      1  0.4815320000000  0.5040410000000  0.5742320000000 1.0
C      1  0.5407650000000  0.5005330000000  0.4268650000000 1.0
C      1  0.4360160000000  0.5035750000000  0.5418710000000 1.0
C      1  0.5161090000000  0.5047570000000  0.5774250000000 1.0
C      1  0.5782240000000  0.5033080000000  0.5059410000000 1.0
C      1  0.4481160000000  0.5030700000000  0.4475380000000 1.0
C      1  0.5063280000000  0.5004990000000  0.4278530000000 1.0
C      1  0.5745450000000  0.5082890000000  0.4770100000000 1.0
C      1  0.5447950000000  0.5063240000000  0.5591350000000 1.0
C      1  0.4531630000000  0.5093040000000  0.5661500000000 1.0
C      1  0.4348690000000  0.5035900000000  0.4790010000000 1.0
END
