TITL C-26736-6558-191 -0.000593809181253396 125000 -312.039805330207 0 0 60 (C1) n - 1
REM
REM in /home/nfs/bkarasulu/CARBON/AIRSS/Generating-Clusters/AIREBO/Higher-Symm/Only-C60
REM
REM
REM
REM
REM
REM ./C.cell (28575a23ae977d3b5fae324c64b13b57)
REM
REM compiler GCC version 9.2.1 20190827 (Red Hat 9.2.1-1)
REM options -cpp -mtune=generic -march=x86-64 -g -O0 -fpre-include=/usr/include/finclude/math-vector-fortran.h
REM seed 1171014414 2125920416 1251095345 -1142561345 1218226916 682292906 474905295 -38697783 -11384453 -1488490032 -502309074 -2131369041 -1779261384 -115579993 985870407 1618066520 -978168476 1535262809 -141838380 1924553697 -75260138 -231726678 130624264 1337216819 721796511 -1136948700 -557687112 1971036232 1026324476 -904946016 705014155 1403596818 1710559245
REM
CELL 1.54180   50.00000   50.00000   50.00000   90.00000   90.00000   90.00000
LATT -1
SFAC C  
C      1  0.4988650000000  0.4890780000000  0.5249060000000 1.0
C      1  0.4978080000000  0.5131980000000  0.4710880000000 1.0
C      1  0.4368210000000  0.5020380000000  0.4731570000000 1.0
C      1  0.5653810000000  0.4989620000000  0.5279170000000 1.0
C      1  0.5162050000000  0.5380130000000  0.5090920000000 1.0
C      1  0.4898890000000  0.4644560000000  0.4836070000000 1.0
C      1  0.4520080000000  0.4374650000000  0.4681240000000 1.0
C      1  0.5322900000000  0.5619880000000  0.5270540000000 1.0
C      1  0.5255730000000  0.4760750000000  0.5414460000000 1.0
C      1  0.4719080000000  0.5253200000000  0.4582230000000 1.0
C      1  0.4698170000000  0.5213810000000  0.5076310000000 1.0
C      1  0.5294980000000  0.4794840000000  0.4962570000000 1.0
C      1  0.5407200000000  0.4386960000000  0.5079290000000 1.0
C      1  0.4610890000000  0.5574200000000  0.4934480000000 1.0
C      1  0.4760930000000  0.5781940000000  0.5146220000000 1.0
C      1  0.5180060000000  0.4326770000000  0.4910940000000 1.0
C      1  0.4971680000000  0.5513240000000  0.4422920000000 1.0
C      1  0.5071960000000  0.4525570000000  0.5567660000000 1.0
C      1  0.4833290000000  0.4938870000000  0.4950420000000 1.0
C      1  0.5264510000000  0.5069270000000  0.5161290000000 1.0
C      1  0.4723900000000  0.5551620000000  0.4614600000000 1.0
C      1  0.5319230000000  0.4440370000000  0.5349500000000 1.0
C      1  0.5282200000000  0.5583930000000  0.4846690000000 1.0
C      1  0.4669180000000  0.4486150000000  0.5122620000000 1.0
C      1  0.4954170000000  0.5595570000000  0.4937580000000 1.0
C      1  0.4925770000000  0.4403230000000  0.5013000000000 1.0
C      1  0.5547820000000  0.4769420000000  0.4659300000000 1.0
C      1  0.4450490000000  0.5190560000000  0.5385490000000 1.0
C      1  0.4790660000000  0.5470570000000  0.5279740000000 1.0
C      1  0.5269140000000  0.4578900000000  0.4700930000000 1.0
C      1  0.5408380000000  0.4378750000000  0.4495880000000 1.0
C      1  0.4715220000000  0.5505800000000  0.5626740000000 1.0
C      1  0.4693400000000  0.4731020000000  0.5287750000000 1.0
C      1  0.5280580000000  0.5286990000000  0.4721900000000 1.0
C      1  0.4412250000000  0.4919920000000  0.5245730000000 1.0
C      1  0.5558680000000  0.5094690000000  0.4757800000000 1.0
C      1  0.4401680000000  0.5453180000000  0.5174980000000 1.0
C      1  0.5601920000000  0.4543800000000  0.4918280000000 1.0
C      1  0.4929440000000  0.4788560000000  0.5652650000000 1.0
C      1  0.5081310000000  0.5192200000000  0.4392460000000 1.0
C      1  0.5077120000000  0.5590450000000  0.5418590000000 1.0
C      1  0.4772360000000  0.4352070000000  0.4576760000000 1.0
C      1  0.5417870000000  0.5106870000000  0.5719570000000 1.0
C      1  0.4629220000000  0.4919730000000  0.4282060000000 1.0
C      1  0.5120440000000  0.4981710000000  0.5739970000000 1.0
C      1  0.4923960000000  0.5030980000000  0.4192790000000 1.0
C      1  0.4895250000000  0.4735230000000  0.4285990000000 1.0
C      1  0.5190490000000  0.5180820000000  0.5473970000000 1.0
C      1  0.4508720000000  0.4837220000000  0.4949320000000 1.0
C      1  0.5556540000000  0.5210090000000  0.5058460000000 1.0
C      1  0.4478440000000  0.4528050000000  0.4909350000000 1.0
C      1  0.5535750000000  0.5511830000000  0.5062100000000 1.0
C      1  0.5494950000000  0.4924450000000  0.5492990000000 1.0
C      1  0.4525290000000  0.5066470000000  0.4501850000000 1.0
C      1  0.5312930000000  0.4992210000000  0.4546310000000 1.0
C      1  0.4699520000000  0.4991950000000  0.5505690000000 1.0
C      1  0.4416380000000  0.5225710000000  0.4946610000000 1.0
C      1  0.5605780000000  0.4815070000000  0.5051810000000 1.0
C      1  0.4886190000000  0.5244970000000  0.5515580000000 1.0
C      1  0.4976210000000  0.4597480000000  0.4528360000000 1.0
END
