TITL C-26727-7196-206 0.00189399319822927 125000 -342.952939784868 0 0 60 (C1) n - 1
REM
REM in /home/nfs/bkarasulu/CARBON/AIRSS/Generating-Clusters/AIREBO/Higher-Symm/Only-C60
REM
REM
REM
REM
REM
REM ./C.cell (28575a23ae977d3b5fae324c64b13b57)
REM
REM compiler GCC version 9.2.1 20190827 (Red Hat 9.2.1-1)
REM options -cpp -mtune=generic -march=x86-64 -g -O0 -fpre-include=/usr/include/finclude/math-vector-fortran.h
REM seed -1215137876 1845423048 955774702 -511431322 2119219470 1340674971 -2077401572 1377990352 1806808417 -1499826679 434686233 -1433882657 -915466555 1243031403 917264979 -588487345 1120627994 1971157356 470468229 1387521225 -1098551751 -729213827 1053825649 246327410 1307490189 1507919777 -2115617310 1538971304 -453054013 1456451846 -25406381 -1838351344 1499288616
REM
CELL 1.54180   50.00000   50.00000   50.00000   90.00000   90.00000   90.00000
LATT -1
SFAC C  
C      1  0.4863180000000  0.4267140000000  0.5024470000000 1.0
C      1  0.4429760000000  0.5504000000000  0.5004420000000 1.0
C      1  0.5833570000000  0.5036640000000  0.4939930000000 1.0
C      1  0.5199370000000  0.4317830000000  0.5037880000000 1.0
C      1  0.5462850000000  0.5571310000000  0.5028780000000 1.0
C      1  0.4262030000000  0.5208180000000  0.5019490000000 1.0
C      1  0.5177210000000  0.5244660000000  0.4844780000000 1.0
C      1  0.5119140000000  0.4744100000000  0.4809170000000 1.0
C      1  0.4708370000000  0.5033620000000  0.4850470000000 1.0
C      1  0.4864860000000  0.5288420000000  0.4836120000000 1.0
C      1  0.4825260000000  0.4746020000000  0.4832330000000 1.0
C      1  0.5309090000000  0.5005400000000  0.4752870000000 1.0
C      1  0.4258280000000  0.5291480000000  0.4713150000000 1.0
C      1  0.5605430000000  0.5514480000000  0.4781310000000 1.0
C      1  0.5127600000000  0.4249290000000  0.4727690000000 1.0
C      1  0.5779890000000  0.5240940000000  0.4758650000000 1.0
C      1  0.4364760000000  0.5587380000000  0.4686280000000 1.0
C      1  0.4819990000000  0.4167930000000  0.4710200000000 1.0
C      1  0.5271800000000  0.4690640000000  0.4514370000000 1.0
C      1  0.4580930000000  0.4922140000000  0.4572540000000 1.0
C      1  0.5127610000000  0.5441290000000  0.4581360000000 1.0
C      1  0.4704720000000  0.4638350000000  0.4556130000000 1.0
C      1  0.5430980000000  0.4946160000000  0.4453850000000 1.0
C      1  0.4825770000000  0.5445580000000  0.4552100000000 1.0
C      1  0.5141020000000  0.4746840000000  0.5345560000000 1.0
C      1  0.4688810000000  0.5033390000000  0.5346750000000 1.0
C      1  0.5174370000000  0.5273440000000  0.5353020000000 1.0
C      1  0.4846050000000  0.4731860000000  0.5342270000000 1.0
C      1  0.5264710000000  0.5019200000000  0.5475790000000 1.0
C      1  0.4835160000000  0.5296190000000  0.5344510000000 1.0
C      1  0.5253740000000  0.4627840000000  0.5079270000000 1.0
C      1  0.4529800000000  0.5056950000000  0.5084600000000 1.0
C      1  0.5298280000000  0.5352060000000  0.5088610000000 1.0
C      1  0.4748000000000  0.4582770000000  0.5079670000000 1.0
C      1  0.5473010000000  0.4819920000000  0.4968400000000 1.0
C      1  0.4758830000000  0.5450860000000  0.5076480000000 1.0
C      1  0.4157650000000  0.4937230000000  0.5168270000000 1.0
C      1  0.5351610000000  0.5803690000000  0.5153940000000 1.0
C      1  0.5452850000000  0.4266730000000  0.5226260000000 1.0
C      1  0.5895590000000  0.4824950000000  0.5096260000000 1.0
C      1  0.4554950000000  0.5785050000000  0.5139670000000 1.0
C      1  0.4559450000000  0.4245630000000  0.5168160000000 1.0
C      1  0.5590810000000  0.4481740000000  0.5354690000000 1.0
C      1  0.4309660000000  0.4731170000000  0.5294460000000 1.0
C      1  0.5098520000000  0.5766610000000  0.5289120000000 1.0
C      1  0.4428130000000  0.4512740000000  0.5161490000000 1.0
C      1  0.5818370000000  0.4602370000000  0.5234560000000 1.0
C      1  0.4852550000000  0.5764820000000  0.5151260000000 1.0
C      1  0.4416620000000  0.5138880000000  0.4489210000000 1.0
C      1  0.5410290000000  0.5474950000000  0.4526030000000 1.0
C      1  0.5160760000000  0.4427890000000  0.4474520000000 1.0
C      1  0.5571550000000  0.5208060000000  0.4529200000000 1.0
C      1  0.4551910000000  0.5433610000000  0.4486140000000 1.0
C      1  0.4841620000000  0.4398280000000  0.4494280000000 1.0
C      1  0.4490530000000  0.4830620000000  0.5492000000000 1.0
C      1  0.5098690000000  0.5558330000000  0.5486500000000 1.0
C      1  0.5427850000000  0.4657670000000  0.5499210000000 1.0
C      1  0.5476360000000  0.4919980000000  0.5658900000000 1.0
C      1  0.4841280000000  0.5492220000000  0.5625040000000 1.0
C      1  0.4678180000000  0.4642490000000  0.5627530000000 1.0
END
