TITL C-26729-7230-26 -0.00125884083503305 125000 -344.239797665786 0 0 60 (C1) n - 1
REM
REM in /home/nfs/bkarasulu/CARBON/AIRSS/Generating-Clusters/AIREBO/Higher-Symm/Only-C60
REM
REM
REM
REM
REM
REM ./C.cell (28575a23ae977d3b5fae324c64b13b57)
REM
REM compiler GCC version 9.2.1 20190827 (Red Hat 9.2.1-1)
REM options -cpp -mtune=generic -march=x86-64 -g -O0 -fpre-include=/usr/include/finclude/math-vector-fortran.h
REM seed -933937478 817533301 394530370 -869139072 187760288 -527370251 1623122703 670401817 -109725444 1880674168 948770066 -1006182660 1150456317 2102829670 -375603838 -1750004375 7410655 -1334757984 1410382690 -1631222415 1134730587 -471652290 1457286810 -286560338 2096629496 1529737107 -795893724 -804420923 1355971268 1253543140 952700262 1461200628 488704605
REM
CELL 1.54180   50.00000   50.00000   50.00000   90.00000   90.00000   90.00000
LATT -1
SFAC C  
C      1  0.4818510000000  0.5506050000000  0.4618840000000 1.0
C      1  0.4843530000000  0.5055560000000  0.5570140000000 1.0
C      1  0.4826580000000  0.4509900000000  0.4649600000000 1.0
C      1  0.5153840000000  0.4486270000000  0.4739410000000 1.0
C      1  0.5161300000000  0.4948600000000  0.5628050000000 1.0
C      1  0.5120690000000  0.5525610000000  0.4773590000000 1.0
C      1  0.5156510000000  0.4472560000000  0.5346540000000 1.0
C      1  0.5202670000000  0.4969850000000  0.4457310000000 1.0
C      1  0.5165430000000  0.5482480000000  0.5360300000000 1.0
C      1  0.4844810000000  0.5533370000000  0.5259260000000 1.0
C      1  0.4878620000000  0.5017560000000  0.4364070000000 1.0
C      1  0.4840510000000  0.4462210000000  0.5239590000000 1.0
C      1  0.5144770000000  0.4973030000000  0.5307430000000 1.0
C      1  0.5208050000000  0.4753630000000  0.4905800000000 1.0
C      1  0.5289030000000  0.5264960000000  0.4897660000000 1.0
C      1  0.4750480000000  0.5019800000000  0.5256770000000 1.0
C      1  0.4825670000000  0.5261870000000  0.4829900000000 1.0
C      1  0.4805090000000  0.4781060000000  0.4826190000000 1.0
C      1  0.4836580000000  0.5022440000000  0.4701430000000 1.0
C      1  0.4805150000000  0.5255550000000  0.5099700000000 1.0
C      1  0.4703860000000  0.4736540000000  0.5113440000000 1.0
C      1  0.5254170000000  0.4986100000000  0.4756350000000 1.0
C      1  0.5186440000000  0.4741160000000  0.5173390000000 1.0
C      1  0.5202820000000  0.5213020000000  0.5189560000000 1.0
C      1  0.4574420000000  0.4362280000000  0.5058650000000 1.0
C      1  0.4553120000000  0.5091460000000  0.4429570000000 1.0
C      1  0.4535830000000  0.5426320000000  0.5337790000000 1.0
C      1  0.5452820000000  0.5517610000000  0.5181550000000 1.0
C      1  0.5477900000000  0.4830190000000  0.4466640000000 1.0
C      1  0.5473230000000  0.4584480000000  0.5399760000000 1.0
C      1  0.5387060000000  0.5649230000000  0.4945090000000 1.0
C      1  0.5471560000000  0.4871710000000  0.5511180000000 1.0
C      1  0.5470870000000  0.4583080000000  0.4662670000000 1.0
C      1  0.4532070000000  0.4496630000000  0.4819720000000 1.0
C      1  0.4530590000000  0.5184440000000  0.5537170000000 1.0
C      1  0.4518740000000  0.5347830000000  0.4591800000000 1.0
C      1  0.5021720000000  0.5807560000000  0.4908150000000 1.0
C      1  0.5166000000000  0.4679400000000  0.5793270000000 1.0
C      1  0.4787100000000  0.4524840000000  0.4346870000000 1.0
C      1  0.5151610000000  0.4225070000000  0.4908380000000 1.0
C      1  0.4989150000000  0.5284040000000  0.5757960000000 1.0
C      1  0.4899390000000  0.5513660000000  0.4314570000000 1.0
C      1  0.4991390000000  0.4203600000000  0.5101350000000 1.0
C      1  0.4927030000000  0.5292420000000  0.4194320000000 1.0
C      1  0.5159320000000  0.5445190000000  0.5663590000000 1.0
C      1  0.4856630000000  0.5796190000000  0.5099530000000 1.0
C      1  0.4823980000000  0.4736480000000  0.4216560000000 1.0
C      1  0.5197800000000  0.4464370000000  0.5663750000000 1.0
C      1  0.4397950000000  0.4843920000000  0.5149130000000 1.0
C      1  0.4358770000000  0.4992020000000  0.4673780000000 1.0
C      1  0.4334260000000  0.5338830000000  0.5103260000000 1.0
C      1  0.5603610000000  0.5263380000000  0.5144300000000 1.0
C      1  0.5661110000000  0.4927840000000  0.4716530000000 1.0
C      1  0.5660760000000  0.4729240000000  0.5191270000000 1.0
C      1  0.5599500000000  0.5168430000000  0.4849280000000 1.0
C      1  0.5667160000000  0.5038170000000  0.5323940000000 1.0
C      1  0.5672070000000  0.4673810000000  0.4908220000000 1.0
C      1  0.4395130000000  0.4757710000000  0.4852300000000 1.0
C      1  0.4347710000000  0.5080110000000  0.5289600000000 1.0
C      1  0.4327500000000  0.5289330000000  0.4824180000000 1.0
END
