TITL C-26736-6558-127 2.30771191593789e-05 125000 -327.505243244684 0 0 60 (C1) n - 1
REM
REM in /home/nfs/bkarasulu/CARBON/AIRSS/Generating-Clusters/AIREBO/Higher-Symm/Only-C60
REM
REM
REM
REM
REM
REM ./C.cell (28575a23ae977d3b5fae324c64b13b57)
REM
REM compiler GCC version 9.2.1 20190827 (Red Hat 9.2.1-1)
REM options -cpp -mtune=generic -march=x86-64 -g -O0 -fpre-include=/usr/include/finclude/math-vector-fortran.h
REM seed -1511945830 734693521 -2126237847 -2096433655 434015178 -1240761279 816828459 324807635 -2116774130 230436756 -1698593647 -1315087000 -210664599 -1584298184 775808498 -1217656880 326531692 -298476112 -1100862935 235552326 1637949207 -1578701842 -875029204 -47695100 1078105878 -1316382551 755013551 -114672843 397440469 -1531883511 158771798 -1822449903 1947926676
REM
CELL 1.54180   50.00000   50.00000   50.00000   90.00000   90.00000   90.00000
LATT -1
SFAC C  
C      1  0.5596550000000  0.4596830000000  0.4628380000000 1.0
C      1  0.5637300000000  0.5377400000000  0.4636140000000 1.0
C      1  0.4838730000000  0.5704290000000  0.5249240000000 1.0
C      1  0.4833800000000  0.4252900000000  0.5171150000000 1.0
C      1  0.5036870000000  0.5294580000000  0.5479480000000 1.0
C      1  0.4926110000000  0.4718070000000  0.5449250000000 1.0
C      1  0.4591070000000  0.4438370000000  0.5242910000000 1.0
C      1  0.4564910000000  0.5573640000000  0.5297250000000 1.0
C      1  0.5264110000000  0.4934500000000  0.4784120000000 1.0
C      1  0.5191620000000  0.5217710000000  0.4716010000000 1.0
C      1  0.4577590000000  0.5217660000000  0.4585440000000 1.0
C      1  0.4573600000000  0.4827130000000  0.4665180000000 1.0
C      1  0.4761770000000  0.5183140000000  0.5437570000000 1.0
C      1  0.4666840000000  0.4899470000000  0.5444570000000 1.0
C      1  0.4848730000000  0.5282930000000  0.5124050000000 1.0
C      1  0.5064350000000  0.4811840000000  0.4991760000000 1.0
C      1  0.5627120000000  0.5514330000000  0.4923740000000 1.0
C      1  0.5636630000000  0.4571680000000  0.4915580000000 1.0
C      1  0.4949050000000  0.4335570000000  0.4879310000000 1.0
C      1  0.4897090000000  0.5645240000000  0.4940790000000 1.0
C      1  0.5077760000000  0.5624530000000  0.5478880000000 1.0
C      1  0.5002480000000  0.4385930000000  0.5434680000000 1.0
C      1  0.5356170000000  0.4725250000000  0.4556150000000 1.0
C      1  0.5398080000000  0.5338320000000  0.4509780000000 1.0
C      1  0.5242470000000  0.4609650000000  0.5506780000000 1.0
C      1  0.5335530000000  0.5414340000000  0.5557880000000 1.0
C      1  0.4041920000000  0.5051110000000  0.5006290000000 1.0
C      1  0.4175860000000  0.4781570000000  0.5052400000000 1.0
C      1  0.4557120000000  0.5405390000000  0.5524980000000 1.0
C      1  0.4554480000000  0.4580710000000  0.5481970000000 1.0
C      1  0.5166440000000  0.4862130000000  0.5285670000000 1.0
C      1  0.5294230000000  0.5116950000000  0.5373460000000 1.0
C      1  0.5271250000000  0.5357190000000  0.4245690000000 1.0
C      1  0.5166920000000  0.4608650000000  0.4385840000000 1.0
C      1  0.5175030000000  0.4222730000000  0.5191390000000 1.0
C      1  0.5166210000000  0.5782690000000  0.5201960000000 1.0
C      1  0.4742120000000  0.4814490000000  0.4426360000000 1.0
C      1  0.4765370000000  0.5105290000000  0.4413270000000 1.0
C      1  0.5356140000000  0.5576380000000  0.5068330000000 1.0
C      1  0.5407230000000  0.4421040000000  0.5070170000000 1.0
C      1  0.4305640000000  0.5151760000000  0.5107920000000 1.0
C      1  0.4459450000000  0.4869160000000  0.5218240000000 1.0
C      1  0.5149330000000  0.4522520000000  0.4930080000000 1.0
C      1  0.5116750000000  0.5393840000000  0.4950110000000 1.0
C      1  0.5489510000000  0.4592190000000  0.5318570000000 1.0
C      1  0.5522480000000  0.5433110000000  0.5300930000000 1.0
C      1  0.5571640000000  0.4894710000000  0.4893840000000 1.0
C      1  0.5706180000000  0.5184860000000  0.4905420000000 1.0
C      1  0.4909720000000  0.5509990000000  0.4629080000000 1.0
C      1  0.4790000000000  0.4391280000000  0.4651180000000 1.0
C      1  0.4520480000000  0.4439650000000  0.4737970000000 1.0
C      1  0.4614870000000  0.5555150000000  0.4792690000000 1.0
C      1  0.4638850000000  0.5169050000000  0.4891250000000 1.0
C      1  0.4751760000000  0.4860260000000  0.4947660000000 1.0
C      1  0.5009860000000  0.5277620000000  0.4439070000000 1.0
C      1  0.4893870000000  0.4574260000000  0.4444080000000 1.0
C      1  0.4473630000000  0.5418390000000  0.5052890000000 1.0
C      1  0.4517380000000  0.4618680000000  0.4997810000000 1.0
C      1  0.5588320000000  0.5139700000000  0.5207070000000 1.0
C      1  0.5633600000000  0.4822220000000  0.5250290000000 1.0
END
