TITL C-26740-8352-87 -0.00043758632551176 125000 -307.56456754457 0 0 60 (C1) n - 1
REM
REM in /home/nfs/bkarasulu/CARBON/AIRSS/Generating-Clusters/AIREBO/Higher-Symm/Only-C60
REM
REM
REM
REM
REM
REM ./C.cell (28575a23ae977d3b5fae324c64b13b57)
REM
REM compiler GCC version 9.2.1 20190827 (Red Hat 9.2.1-1)
REM options -cpp -mtune=generic -march=x86-64 -g -O0 -fpre-include=/usr/include/finclude/math-vector-fortran.h
REM seed 1717928866 -1020486485 -1380339719 826993763 -410611413 878799486 856603001 1241781103 65194867 -573526296 -1597325263 -2128956297 1161268503 634703654 -720048134 -1725554427 1947948135 292724240 -1896709183 -1805771587 2056761556 3444241 -1999345174 -1616255699 -1859709207 1998376650 -1892517465 1005886556 1047223840 1669618274 1170362118 -788572262 676598521
REM
CELL 1.54180   50.00000   50.00000   50.00000   90.00000   90.00000   90.00000
LATT -1
SFAC C  
C      1  0.5150310000000  0.5056850000000  0.5302240000000 1.0
C      1  0.5141320000000  0.4722990000000  0.4935400000000 1.0
C      1  0.5142760000000  0.5217770000000  0.4768120000000 1.0
C      1  0.4849080000000  0.4903380000000  0.5276530000000 1.0
C      1  0.4856620000000  0.5288750000000  0.4939240000000 1.0
C      1  0.4843130000000  0.4767150000000  0.4799650000000 1.0
C      1  0.5503830000000  0.5609200000000  0.4755260000000 1.0
C      1  0.5504630000000  0.4925310000000  0.5658840000000 1.0
C      1  0.5426680000000  0.4534760000000  0.4616860000000 1.0
C      1  0.4489350000000  0.4392680000000  0.4741390000000 1.0
C      1  0.4567270000000  0.5094170000000  0.5590990000000 1.0
C      1  0.4572650000000  0.5471870000000  0.4613450000000 1.0
C      1  0.5648730000000  0.4781770000000  0.4541620000000 1.0
C      1  0.5656910000000  0.5517550000000  0.5037580000000 1.0
C      1  0.5656180000000  0.4734310000000  0.5426140000000 1.0
C      1  0.4361410000000  0.5220870000000  0.4530170000000 1.0
C      1  0.4335880000000  0.4486630000000  0.5025130000000 1.0
C      1  0.4335770000000  0.5273450000000  0.5415750000000 1.0
C      1  0.5172670000000  0.5024190000000  0.4503620000000 1.0
C      1  0.5143870000000  0.5366040000000  0.5254040000000 1.0
C      1  0.5162080000000  0.4595000000000  0.5228770000000 1.0
C      1  0.4845830000000  0.4955850000000  0.4555640000000 1.0
C      1  0.4824260000000  0.4571750000000  0.5259530000000 1.0
C      1  0.4812200000000  0.5437440000000  0.5239610000000 1.0
C      1  0.4890410000000  0.5276530000000  0.4453300000000 1.0
C      1  0.4880250000000  0.5345090000000  0.5550770000000 1.0
C      1  0.4935320000000  0.4387270000000  0.5002120000000 1.0
C      1  0.5120860000000  0.4701990000000  0.4423090000000 1.0
C      1  0.5062530000000  0.4690710000000  0.5533320000000 1.0
C      1  0.5077550000000  0.5607170000000  0.5023660000000 1.0
C      1  0.4880830000000  0.5021030000000  0.5594370000000 1.0
C      1  0.4776920000000  0.4455830000000  0.4717730000000 1.0
C      1  0.4882020000000  0.5508490000000  0.4686370000000 1.0
C      1  0.5216870000000  0.4973140000000  0.5614340000000 1.0
C      1  0.5216840000000  0.5547510000000  0.4730650000000 1.0
C      1  0.5112540000000  0.4497310000000  0.4682210000000 1.0
C      1  0.4278670000000  0.4645990000000  0.4743720000000 1.0
C      1  0.4323300000000  0.5395290000000  0.4804620000000 1.0
C      1  0.4326840000000  0.4945660000000  0.5442280000000 1.0
C      1  0.5713680000000  0.5362960000000  0.4748890000000 1.0
C      1  0.5665150000000  0.4602020000000  0.4818780000000 1.0
C      1  0.5711730000000  0.5057310000000  0.5440590000000 1.0
C      1  0.5443260000000  0.4514890000000  0.5293030000000 1.0
C      1  0.5463030000000  0.5028820000000  0.4417630000000 1.0
C      1  0.5431440000000  0.5478490000000  0.5281770000000 1.0
C      1  0.4522540000000  0.5508600000000  0.5271070000000 1.0
C      1  0.4560750000000  0.4974310000000  0.4447440000000 1.0
C      1  0.4542070000000  0.4483800000000  0.5287210000000 1.0
C      1  0.4349730000000  0.4746760000000  0.5239940000000 1.0
C      1  0.4341630000000  0.4924540000000  0.4701760000000 1.0
C      1  0.4345520000000  0.5307910000000  0.5074970000000 1.0
C      1  0.5652920000000  0.5228730000000  0.5217170000000 1.0
C      1  0.5650430000000  0.5091970000000  0.4687240000000 1.0
C      1  0.5642250000000  0.4681990000000  0.5091530000000 1.0
C      1  0.4596640000000  0.5099300000000  0.5170200000000 1.0
C      1  0.4581380000000  0.4806420000000  0.4998140000000 1.0
C      1  0.4598760000000  0.5106440000000  0.4830180000000 1.0
C      1  0.5407770000000  0.4919400000000  0.5157450000000 1.0
C      1  0.5401010000000  0.5214740000000  0.4989050000000 1.0
C      1  0.5393180000000  0.4911850000000  0.4817830000000 1.0
END
