TITL C-26732-6566-188 0.0051488258306745 125000 -306.512429001137 0 0 60 (C1) n - 1
REM
REM in /home/nfs/bkarasulu/CARBON/AIRSS/Generating-Clusters/AIREBO/Higher-Symm/Only-C60
REM
REM
REM
REM
REM
REM ./C.cell (28575a23ae977d3b5fae324c64b13b57)
REM
REM compiler GCC version 9.2.1 20190827 (Red Hat 9.2.1-1)
REM options -cpp -mtune=generic -march=x86-64 -g -O0 -fpre-include=/usr/include/finclude/math-vector-fortran.h
REM seed -1148912041 1983764971 1802108191 767640082 -1247313284 1544243087 448047217 2126019535 -782525424 490730095 148600508 -1582106614 198725724 -1376137144 -1497791976 -690516686 -521224082 1055555447 1437542537 1647329515 1708377069 -1269888495 -1730821573 -1891211110 122137368 -1179856012 -812019215 -2146455716 224467050 -1909426801 1645296322 -1900454560 734792842
REM
CELL 1.54180   50.00000   50.00000   50.00000   90.00000   90.00000   90.00000
LATT -1
SFAC C  
C      1  0.5401830000000  0.5396340000000  0.4969310000000 1.0
C      1  0.5385110000000  0.4725410000000  0.5357250000000 1.0
C      1  0.5442900000000  0.4774820000000  0.4667400000000 1.0
C      1  0.5279790000000  0.5620120000000  0.4744120000000 1.0
C      1  0.5388280000000  0.4959530000000  0.5563440000000 1.0
C      1  0.5333020000000  0.4473280000000  0.4554810000000 1.0
C      1  0.5189180000000  0.4923730000000  0.5194560000000 1.0
C      1  0.5206220000000  0.4849800000000  0.4878800000000 1.0
C      1  0.5178040000000  0.5157100000000  0.4950900000000 1.0
C      1  0.4514440000000  0.4930700000000  0.5227840000000 1.0
C      1  0.4502150000000  0.4774600000000  0.4799320000000 1.0
C      1  0.4535720000000  0.5237260000000  0.4973420000000 1.0
C      1  0.4707530000000  0.5042040000000  0.4754290000000 1.0
C      1  0.4738590000000  0.5186030000000  0.5241480000000 1.0
C      1  0.4744630000000  0.4739530000000  0.5035280000000 1.0
C      1  0.5253280000000  0.5419850000000  0.5275940000000 1.0
C      1  0.5232190000000  0.4534050000000  0.5121290000000 1.0
C      1  0.5277470000000  0.5043250000000  0.4536440000000 1.0
C      1  0.5719630000000  0.5473350000000  0.5062530000000 1.0
C      1  0.5663090000000  0.4589340000000  0.5297240000000 1.0
C      1  0.5758470000000  0.4848830000000  0.4564690000000 1.0
C      1  0.4956150000000  0.5419950000000  0.5306150000000 1.0
C      1  0.4947020000000  0.4488660000000  0.5143780000000 1.0
C      1  0.4967540000000  0.5044840000000  0.4534660000000 1.0
C      1  0.4969810000000  0.4889850000000  0.5786810000000 1.0
C      1  0.5008840000000  0.4498390000000  0.4550070000000 1.0
C      1  0.4955760000000  0.5583670000000  0.4756410000000 1.0
C      1  0.5687270000000  0.4474480000000  0.5071990000000 1.0
C      1  0.5611510000000  0.5098070000000  0.4504440000000 1.0
C      1  0.5590250000000  0.5430940000000  0.5319860000000 1.0
C      1  0.5429640000000  0.5207940000000  0.5470970000000 1.0
C      1  0.5446470000000  0.4505500000000  0.4875220000000 1.0
C      1  0.5426980000000  0.5332030000000  0.4636240000000 1.0
C      1  0.4752880000000  0.4508930000000  0.5563880000000 1.0
C      1  0.4885980000000  0.4881100000000  0.4183200000000 1.0
C      1  0.4834410000000  0.5796240000000  0.5277070000000 1.0
C      1  0.4902410000000  0.4899320000000  0.5290770000000 1.0
C      1  0.4956600000000  0.4730160000000  0.4780530000000 1.0
C      1  0.4916950000000  0.5272890000000  0.4859020000000 1.0
C      1  0.4314810000000  0.5105080000000  0.4776570000000 1.0
C      1  0.4233510000000  0.5110970000000  0.5163330000000 1.0
C      1  0.4238080000000  0.4664460000000  0.4955000000000 1.0
C      1  0.4832830000000  0.4063430000000  0.5365480000000 1.0
C      1  0.4854290000000  0.5411510000000  0.4113670000000 1.0
C      1  0.4841790000000  0.5661480000000  0.5795980000000 1.0
C      1  0.4792180000000  0.5538290000000  0.5032740000000 1.0
C      1  0.4846640000000  0.4774210000000  0.5564870000000 1.0
C      1  0.4815260000000  0.4746480000000  0.4471490000000 1.0
C      1  0.5086170000000  0.5765350000000  0.4525560000000 1.0
C      1  0.5243100000000  0.4916730000000  0.5798800000000 1.0
C      1  0.5146920000000  0.4210270000000  0.4508740000000 1.0
C      1  0.4413540000000  0.5519870000000  0.4995020000000 1.0
C      1  0.4215500000000  0.4796320000000  0.5200440000000 1.0
C      1  0.4440980000000  0.4681580000000  0.4511660000000 1.0
C      1  0.4884190000000  0.5172100000000  0.4230560000000 1.0
C      1  0.4861110000000  0.5643800000000  0.5528960000000 1.0
C      1  0.4837600000000  0.4338510000000  0.5355800000000 1.0
C      1  0.4798500000000  0.5670650000000  0.6054300000000 1.0
C      1  0.4804890000000  0.3802840000000  0.5363760000000 1.0
C      1  0.4800060000000  0.5644160000000  0.4005860000000 1.0
END
