TITL C-26741-8371-137 -0.000113230841764811 125000 -346.701556312431 0 0 60 (C1) n - 1
REM
REM in /home/nfs/bkarasulu/CARBON/AIRSS/Generating-Clusters/AIREBO/Higher-Symm/Only-C60
REM
REM
REM
REM
REM
REM ./C.cell (28575a23ae977d3b5fae324c64b13b57)
REM
REM compiler GCC version 9.2.1 20190827 (Red Hat 9.2.1-1)
REM options -cpp -mtune=generic -march=x86-64 -g -O0 -fpre-include=/usr/include/finclude/math-vector-fortran.h
REM seed -1701393723 -1875413506 -2077090326 1036929978 -1134320192 1743686550 1713955638 1934416482 2121157432 99406485 -1209744582 2005934264 786996895 815309213 -146151675 -1178669395 1712300035 -1002374182 1035128195 1317892440 226375836 -1284306321 1452599943 2037727480 -693130237 -663808722 -806683935 -729286717 1212040697 1370569363 1822815660 1273238323 -1216949496
REM
CELL 1.54180   50.00000   50.00000   50.00000   90.00000   90.00000   90.00000
LATT -1
SFAC C  
C      1  0.5086550000000  0.5065060000000  0.5233170000000 1.0
C      1  0.5227990000000  0.5030960000000  0.4709480000000 1.0
C      1  0.4680160000000  0.5012410000000  0.4988700000000 1.0
C      1  0.5242440000000  0.5505850000000  0.5313790000000 1.0
C      1  0.5149510000000  0.5555560000000  0.4619920000000 1.0
C      1  0.4629500000000  0.5568400000000  0.5066530000000 1.0
C      1  0.4832610000000  0.5110560000000  0.5382030000000 1.0
C      1  0.5459050000000  0.5120120000000  0.4915970000000 1.0
C      1  0.4740930000000  0.5091410000000  0.4691070000000 1.0
C      1  0.5121970000000  0.4749890000000  0.4776000000000 1.0
C      1  0.4787770000000  0.4740420000000  0.5091590000000 1.0
C      1  0.5126180000000  0.4763430000000  0.5115740000000 1.0
C      1  0.4626760000000  0.5463330000000  0.4599930000000 1.0
C      1  0.4838760000000  0.5463750000000  0.5568020000000 1.0
C      1  0.5570390000000  0.5411110000000  0.4779640000000 1.0
C      1  0.5540260000000  0.4566680000000  0.4865230000000 1.0
C      1  0.4671130000000  0.4550970000000  0.4651460000000 1.0
C      1  0.4744990000000  0.4587590000000  0.5535150000000 1.0
C      1  0.4748350000000  0.5045000000000  0.5698000000000 1.0
C      1  0.5776250000000  0.5136060000000  0.4794210000000 1.0
C      1  0.4487920000000  0.5070460000000  0.4469200000000 1.0
C      1  0.4892190000000  0.4916390000000  0.4318680000000 1.0
C      1  0.4356430000000  0.4960790000000  0.5440470000000 1.0
C      1  0.5627370000000  0.4976120000000  0.5248680000000 1.0
C      1  0.5420750000000  0.5201120000000  0.4407100000000 1.0
C      1  0.4341730000000  0.5205710000000  0.4911780000000 1.0
C      1  0.5224380000000  0.5141570000000  0.5633230000000 1.0
C      1  0.5590980000000  0.5007950000000  0.4543310000000 1.0
C      1  0.4357050000000  0.4986410000000  0.4725680000000 1.0
C      1  0.5028440000000  0.4935590000000  0.5687770000000 1.0
C      1  0.4842720000000  0.5738420000000  0.5019040000000 1.0
C      1  0.5133500000000  0.5699100000000  0.5153210000000 1.0
C      1  0.5107770000000  0.5727370000000  0.4832440000000 1.0
C      1  0.4620200000000  0.4350710000000  0.5449660000000 1.0
C      1  0.5552700000000  0.4359940000000  0.5101400000000 1.0
C      1  0.4851360000000  0.4330000000000  0.4524840000000 1.0
C      1  0.4652860000000  0.4832320000000  0.5373580000000 1.0
C      1  0.5456130000000  0.4805500000000  0.5044970000000 1.0
C      1  0.4864620000000  0.4792780000000  0.4619480000000 1.0
C      1  0.5184190000000  0.4574310000000  0.5368640000000 1.0
C      1  0.5294880000000  0.4524560000000  0.4641060000000 1.0
C      1  0.4610340000000  0.4519590000000  0.4972880000000 1.0
C      1  0.5117890000000  0.5408170000000  0.5557470000000 1.0
C      1  0.5409050000000  0.5460910000000  0.4553090000000 1.0
C      1  0.4491110000000  0.5450130000000  0.4848340000000 1.0
C      1  0.5103060000000  0.5122810000000  0.4419420000000 1.0
C      1  0.4470990000000  0.5142430000000  0.5200540000000 1.0
C      1  0.5424520000000  0.5065520000000  0.5446490000000 1.0
C      1  0.5555870000000  0.4729420000000  0.4566780000000 1.0
C      1  0.4403490000000  0.4713300000000  0.4784250000000 1.0
C      1  0.5020630000000  0.4657470000000  0.5588070000000 1.0
C      1  0.5840440000000  0.5078040000000  0.5109600000000 1.0
C      1  0.4639720000000  0.4995640000000  0.4235980000000 1.0
C      1  0.4468840000000  0.5008070000000  0.5706970000000 1.0
C      1  0.5102120000000  0.4311790000000  0.4540440000000 1.0
C      1  0.4563020000000  0.4302720000000  0.5183340000000 1.0
C      1  0.5369640000000  0.4373630000000  0.5306730000000 1.0
C      1  0.4649860000000  0.5388160000000  0.5310190000000 1.0
C      1  0.5340050000000  0.5246050000000  0.5182040000000 1.0
C      1  0.4929650000000  0.5350470000000  0.4577530000000 1.0
END
