TITL C-26734-8308-80 -0.00230642731340802 125000 -317.747488999222 0 0 60 (C1) n - 1
REM
REM in /home/nfs/bkarasulu/CARBON/AIRSS/Generating-Clusters/AIREBO/Higher-Symm/Only-C60
REM
REM
REM
REM
REM
REM ./C.cell (28575a23ae977d3b5fae324c64b13b57)
REM
REM compiler GCC version 9.2.1 20190827 (Red Hat 9.2.1-1)
REM options -cpp -mtune=generic -march=x86-64 -g -O0 -fpre-include=/usr/include/finclude/math-vector-fortran.h
REM seed 830138757 -1156327735 -733158816 -965148394 -177810528 1710984901 1719856785 -932921776 -4664484 165655676 -590265272 1537105364 318317748 -10615913 -1043398862 -1183380895 -1670323158 222127333 1493668189 1473463710 1766742268 -2073029793 -2133478577 1346511311 963668752 829077133 -960409340 -152140801 -1754395600 875638846 -1141547311 542034284 -1095902146
REM
CELL 1.54180   50.00000   50.00000   50.00000   90.00000   90.00000   90.00000
LATT -1
SFAC C  
C      1  0.4388950000000  0.5141200000000  0.4970650000000 1.0
C      1  0.4693210000000  0.5571200000000  0.4938910000000 1.0
C      1  0.5274000000000  0.5527810000000  0.4873490000000 1.0
C      1  0.5613540000000  0.5101790000000  0.4788680000000 1.0
C      1  0.5532990000000  0.4588270000000  0.4826130000000 1.0
C      1  0.5032090000000  0.4260800000000  0.4831510000000 1.0
C      1  0.4594530000000  0.4540040000000  0.4799130000000 1.0
C      1  0.5116500000000  0.5366200000000  0.5850520000000 1.0
C      1  0.5251290000000  0.5157610000000  0.5731980000000 1.0
C      1  0.5169540000000  0.4893880000000  0.5794790000000 1.0
C      1  0.4953220000000  0.4792260000000  0.5643410000000 1.0
C      1  0.4708260000000  0.4929510000000  0.5650920000000 1.0
C      1  0.4669090000000  0.5153550000000  0.5800160000000 1.0
C      1  0.4828590000000  0.5405500000000  0.5704520000000 1.0
C      1  0.5586020000000  0.5399960000000  0.4813160000000 1.0
C      1  0.5683030000000  0.4827860000000  0.4883690000000 1.0
C      1  0.5364230000000  0.4340010000000  0.4770270000000 1.0
C      1  0.4696750000000  0.4283770000000  0.4779760000000 1.0
C      1  0.4405280000000  0.4813490000000  0.4870570000000 1.0
C      1  0.4393440000000  0.5446810000000  0.4928140000000 1.0
C      1  0.5009870000000  0.5699250000000  0.4917710000000 1.0
C      1  0.5152900000000  0.5715530000000  0.5356680000000 1.0
C      1  0.5519210000000  0.5252720000000  0.5279390000000 1.0
C      1  0.5716490000000  0.4682050000000  0.5276660000000 1.0
C      1  0.5121490000000  0.4248630000000  0.5220130000000 1.0
C      1  0.4627760000000  0.4373670000000  0.5183800000000 1.0
C      1  0.4254160000000  0.4797980000000  0.5384970000000 1.0
C      1  0.4699450000000  0.5939560000000  0.5290760000000 1.0
C      1  0.4772780000000  0.4728170000000  0.4679440000000 1.0
C      1  0.4557470000000  0.5062920000000  0.4696730000000 1.0
C      1  0.4764590000000  0.5249900000000  0.4891220000000 1.0
C      1  0.5037960000000  0.5353870000000  0.4717460000000 1.0
C      1  0.5301380000000  0.5138790000000  0.4714880000000 1.0
C      1  0.5261800000000  0.4870690000000  0.4903420000000 1.0
C      1  0.5133830000000  0.4585120000000  0.4820460000000 1.0
C      1  0.4940020000000  0.5383430000000  0.4395310000000 1.0
C      1  0.5327780000000  0.5024010000000  0.4395070000000 1.0
C      1  0.5336190000000  0.4740700000000  0.4361920000000 1.0
C      1  0.5104260000000  0.4625260000000  0.4483710000000 1.0
C      1  0.4826600000000  0.4739540000000  0.4369340000000 1.0
C      1  0.4644280000000  0.4999670000000  0.4415940000000 1.0
C      1  0.4702400000000  0.5240450000000  0.4273610000000 1.0
C      1  0.4626060000000  0.5190270000000  0.5204670000000 1.0
C      1  0.4844220000000  0.5700520000000  0.5214820000000 1.0
C      1  0.5511260000000  0.5473500000000  0.5106450000000 1.0
C      1  0.5646500000000  0.5001110000000  0.5174100000000 1.0
C      1  0.5186400000000  0.4522690000000  0.5157980000000 1.0
C      1  0.4842580000000  0.4177070000000  0.5101180000000 1.0
C      1  0.4422230000000  0.4641900000000  0.5142740000000 1.0
C      1  0.4566370000000  0.4931580000000  0.5375850000000 1.0
C      1  0.4740610000000  0.5417570000000  0.5376190000000 1.0
C      1  0.5064400000000  0.5447300000000  0.5463060000000 1.0
C      1  0.5263510000000  0.5201680000000  0.5424650000000 1.0
C      1  0.5416050000000  0.4753030000000  0.5170110000000 1.0
C      1  0.5022190000000  0.4713630000000  0.5347770000000 1.0
C      1  0.4735590000000  0.4678490000000  0.5258600000000 1.0
C      1  0.5017700000000  0.5060090000000  0.4987660000000 1.0
C      1  0.5035050000000  0.5082390000000  0.4426570000000 1.0
C      1  0.4944060000000  0.4962780000000  0.4679350000000 1.0
C      1  0.5105000000000  0.4998690000000  0.5270500000000 1.0
END
