TITL C-26731-8310-44 -8.60656710226928e-05 125000 -368.474343771522 0 0 60 (C1) n - 1
REM
REM in /home/nfs/bkarasulu/CARBON/AIRSS/Generating-Clusters/AIREBO/Higher-Symm/Only-C60
REM
REM
REM
REM
REM
REM ./C.cell (28575a23ae977d3b5fae324c64b13b57)
REM
REM compiler GCC version 9.2.1 20190827 (Red Hat 9.2.1-1)
REM options -cpp -mtune=generic -march=x86-64 -g -O0 -fpre-include=/usr/include/finclude/math-vector-fortran.h
REM seed -1562754750 -1575358923 790805506 -105489707 -182709430 1700359876 1409768674 -1390440421 -2031598356 663702128 1991927807 -622348917 802361630 588651220 1719007683 1350921534 -2077373656 1313264779 -626588030 1743716329 2059827083 -1027721834 -1062121446 -1877141847 1037667178 1085689209 1379916417 2085526514 -1768735025 -300207876 1761311887 913873751 834024313
REM
CELL 1.54180   50.00000   50.00000   50.00000   90.00000   90.00000   90.00000
LATT -1
SFAC C  
C      1  0.4359830000000  0.4848040000000  0.4649280000000 1.0
C      1  0.4578850000000  0.4217410000000  0.4743000000000 1.0
C      1  0.4882880000000  0.4653710000000  0.4336430000000 1.0
C      1  0.5651890000000  0.5153580000000  0.4676620000000 1.0
C      1  0.5762880000000  0.4762220000000  0.5425500000000 1.0
C      1  0.4314750000000  0.5139700000000  0.5362470000000 1.0
C      1  0.5318400000000  0.5693470000000  0.4878400000000 1.0
C      1  0.5323870000000  0.4341680000000  0.5145990000000 1.0
C      1  0.4597290000000  0.5757760000000  0.5220400000000 1.0
C      1  0.5152700000000  0.5397810000000  0.4278570000000 1.0
C      1  0.5132950000000  0.4678220000000  0.5670670000000 1.0
C      1  0.4881040000000  0.5381390000000  0.5701090000000 1.0
C      1  0.4824530000000  0.4304590000000  0.4637200000000 1.0
C      1  0.4380380000000  0.4649880000000  0.4850260000000 1.0
C      1  0.4677180000000  0.4847770000000  0.4301940000000 1.0
C      1  0.5127900000000  0.5648070000000  0.4672400000000 1.0
C      1  0.4834850000000  0.5678650000000  0.5345320000000 1.0
C      1  0.5130820000000  0.4329650000000  0.5353810000000 1.0
C      1  0.5650250000000  0.5359310000000  0.4872060000000 1.0
C      1  0.4376730000000  0.5325600000000  0.5140260000000 1.0
C      1  0.5674620000000  0.4643820000000  0.5186190000000 1.0
C      1  0.5342060000000  0.5174160000000  0.4330820000000 1.0
C      1  0.4674930000000  0.5173000000000  0.5658240000000 1.0
C      1  0.5332650000000  0.4875060000000  0.5627380000000 1.0
C      1  0.5397520000000  0.5060270000000  0.5193870000000 1.0
C      1  0.5273530000000  0.5520000000000  0.5111090000000 1.0
C      1  0.5004610000000  0.5211320000000  0.5437100000000 1.0
C      1  0.4560590000000  0.4975300000000  0.5193330000000 1.0
C      1  0.4533090000000  0.5079020000000  0.4683070000000 1.0
C      1  0.5470510000000  0.4942230000000  0.4735740000000 1.0
C      1  0.4800010000000  0.4573190000000  0.5057190000000 1.0
C      1  0.4850080000000  0.5348700000000  0.4960710000000 1.0
C      1  0.5263770000000  0.4544830000000  0.4954390000000 1.0
C      1  0.4896550000000  0.4710880000000  0.5504180000000 1.0
C      1  0.4984080000000  0.5207180000000  0.4501650000000 1.0
C      1  0.5058800000000  0.4709480000000  0.4553950000000 1.0
C      1  0.4990450000000  0.5446990000000  0.5210710000000 1.0
C      1  0.5465070000000  0.5307330000000  0.5091040000000 1.0
C      1  0.5266020000000  0.5066190000000  0.5435200000000 1.0
C      1  0.4903760000000  0.4508260000000  0.5304730000000 1.0
C      1  0.4987470000000  0.4527870000000  0.4813680000000 1.0
C      1  0.4965360000000  0.5422130000000  0.4722030000000 1.0
C      1  0.4560420000000  0.4709860000000  0.5054620000000 1.0
C      1  0.5453400000000  0.4811710000000  0.5012590000000 1.0
C      1  0.4593470000000  0.5198240000000  0.4952880000000 1.0
C      1  0.4776930000000  0.4975590000000  0.5430320000000 1.0
C      1  0.5207070000000  0.4965300000000  0.4557630000000 1.0
C      1  0.4714520000000  0.5086030000000  0.4465210000000 1.0
C      1  0.5604200000000  0.4366420000000  0.5193860000000 1.0
C      1  0.4377920000000  0.5604790000000  0.5154940000000 1.0
C      1  0.5176300000000  0.5661210000000  0.4390010000000 1.0
C      1  0.5211570000000  0.4398200000000  0.5627840000000 1.0
C      1  0.5616770000000  0.5216560000000  0.4398910000000 1.0
C      1  0.4392310000000  0.5183910000000  0.5632450000000 1.0
C      1  0.4356210000000  0.4374250000000  0.4791280000000 1.0
C      1  0.4832180000000  0.4373140000000  0.4359040000000 1.0
C      1  0.4403030000000  0.4765410000000  0.4370900000000 1.0
C      1  0.5598510000000  0.5639570000000  0.4804170000000 1.0
C      1  0.4860560000000  0.5654160000000  0.5627430000000 1.0
C      1  0.5609160000000  0.4819930000000  0.5647970000000 1.0
END
