TITL C-26733-8285-165 -0.00149311524736185 125000 -291.154782660659 0 0 60 (C1) n - 1
REM
REM in /home/nfs/bkarasulu/CARBON/AIRSS/Generating-Clusters/AIREBO/Higher-Symm/Only-C60
REM
REM
REM
REM
REM
REM ./C.cell (28575a23ae977d3b5fae324c64b13b57)
REM
REM compiler GCC version 9.2.1 20190827 (Red Hat 9.2.1-1)
REM options -cpp -mtune=generic -march=x86-64 -g -O0 -fpre-include=/usr/include/finclude/math-vector-fortran.h
REM seed 668423991 -821199881 -698570845 851024706 534728100 -1251681564 1461331311 291918980 962463248 -1100436386 -1520324955 1330892619 -940980668 -1027611836 466398545 -1420591141 106971623 -586220910 482283442 -1366917534 1862597173 -719441361 -51160013 755858978 -1571495576 1783721095 994529860 258708750 608194872 2112741893 1078960661 -1834330214 777362788
REM
CELL 1.54180   50.00000   50.00000   50.00000   90.00000   90.00000   90.00000
LATT -1
SFAC C  
C      1  0.4700000000000  0.4513300000000  0.4321800000000 1.0
C      1  0.4844190000000  0.5356360000000  0.4036490000000 1.0
C      1  0.5577980000000  0.5039960000000  0.4370150000000 1.0
C      1  0.4788840000000  0.4640100000000  0.5933660000000 1.0
C      1  0.4772230000000  0.5408750000000  0.5888630000000 1.0
C      1  0.5575870000000  0.5015020000000  0.5626300000000 1.0
C      1  0.5206780000000  0.4683480000000  0.4094390000000 1.0
C      1  0.5305200000000  0.5498110000000  0.4289550000000 1.0
C      1  0.4441270000000  0.5000850000000  0.4217650000000 1.0
C      1  0.5298680000000  0.4523290000000  0.5709550000000 1.0
C      1  0.5288690000000  0.5480140000000  0.5698870000000 1.0
C      1  0.4440050000000  0.5010040000000  0.5699890000000 1.0
C      1  0.4603720000000  0.5627110000000  0.5101950000000 1.0
C      1  0.5593050000000  0.4802070000000  0.5181750000000 1.0
C      1  0.4525320000000  0.4537970000000  0.5126690000000 1.0
C      1  0.4811280000000  0.5629510000000  0.4876290000000 1.0
C      1  0.5638410000000  0.4841360000000  0.4847080000000 1.0
C      1  0.4556720000000  0.4516920000000  0.4797900000000 1.0
C      1  0.5300290000000  0.5491710000000  0.5161970000000 1.0
C      1  0.4448680000000  0.4858410000000  0.5181670000000 1.0
C      1  0.5342370000000  0.4534050000000  0.5184690000000 1.0
C      1  0.5151540000000  0.5620210000000  0.4904700000000 1.0
C      1  0.4439990000000  0.4838840000000  0.4864500000000 1.0
C      1  0.5442690000000  0.4566400000000  0.4895910000000 1.0
C      1  0.4579390000000  0.5403430000000  0.4772020000000 1.0
C      1  0.5551150000000  0.5176630000000  0.4779570000000 1.0
C      1  0.4893320000000  0.4404450000000  0.4770000000000 1.0
C      1  0.4560210000000  0.5369190000000  0.5226950000000 1.0
C      1  0.5593600000000  0.5142030000000  0.5246520000000 1.0
C      1  0.4828640000000  0.4456840000000  0.5229110000000 1.0
C      1  0.5405980000000  0.5420270000000  0.4784150000000 1.0
C      1  0.4362390000000  0.5159190000000  0.4756120000000 1.0
C      1  0.5173900000000  0.4384780000000  0.4757620000000 1.0
C      1  0.5559950000000  0.5416250000000  0.5235490000000 1.0
C      1  0.4366690000000  0.5176230000000  0.5270240000000 1.0
C      1  0.5077720000000  0.4344930000000  0.5283930000000 1.0
C      1  0.4849520000000  0.4767290000000  0.5116230000000 1.0
C      1  0.4844000000000  0.5239230000000  0.5160560000000 1.0
C      1  0.5305320000000  0.4982330000000  0.5162500000000 1.0
C      1  0.4818140000000  0.4734180000000  0.4788580000000 1.0
C      1  0.4849060000000  0.5233820000000  0.4853180000000 1.0
C      1  0.5313220000000  0.4937250000000  0.4820850000000 1.0
C      1  0.5114440000000  0.4741280000000  0.5273480000000 1.0
C      1  0.5117870000000  0.5282720000000  0.5267270000000 1.0
C      1  0.4717520000000  0.4989270000000  0.5302760000000 1.0
C      1  0.5289000000000  0.4658470000000  0.4627600000000 1.0
C      1  0.5076500000000  0.5366890000000  0.4719360000000 1.0
C      1  0.4667000000000  0.5022370000000  0.4689960000000 1.0
C      1  0.5133260000000  0.5277720000000  0.5581370000000 1.0
C      1  0.5126820000000  0.4744940000000  0.5590730000000 1.0
C      1  0.4708990000000  0.5005420000000  0.5607890000000 1.0
C      1  0.5131640000000  0.5284590000000  0.4427960000000 1.0
C      1  0.5137820000000  0.4759470000000  0.4378200000000 1.0
C      1  0.4702940000000  0.5027210000000  0.4370080000000 1.0
C      1  0.4864840000000  0.5246710000000  0.5705790000000 1.0
C      1  0.4865070000000  0.4775820000000  0.5724550000000 1.0
C      1  0.5295850000000  0.5013990000000  0.5501370000000 1.0
C      1  0.4885560000000  0.5235330000000  0.4264550000000 1.0
C      1  0.4844230000000  0.4753340000000  0.4448510000000 1.0
C      1  0.5294610000000  0.5032150000000  0.4492900000000 1.0
END
