TITL C-26739-6686-89 0.000696058613200272 125000 -311.658403978101 0 0 60 (C1) n - 1
REM
REM in /home/nfs/bkarasulu/CARBON/AIRSS/Generating-Clusters/AIREBO/Higher-Symm/Only-C60
REM
REM
REM
REM
REM
REM ./C.cell (28575a23ae977d3b5fae324c64b13b57)
REM
REM compiler GCC version 9.2.1 20190827 (Red Hat 9.2.1-1)
REM options -cpp -mtune=generic -march=x86-64 -g -O0 -fpre-include=/usr/include/finclude/math-vector-fortran.h
REM seed -365627402 974536882 2070014311 888362700 1000401492 -606362242 1510958603 -1358150395 -1231273760 -683734382 566897987 1608507860 -2102091196 1848551710 -233512686 162395814 -1179467280 -1991960893 1079135932 -46603522 -1625454186 319920429 -1929049802 850058952 -1014163503 19295631 -1774811387 303541981 2087433046 1329491135 611904250 -574070798 1225266460
REM
CELL 1.54180   50.00000   50.00000   50.00000   90.00000   90.00000   90.00000
LATT -1
SFAC C  
C      1  0.4969070000000  0.4321610000000  0.5051610000000 1.0
C      1  0.5537390000000  0.4512830000000  0.4962540000000 1.0
C      1  0.5757380000000  0.5058060000000  0.5097950000000 1.0
C      1  0.5307350000000  0.5513980000000  0.4963160000000 1.0
C      1  0.4753030000000  0.5612830000000  0.5003050000000 1.0
C      1  0.4395120000000  0.5246900000000  0.5000680000000 1.0
C      1  0.4206540000000  0.4739530000000  0.4743600000000 1.0
C      1  0.5043060000000  0.5340720000000  0.5324710000000 1.0
C      1  0.4718280000000  0.5273480000000  0.5367980000000 1.0
C      1  0.4405290000000  0.4771900000000  0.5228140000000 1.0
C      1  0.4698750000000  0.4723680000000  0.5310140000000 1.0
C      1  0.5104040000000  0.4693030000000  0.5079180000000 1.0
C      1  0.5324440000000  0.4822140000000  0.5288250000000 1.0
C      1  0.5310890000000  0.5162810000000  0.5311570000000 1.0
C      1  0.5532730000000  0.4847790000000  0.5020690000000 1.0
C      1  0.5478260000000  0.5243320000000  0.5038630000000 1.0
C      1  0.5003830000000  0.5511000000000  0.4825160000000 1.0
C      1  0.4566790000000  0.5407370000000  0.5146670000000 1.0
C      1  0.4392720000000  0.4916010000000  0.4966770000000 1.0
C      1  0.4732770000000  0.4551850000000  0.5018630000000 1.0
C      1  0.5218040000000  0.4461730000000  0.4857570000000 1.0
C      1  0.5407600000000  0.5747630000000  0.5034710000000 1.0
C      1  0.5008430000000  0.5603820000000  0.5213170000000 1.0
C      1  0.4176000000000  0.4836330000000  0.5473770000000 1.0
C      1  0.4159430000000  0.4566430000000  0.5341940000000 1.0
C      1  0.5012770000000  0.4479150000000  0.5327230000000 1.0
C      1  0.5547090000000  0.4559480000000  0.5297200000000 1.0
C      1  0.5876190000000  0.5053990000000  0.5375080000000 1.0
C      1  0.5139450000000  0.4733490000000  0.4668600000000 1.0
C      1  0.5380540000000  0.4953490000000  0.4765230000000 1.0
C      1  0.5537940000000  0.5229990000000  0.4703360000000 1.0
C      1  0.4911160000000  0.5280780000000  0.4617000000000 1.0
C      1  0.4630720000000  0.5167880000000  0.4556320000000 1.0
C      1  0.4573010000000  0.4880670000000  0.4680610000000 1.0
C      1  0.4808460000000  0.4655850000000  0.4703630000000 1.0
C      1  0.5406480000000  0.5444250000000  0.4532890000000 1.0
C      1  0.4581750000000  0.5493720000000  0.4538810000000 1.0
C      1  0.4347880000000  0.5216460000000  0.4707910000000 1.0
C      1  0.4433280000000  0.4604680000000  0.4529100000000 1.0
C      1  0.4887500000000  0.4404930000000  0.4514430000000 1.0
C      1  0.5374980000000  0.4565480000000  0.4504960000000 1.0
C      1  0.5841240000000  0.5195340000000  0.4658720000000 1.0
C      1  0.4802270000000  0.5237440000000  0.5666130000000 1.0
C      1  0.4765380000000  0.4965630000000  0.5746210000000 1.0
C      1  0.4877450000000  0.4762930000000  0.5575050000000 1.0
C      1  0.5159100000000  0.4761890000000  0.5569230000000 1.0
C      1  0.5296890000000  0.4944590000000  0.5748110000000 1.0
C      1  0.5281390000000  0.5209690000000  0.5635740000000 1.0
C      1  0.5054280000000  0.5355110000000  0.5724190000000 1.0
C      1  0.4460150000000  0.4537450000000  0.4858000000000 1.0
C      1  0.5100350000000  0.4285800000000  0.4600580000000 1.0
C      1  0.5558470000000  0.4461630000000  0.4647630000000 1.0
C      1  0.5957570000000  0.5106710000000  0.4867570000000 1.0
C      1  0.5209460000000  0.5589410000000  0.4583210000000 1.0
C      1  0.4637600000000  0.5667130000000  0.4710860000000 1.0
C      1  0.4148930000000  0.5039360000000  0.4644380000000 1.0
C      1  0.4823230000000  0.5008370000000  0.5254890000000 1.0
C      1  0.4987970000000  0.4972890000000  0.5047420000000 1.0
C      1  0.5161730000000  0.5132160000000  0.4482290000000 1.0
C      1  0.5105230000000  0.5102510000000  0.4817560000000 1.0
END
