TITL C-26741-8371-122 0.00596462122470784 125000 -364.175745227054 0 0 60 (D5d) n - 1
REM
REM in /home/nfs/bkarasulu/CARBON/AIRSS/Generating-Clusters/AIREBO/Higher-Symm/Only-C60
REM
REM
REM
REM
REM
REM ./C.cell (28575a23ae977d3b5fae324c64b13b57)
REM
REM compiler GCC version 9.2.1 20190827 (Red Hat 9.2.1-1)
REM options -cpp -mtune=generic -march=x86-64 -g -O0 -fpre-include=/usr/include/finclude/math-vector-fortran.h
REM seed 1814747576 1964440814 -1725040496 -1777567567 710940849 1595204682 -355559308 -1278913529 -384164050 -1804005393 -634229527 -980118129 -1421473122 1196426153 -392962144 555923602 -1299252723 -547890887 -22784158 -1920074880 944981578 1278941225 -1971512731 620931527 -1438812156 991039673 176142797 -711860008 -1241193520 131346762 -2079990967 -1814097900 1758830224
REM
CELL 1.54180   50.00000   50.00000   50.00000   90.00000   90.00000   90.00000
LATT -1
SFAC C  
C      1  0.5154150000000  0.4520020000000  0.5432360000000 1.0
C      1  0.5380100000000  0.5483830000000  0.5260120000000 1.0
C      1  0.5461510000000  0.4513780000000  0.4986560000000 1.0
C      1  0.5365060000000  0.5486330000000  0.4717520000000 1.0
C      1  0.5128760000000  0.4516240000000  0.4557700000000 1.0
C      1  0.4844600000000  0.5479980000000  0.4568090000000 1.0
C      1  0.4621900000000  0.4523570000000  0.4742540000000 1.0
C      1  0.4543620000000  0.5474230000000  0.5013700000000 1.0
C      1  0.4638740000000  0.4525660000000  0.5279020000000 1.0
C      1  0.4871100000000  0.5476360000000  0.5438970000000 1.0
C      1  0.5724990000000  0.5000100000000  0.4740450000000 1.0
C      1  0.5433780000000  0.4999440000000  0.4363070000000 1.0
C      1  0.4976200000000  0.5001100000000  0.4228390000000 1.0
C      1  0.4526330000000  0.4998860000000  0.4388520000000 1.0
C      1  0.4256440000000  0.5000620000000  0.4783070000000 1.0
C      1  0.4270410000000  0.4999900000000  0.5261200000000 1.0
C      1  0.4563070000000  0.4999220000000  0.5639560000000 1.0
C      1  0.5022050000000  0.5001070000000  0.5773170000000 1.0
C      1  0.5471330000000  0.4998960000000  0.5611390000000 1.0
C      1  0.5739460000000  0.5000720000000  0.5216890000000 1.0
C      1  0.4446080000000  0.5144310000000  0.5427960000000 1.0
C      1  0.4803330000000  0.4855030000000  0.5671470000000 1.0
C      1  0.5235200000000  0.5145750000000  0.5658390000000 1.0
C      1  0.5576760000000  0.4853480000000  0.5393990000000 1.0
C      1  0.5697690000000  0.5147150000000  0.4979510000000 1.0
C      1  0.5552200000000  0.4853020000000  0.4573010000000 1.0
C      1  0.5195610000000  0.5146620000000  0.4329490000000 1.0
C      1  0.4763930000000  0.4854250000000  0.4341920000000 1.0
C      1  0.4421810000000  0.5144870000000  0.4605940000000 1.0
C      1  0.4300360000000  0.4855520000000  0.5020830000000 1.0
C      1  0.4794370000000  0.4281000000000  0.4862190000000 1.0
C      1  0.4751440000000  0.5718080000000  0.5008200000000 1.0
C      1  0.4802890000000  0.4281850000000  0.5151350000000 1.0
C      1  0.4928390000000  0.5718960000000  0.5237070000000 1.0
C      1  0.5080500000000  0.4279590000000  0.5232360000000 1.0
C      1  0.5200410000000  0.5721890000000  0.5139400000000 1.0
C      1  0.5243080000000  0.4277240000000  0.4993590000000 1.0
C      1  0.5191740000000  0.5722820000000  0.4850740000000 1.0
C      1  0.5066570000000  0.4278150000000  0.4765010000000 1.0
C      1  0.4914560000000  0.5720410000000  0.4769410000000 1.0
C      1  0.4922600000000  0.5241230000000  0.4774140000000 1.0
C      1  0.4805340000000  0.4763210000000  0.4863900000000 1.0
C      1  0.4763370000000  0.5234260000000  0.5005980000000 1.0
C      1  0.4813390000000  0.4765690000000  0.5145540000000 1.0
C      1  0.4935890000000  0.5236750000000  0.5228740000000 1.0
C      1  0.5083590000000  0.4758770000000  0.5223640000000 1.0
C      1  0.5199460000000  0.5246310000000  0.5132950000000 1.0
C      1  0.5240090000000  0.4750280000000  0.4991890000000 1.0
C      1  0.5190630000000  0.5249780000000  0.4853910000000 1.0
C      1  0.5069820000000  0.4753720000000  0.4770650000000 1.0
C      1  0.5544660000000  0.5380030000000  0.4983920000000 1.0
C      1  0.5431200000000  0.4620110000000  0.4666710000000 1.0
C      1  0.5152540000000  0.5378200000000  0.4478060000000 1.0
C      1  0.4817450000000  0.4624740000000  0.4489720000000 1.0
C      1  0.4553920000000  0.5372340000000  0.4695490000000 1.0
C      1  0.4461360000000  0.4629320000000  0.5015850000000 1.0
C      1  0.4573610000000  0.5370550000000  0.5329650000000 1.0
C      1  0.4848630000000  0.4627580000000  0.5518400000000 1.0
C      1  0.5182700000000  0.5375260000000  0.5510220000000 1.0
C      1  0.5449240000000  0.4621880000000  0.5306500000000 1.0
END
