TITL C-26731-8310-3 0.000966874750337074 125000 -343.518553419586 0 0 60 (C1) n - 1
REM
REM in /home/nfs/bkarasulu/CARBON/AIRSS/Generating-Clusters/AIREBO/Higher-Symm/Only-C60
REM
REM
REM
REM
REM
REM ./C.cell (28575a23ae977d3b5fae324c64b13b57)
REM
REM compiler GCC version 9.2.1 20190827 (Red Hat 9.2.1-1)
REM options -cpp -mtune=generic -march=x86-64 -g -O0 -fpre-include=/usr/include/finclude/math-vector-fortran.h
REM seed -83874071 -1250507109 -1305471617 -1054487911 -1616612727 1707500736 -1649947071 -1161422924 -1237066249 -546294679 216335049 -1205483413 -1824901751 973199001 -517410765 1431136739 -1858536723 173726098 1942167786 -1636324575 -1719412605 223786025 1537345228 -857716339 -145705658 -1341990441 955521907 -1632536663 -1479540222 1082265634 847105698 82979698 -1894422862
REM
CELL 1.54180   50.00000   50.00000   50.00000   90.00000   90.00000   90.00000
LATT -1
SFAC C  
C      1  0.5593270000000  0.4880610000000  0.5265370000000 1.0
C      1  0.4430180000000  0.4886800000000  0.5454430000000 1.0
C      1  0.4913660000000  0.4893270000000  0.4323360000000 1.0
C      1  0.4311200000000  0.5121890000000  0.5247580000000 1.0
C      1  0.5519670000000  0.5124860000000  0.5438070000000 1.0
C      1  0.5076210000000  0.5150650000000  0.4343980000000 1.0
C      1  0.4477610000000  0.5522350000000  0.4879790000000 1.0
C      1  0.5392080000000  0.5488710000000  0.4692080000000 1.0
C      1  0.5072740000000  0.5479790000000  0.5341970000000 1.0
C      1  0.5436090000000  0.4485340000000  0.4832030000000 1.0
C      1  0.4736120000000  0.4512360000000  0.4781220000000 1.0
C      1  0.4873170000000  0.4442500000000  0.5449180000000 1.0
C      1  0.5378140000000  0.5021010000000  0.4925240000000 1.0
C      1  0.4846340000000  0.4959380000000  0.5294650000000 1.0
C      1  0.4854440000000  0.4976720000000  0.4815430000000 1.0
C      1  0.4679730000000  0.5068500000000  0.5056440000000 1.0
C      1  0.5143890000000  0.5017970000000  0.5227480000000 1.0
C      1  0.5146160000000  0.4999370000000  0.4705700000000 1.0
C      1  0.4555930000000  0.4691720000000  0.4647450000000 1.0
C      1  0.5594080000000  0.4726160000000  0.4763080000000 1.0
C      1  0.4897250000000  0.4695000000000  0.5603280000000 1.0
C      1  0.5540410000000  0.5275290000000  0.4573510000000 1.0
C      1  0.4405870000000  0.5258640000000  0.4766140000000 1.0
C      1  0.5051720000000  0.5298110000000  0.5562060000000 1.0
C      1  0.4508390000000  0.4789600000000  0.5148650000000 1.0
C      1  0.5179030000000  0.4768670000000  0.4458080000000 1.0
C      1  0.5352820000000  0.4674120000000  0.5301330000000 1.0
C      1  0.5485390000000  0.5248970000000  0.5153680000000 1.0
C      1  0.4918520000000  0.5333940000000  0.4559210000000 1.0
C      1  0.4526540000000  0.5321500000000  0.5419720000000 1.0
C      1  0.5188560000000  0.4458930000000  0.4432060000000 1.0
C      1  0.5343130000000  0.4375740000000  0.5390340000000 1.0
C      1  0.4441580000000  0.4456190000000  0.5142550000000 1.0
C      1  0.4799290000000  0.5622500000000  0.4528480000000 1.0
C      1  0.4615450000000  0.5631710000000  0.5402260000000 1.0
C      1  0.5639230000000  0.5509900000000  0.5088100000000 1.0
C      1  0.4669860000000  0.4864060000000  0.5638510000000 1.0
C      1  0.4673010000000  0.4884430000000  0.4472050000000 1.0
C      1  0.5735200000000  0.4870460000000  0.5011330000000 1.0
C      1  0.5271710000000  0.5114040000000  0.5591350000000 1.0
C      1  0.5361260000000  0.5116830000000  0.4386910000000 1.0
C      1  0.4294660000000  0.5068500000000  0.4953950000000 1.0
C      1  0.4879190000000  0.5683000000000  0.5337670000000 1.0
C      1  0.4604790000000  0.5704350000000  0.4706640000000 1.0
C      1  0.5534270000000  0.5648960000000  0.4873660000000 1.0
C      1  0.5093130000000  0.4268660000000  0.5439520000000 1.0
C      1  0.5329300000000  0.4326970000000  0.4628600000000 1.0
C      1  0.4596380000000  0.4328230000000  0.4948020000000 1.0
C      1  0.4358760000000  0.4788580000000  0.4843300000000 1.0
C      1  0.5484210000000  0.4864170000000  0.4540310000000 1.0
C      1  0.5156050000000  0.4830870000000  0.5511210000000 1.0
C      1  0.5673970000000  0.5114920000000  0.4786360000000 1.0
C      1  0.4648970000000  0.5155080000000  0.4621560000000 1.0
C      1  0.4760650000000  0.5158120000000  0.5546590000000 1.0
C      1  0.4808630000000  0.4644250000000  0.5217120000000 1.0
C      1  0.4967120000000  0.4680170000000  0.4937780000000 1.0
C      1  0.5269620000000  0.4706530000000  0.4996010000000 1.0
C      1  0.5172250000000  0.5314120000000  0.5101760000000 1.0
C      1  0.5144370000000  0.5328320000000  0.4792540000000 1.0
C      1  0.4588750000000  0.5367590000000  0.5103260000000 1.0
END
