TITL C-26736-6558-58 -0.0301166421704344 125000 -346.980041733406 0 0 60 (C1) n - 1
REM
REM in /home/nfs/bkarasulu/CARBON/AIRSS/Generating-Clusters/AIREBO/Higher-Symm/Only-C60
REM
REM
REM
REM
REM
REM ./C.cell (28575a23ae977d3b5fae324c64b13b57)
REM
REM compiler GCC version 9.2.1 20190827 (Red Hat 9.2.1-1)
REM options -cpp -mtune=generic -march=x86-64 -g -O0 -fpre-include=/usr/include/finclude/math-vector-fortran.h
REM seed -1952672328 -1879758775 -1157605093 568661910 382325083 -2133662954 -1051480967 2003879703 -2114356997 -1213708702 -771661882 -1567464807 594968959 853540438 1664949427 1880529428 -1017297556 -1834356030 400061756 242567795 -756986286 1030404035 918453515 1991590608 1740695184 -710897588 -358034319 -690942770 -544227883 -1882653159 471407748 -1144492443 -1967494709
REM
CELL 1.54180   50.00000   50.00000   50.00000   90.00000   90.00000   90.00000
LATT -1
SFAC C  
C      1  0.4597500000000  0.4781460000000  0.4569380000000 1.0
C      1  0.3939760000000  0.5079900000000  0.4573530000000 1.0
C      1  0.4613430000000  0.5296110000000  0.4582160000000 1.0
C      1  0.4281870000000  0.5758000000000  0.4749140000000 1.0
C      1  0.3937490000000  0.5579390000000  0.5188250000000 1.0
C      1  0.4585700000000  0.5350180000000  0.5355160000000 1.0
C      1  0.3940610000000  0.5115340000000  0.5531870000000 1.0
C      1  0.4591190000000  0.4840310000000  0.5481830000000 1.0
C      1  0.3978400000000  0.4500150000000  0.5383980000000 1.0
C      1  0.4591720000000  0.4460370000000  0.5049950000000 1.0
C      1  0.3980960000000  0.4480340000000  0.4706110000000 1.0
C      1  0.4202030000000  0.4616290000000  0.5288600000000 1.0
C      1  0.4324360000000  0.4533520000000  0.5045180000000 1.0
C      1  0.4206140000000  0.4598900000000  0.4794640000000 1.0
C      1  0.4332590000000  0.4810990000000  0.4651520000000 1.0
C      1  0.4201300000000  0.5061170000000  0.4636520000000 1.0
C      1  0.4358380000000  0.5289200000000  0.4690480000000 1.0
C      1  0.4269640000000  0.5506880000000  0.4849590000000 1.0
C      1  0.4171670000000  0.5466980000000  0.5112920000000 1.0
C      1  0.4317430000000  0.5307250000000  0.5296500000000 1.0
C      1  0.4184800000000  0.5089240000000  0.5420820000000 1.0
C      1  0.4321870000000  0.4841630000000  0.5414770000000 1.0
C      1  0.5642450000000  0.4524940000000  0.5093180000000 1.0
C      1  0.5549980000000  0.4571960000000  0.4830400000000 1.0
C      1  0.5671430000000  0.4778790000000  0.4653910000000 1.0
C      1  0.5568170000000  0.5030440000000  0.4525920000000 1.0
C      1  0.5659280000000  0.5281230000000  0.4633630000000 1.0
C      1  0.5495600000000  0.5467150000000  0.4788360000000 1.0
C      1  0.5491970000000  0.5492910000000  0.5085020000000 1.0
C      1  0.5647170000000  0.5346230000000  0.5283440000000 1.0
C      1  0.5555880000000  0.5134110000000  0.5453530000000 1.0
C      1  0.5651020000000  0.4867480000000  0.5463880000000 1.0
C      1  0.5547290000000  0.4638960000000  0.5333380000000 1.0
C      1  0.5282140000000  0.5003000000000  0.4415220000000 1.0
C      1  0.5142130000000  0.5279310000000  0.4500680000000 1.0
C      1  0.5261500000000  0.5510410000000  0.4619460000000 1.0
C      1  0.5253830000000  0.5584370000000  0.5223020000000 1.0
C      1  0.5126120000000  0.5395110000000  0.5393280000000 1.0
C      1  0.5265170000000  0.5158330000000  0.5552760000000 1.0
C      1  0.5121560000000  0.4874870000000  0.5479890000000 1.0
C      1  0.5246880000000  0.4600760000000  0.5369060000000 1.0
C      1  0.5118990000000  0.4521470000000  0.5074620000000 1.0
C      1  0.5255960000000  0.4510490000000  0.4773150000000 1.0
C      1  0.5131910000000  0.4743420000000  0.4567460000000 1.0
C      1  0.5164350000000  0.5758640000000  0.4577660000000 1.0
C      1  0.5160240000000  0.5835320000000  0.5191880000000 1.0
C      1  0.4848280000000  0.5389410000000  0.5384050000000 1.0
C      1  0.5255840000000  0.5206070000000  0.5833200000000 1.0
C      1  0.4854880000000  0.4867600000000  0.5510630000000 1.0
C      1  0.5196360000000  0.4388930000000  0.5554370000000 1.0
C      1  0.4856100000000  0.4469420000000  0.5078360000000 1.0
C      1  0.5224000000000  0.4252170000000  0.4657440000000 1.0
C      1  0.4862340000000  0.4744280000000  0.4553710000000 1.0
C      1  0.5279930000000  0.4967020000000  0.4133420000000 1.0
C      1  0.4864960000000  0.5278500000000  0.4496740000000 1.0
C      1  0.4839060000000  0.5098120000000  0.4987450000000 1.0
C      1  0.5869380000000  0.5046640000000  0.5015310000000 1.0
C      1  0.5361620000000  0.4994970000000  0.4970940000000 1.0
C      1  0.5638080000000  0.4953300000000  0.4910690000000 1.0
C      1  0.5099550000000  0.5061280000000  0.4983890000000 1.0
END
