TITL C-26729-7230-33 -0.00104490296077157 125000 -340.493377855826 0 0 60 (C1) n - 1
REM
REM in /home/nfs/bkarasulu/CARBON/AIRSS/Generating-Clusters/AIREBO/Higher-Symm/Only-C60
REM
REM
REM
REM
REM
REM ./C.cell (28575a23ae977d3b5fae324c64b13b57)
REM
REM compiler GCC version 9.2.1 20190827 (Red Hat 9.2.1-1)
REM options -cpp -mtune=generic -march=x86-64 -g -O0 -fpre-include=/usr/include/finclude/math-vector-fortran.h
REM seed -1707752160 -644862233 1756282844 -242676566 -1728981807 2103943016 -950467737 275424205 693234395 1520934862 -1799171988 -708341557 1567889981 1553216547 -1375822567 -95572882 -527471153 -1525161739 -1296133297 -1604602173 -496329736 763393895 658674144 66774350 -339962293 -1529411 -906493200 -627256375 -252067643 -703440690 314363306 769244163 1118708753
REM
CELL 1.54180   50.00000   50.00000   50.00000   90.00000   90.00000   90.00000
LATT -1
SFAC C  
C      1  0.5151640000000  0.5185510000000  0.3972070000000 1.0
C      1  0.5133140000000  0.5808130000000  0.5711310000000 1.0
C      1  0.5043770000000  0.3894880000000  0.5515260000000 1.0
C      1  0.4897240000000  0.5179860000000  0.3964500000000 1.0
C      1  0.4878790000000  0.5796520000000  0.5707900000000 1.0
C      1  0.4823310000000  0.3945660000000  0.5338700000000 1.0
C      1  0.5148590000000  0.5249800000000  0.6017770000000 1.0
C      1  0.5130990000000  0.5744990000000  0.4271990000000 1.0
C      1  0.4992840000000  0.3914050000000  0.4488360000000 1.0
C      1  0.4894360000000  0.5239240000000  0.6017490000000 1.0
C      1  0.4876890000000  0.5735310000000  0.4269590000000 1.0
C      1  0.4788680000000  0.3962110000000  0.4683670000000 1.0
C      1  0.5400950000000  0.4694550000000  0.4709480000000 1.0
C      1  0.5537240000000  0.5485090000000  0.4895140000000 1.0
C      1  0.5476610000000  0.4892420000000  0.5430100000000 1.0
C      1  0.4567270000000  0.4654490000000  0.4673040000000 1.0
C      1  0.4505210000000  0.5432360000000  0.4884770000000 1.0
C      1  0.4578080000000  0.4854420000000  0.5425110000000 1.0
C      1  0.5426280000000  0.4679580000000  0.5277050000000 1.0
C      1  0.5537640000000  0.5449070000000  0.5159640000000 1.0
C      1  0.5457110000000  0.4932760000000  0.4603410000000 1.0
C      1  0.4614420000000  0.4615210000000  0.5311890000000 1.0
C      1  0.4523730000000  0.5398710000000  0.5148780000000 1.0
C      1  0.4529140000000  0.4896600000000  0.4566440000000 1.0
C      1  0.4900070000000  0.4188800000000  0.5169830000000 1.0
C      1  0.4643620000000  0.5237250000000  0.4170590000000 1.0
C      1  0.4645260000000  0.5569740000000  0.5644560000000 1.0
C      1  0.5187240000000  0.4260540000000  0.5263150000000 1.0
C      1  0.5389050000000  0.5259520000000  0.4191470000000 1.0
C      1  0.5388110000000  0.5603840000000  0.5653340000000 1.0
C      1  0.4873090000000  0.4212830000000  0.4843220000000 1.0
C      1  0.4651690000000  0.5282380000000  0.5795050000000 1.0
C      1  0.4638210000000  0.5514820000000  0.4338180000000 1.0
C      1  0.5153570000000  0.4281490000000  0.4725780000000 1.0
C      1  0.5388190000000  0.5313400000000  0.5797000000000 1.0
C      1  0.5383990000000  0.5543520000000  0.4348330000000 1.0
C      1  0.5472350000000  0.5138270000000  0.5539490000000 1.0
C      1  0.5300690000000  0.4479920000000  0.4853220000000 1.0
C      1  0.5477610000000  0.5434140000000  0.4637590000000 1.0
C      1  0.4584840000000  0.5098240000000  0.5538450000000 1.0
C      1  0.4667830000000  0.4466300000000  0.4837460000000 1.0
C      1  0.4546190000000  0.5392410000000  0.4621750000000 1.0
C      1  0.5463770000000  0.5179080000000  0.4485970000000 1.0
C      1  0.5317350000000  0.4468990000000  0.5133630000000 1.0
C      1  0.5489100000000  0.5412500000000  0.5425400000000 1.0
C      1  0.4549090000000  0.5145570000000  0.4455960000000 1.0
C      1  0.4702480000000  0.4432290000000  0.5128460000000 1.0
C      1  0.4569140000000  0.5368860000000  0.5415870000000 1.0
C      1  0.4587550000000  0.3811200000000  0.5319350000000 1.0
C      1  0.4604250000000  0.5151950000000  0.3847070000000 1.0
C      1  0.4576300000000  0.5885750000000  0.5738990000000 1.0
C      1  0.5252920000000  0.4078240000000  0.5472700000000 1.0
C      1  0.5452580000000  0.5163480000000  0.3874940000000 1.0
C      1  0.5425080000000  0.5922410000000  0.5756760000000 1.0
C      1  0.4558660000000  0.3822970000000  0.4726150000000 1.0
C      1  0.4596720000000  0.5211970000000  0.6121330000000 1.0
C      1  0.4577590000000  0.5827290000000  0.4223720000000 1.0
C      1  0.5201350000000  0.4101050000000  0.4510540000000 1.0
C      1  0.5447210000000  0.5239940000000  0.6121940000000 1.0
C      1  0.5423320000000  0.5857750000000  0.4229300000000 1.0
END
