TITL C-26733-8285-88 -0.000444574586658207 125000 -325.910232627813 0 0 60 (C1) n - 1
REM
REM in /home/nfs/bkarasulu/CARBON/AIRSS/Generating-Clusters/AIREBO/Higher-Symm/Only-C60
REM
REM
REM
REM
REM
REM ./C.cell (28575a23ae977d3b5fae324c64b13b57)
REM
REM compiler GCC version 9.2.1 20190827 (Red Hat 9.2.1-1)
REM options -cpp -mtune=generic -march=x86-64 -g -O0 -fpre-include=/usr/include/finclude/math-vector-fortran.h
REM seed 1295602090 1452378891 -1252137703 1025629126 -943580046 1101144007 551429187 -661332553 -2011730811 -1558308635 1577298279 -344373181 -435422356 -1425606916 -2120469578 1393463085 992438276 724395438 848021677 -1356144046 978300131 2085241657 -1130127162 -1128648476 -1125069100 -1577317891 1849600455 -953435196 429121514 620589715 1640418976 1753660644 -588823739
REM
CELL 1.54180   50.00000   50.00000   50.00000   90.00000   90.00000   90.00000
LATT -1
SFAC C  
C      1  0.4399390000000  0.5065930000000  0.5146450000000 1.0
C      1  0.4389550000000  0.5019530000000  0.4846900000000 1.0
C      1  0.5128780000000  0.5097450000000  0.5594380000000 1.0
C      1  0.5186590000000  0.5043230000000  0.4436450000000 1.0
C      1  0.5312610000000  0.5708630000000  0.5118610000000 1.0
C      1  0.5331730000000  0.5649690000000  0.4852880000000 1.0
C      1  0.4951860000000  0.4882190000000  0.5702710000000 1.0
C      1  0.4987970000000  0.4847130000000  0.4329070000000 1.0
C      1  0.4790630000000  0.4443620000000  0.5373400000000 1.0
C      1  0.4768710000000  0.4396910000000  0.4605080000000 1.0
C      1  0.5368700000000  0.4497960000000  0.4557660000000 1.0
C      1  0.5326640000000  0.4564860000000  0.5456180000000 1.0
C      1  0.4756400000000  0.4729390000000  0.4535000000000 1.0
C      1  0.4743750000000  0.4752040000000  0.5485480000000 1.0
C      1  0.4753240000000  0.4854090000000  0.4834630000000 1.0
C      1  0.4741490000000  0.4804410000000  0.5171210000000 1.0
C      1  0.5395930000000  0.5215150000000  0.5234610000000 1.0
C      1  0.5439570000000  0.5173230000000  0.4911540000000 1.0
C      1  0.5491560000000  0.4979140000000  0.4391700000000 1.0
C      1  0.5405440000000  0.5066880000000  0.5605880000000 1.0
C      1  0.4664650000000  0.5006720000000  0.5783110000000 1.0
C      1  0.4710580000000  0.4988000000000  0.4234330000000 1.0
C      1  0.4913850000000  0.5077610000000  0.5121730000000 1.0
C      1  0.4839480000000  0.5163160000000  0.4821180000000 1.0
C      1  0.4999250000000  0.4479700000000  0.5143050000000 1.0
C      1  0.4924820000000  0.4567720000000  0.4854440000000 1.0
C      1  0.4842650000000  0.5622530000000  0.5607270000000 1.0
C      1  0.4775810000000  0.5687790000000  0.4429760000000 1.0
C      1  0.5628850000000  0.5018990000000  0.5354070000000 1.0
C      1  0.5713680000000  0.4908270000000  0.4620930000000 1.0
C      1  0.5225730000000  0.4668560000000  0.4812640000000 1.0
C      1  0.5267720000000  0.4690910000000  0.5145940000000 1.0
C      1  0.4536620000000  0.4482730000000  0.4828760000000 1.0
C      1  0.4591450000000  0.4437250000000  0.5124940000000 1.0
C      1  0.5049550000000  0.4546320000000  0.4475160000000 1.0
C      1  0.5033670000000  0.4577940000000  0.5569700000000 1.0
C      1  0.5290350000000  0.5400930000000  0.4763510000000 1.0
C      1  0.5248110000000  0.5484040000000  0.5321730000000 1.0
C      1  0.5712330000000  0.5033600000000  0.4869570000000 1.0
C      1  0.5833170000000  0.5005850000000  0.5118370000000 1.0
C      1  0.4509270000000  0.5153310000000  0.5655410000000 1.0
C      1  0.4542300000000  0.5110990000000  0.4373100000000 1.0
C      1  0.4407880000000  0.5484100000000  0.4871060000000 1.0
C      1  0.4352730000000  0.5461020000000  0.5113640000000 1.0
C      1  0.4416920000000  0.4729020000000  0.5119110000000 1.0
C      1  0.4361560000000  0.4724800000000  0.4783220000000 1.0
C      1  0.5447950000000  0.4400040000000  0.5175510000000 1.0
C      1  0.5431290000000  0.4408200000000  0.4887460000000 1.0
C      1  0.4751600000000  0.5900940000000  0.4279220000000 1.0
C      1  0.5120360000000  0.5629140000000  0.5589950000000 1.0
C      1  0.5275840000000  0.4963600000000  0.4735010000000 1.0
C      1  0.5201490000000  0.4982050000000  0.5184820000000 1.0
C      1  0.4467070000000  0.5287540000000  0.5363170000000 1.0
C      1  0.4548460000000  0.5257950000000  0.4673100000000 1.0
C      1  0.5062300000000  0.5278660000000  0.4614220000000 1.0
C      1  0.4989640000000  0.5264930000000  0.5370290000000 1.0
C      1  0.4740040000000  0.5415100000000  0.5461450000000 1.0
C      1  0.4798030000000  0.5460950000000  0.4558620000000 1.0
C      1  0.5523490000000  0.4773050000000  0.5565140000000 1.0
C      1  0.5578940000000  0.4674540000000  0.4436470000000 1.0
END
