TITL C-26733-8285-69 -2.8710096191066e-05 125000 -330.790677674161 0 0 60 (C1) n - 1
REM
REM in /home/nfs/bkarasulu/CARBON/AIRSS/Generating-Clusters/AIREBO/Higher-Symm/Only-C60
REM
REM
REM
REM
REM
REM ./C.cell (28575a23ae977d3b5fae324c64b13b57)
REM
REM compiler GCC version 9.2.1 20190827 (Red Hat 9.2.1-1)
REM options -cpp -mtune=generic -march=x86-64 -g -O0 -fpre-include=/usr/include/finclude/math-vector-fortran.h
REM seed -1467042922 1092854782 -569215190 -22006318 451494925 -1281618867 1508762933 1883035 -888778330 474346287 1162860043 -299214036 -1117991627 115734071 -72817537 -376577449 -381870416 952324344 -618748750 436827766 -558984644 298375866 -566022246 -1155437063 -907826359 119759217 -1343561151 1355405124 11681119 -725707729 1011321866 -751511438 -357515592
REM
CELL 1.54180   50.00000   50.00000   50.00000   90.00000   90.00000   90.00000
LATT -1
SFAC C  
C      1  0.4864840000000  0.5463260000000  0.4629700000000 1.0
C      1  0.4655950000000  0.4892550000000  0.4629770000000 1.0
C      1  0.5146830000000  0.4560080000000  0.4606410000000 1.0
C      1  0.5363070000000  0.5115120000000  0.4628430000000 1.0
C      1  0.5108660000000  0.5355830000000  0.5379060000000 1.0
C      1  0.5454920000000  0.4863360000000  0.5376510000000 1.0
C      1  0.4904520000000  0.4611350000000  0.5359730000000 1.0
C      1  0.4552390000000  0.5126370000000  0.5381520000000 1.0
C      1  0.4673070000000  0.4404060000000  0.4582290000000 1.0
C      1  0.5611550000000  0.4657370000000  0.4588600000000 1.0
C      1  0.5341680000000  0.5611860000000  0.4595200000000 1.0
C      1  0.4383210000000  0.5335720000000  0.4595220000000 1.0
C      1  0.5356470000000  0.4381400000000  0.5428660000000 1.0
C      1  0.4391970000000  0.4657980000000  0.5411490000000 1.0
C      1  0.4658650000000  0.5614450000000  0.5419470000000 1.0
C      1  0.5602220000000  0.5342060000000  0.5420040000000 1.0
C      1  0.4877080000000  0.4697640000000  0.4761190000000 1.0
C      1  0.5294700000000  0.4815290000000  0.4773570000000 1.0
C      1  0.5138510000000  0.5310240000000  0.4761370000000 1.0
C      1  0.4712190000000  0.5195650000000  0.4773540000000 1.0
C      1  0.5206190000000  0.4689340000000  0.5223320000000 1.0
C      1  0.4702870000000  0.4851060000000  0.5250150000000 1.0
C      1  0.4806820000000  0.5291900000000  0.5236000000000 1.0
C      1  0.5305950000000  0.5139060000000  0.5244420000000 1.0
C      1  0.5500600000000  0.4525170000000  0.5170230000000 1.0
C      1  0.5431040000000  0.5446090000000  0.5162210000000 1.0
C      1  0.4519480000000  0.5460670000000  0.5165770000000 1.0
C      1  0.4566460000000  0.4551570000000  0.5156950000000 1.0
C      1  0.4573350000000  0.4568020000000  0.4846720000000 1.0
C      1  0.4533380000000  0.5475200000000  0.4851470000000 1.0
C      1  0.5442920000000  0.5436670000000  0.4850680000000 1.0
C      1  0.5460230000000  0.4528690000000  0.4852370000000 1.0
C      1  0.5143540000000  0.4458580000000  0.5542150000000 1.0
C      1  0.5568270000000  0.5124190000000  0.5544320000000 1.0
C      1  0.4877530000000  0.5553140000000  0.5529040000000 1.0
C      1  0.4432780000000  0.4869510000000  0.5543060000000 1.0
C      1  0.4882890000000  0.4449910000000  0.4448390000000 1.0
C      1  0.4448680000000  0.5118780000000  0.4484160000000 1.0
C      1  0.5125260000000  0.5580240000000  0.4468160000000 1.0
C      1  0.5554530000000  0.4877940000000  0.4477700000000 1.0
C      1  0.4880950000000  0.4129370000000  0.5157550000000 1.0
C      1  0.5893670000000  0.4863470000000  0.5120170000000 1.0
C      1  0.5027210000000  0.5747550000000  0.5053620000000 1.0
C      1  0.4118330000000  0.5135320000000  0.5120880000000 1.0
C      1  0.5059800000000  0.4236600000000  0.4973410000000 1.0
C      1  0.4263200000000  0.4962250000000  0.4957380000000 1.0
C      1  0.4845770000000  0.5889420000000  0.4896290000000 1.0
C      1  0.5749090000000  0.5036980000000  0.4957220000000 1.0
C      1  0.4744740000000  0.4321830000000  0.5288110000000 1.0
C      1  0.5732130000000  0.4712340000000  0.5275580000000 1.0
C      1  0.5212020000000  0.5655900000000  0.5260920000000 1.0
C      1  0.4280970000000  0.5284610000000  0.5277890000000 1.0
C      1  0.5259730000000  0.4298360000000  0.4766510000000 1.0
C      1  0.4358110000000  0.4782650000000  0.4746890000000 1.0
C      1  0.4698630000000  0.5723630000000  0.4740130000000 1.0
C      1  0.5657480000000  0.5223260000000  0.4751570000000 1.0
C      1  0.4986850000000  0.5442900000000  0.5009780000000 1.0
C      1  0.5445220000000  0.4993030000000  0.4998710000000 1.0
C      1  0.5042320000000  0.4546550000000  0.4990610000000 1.0
C      1  0.4568580000000  0.5006620000000  0.5001040000000 1.0
END
