TITL C-26738-6379-14 -0.00275163850791691 125000 -345.829145660415 0 0 60 (C2) n - 1
REM
REM in /home/nfs/bkarasulu/CARBON/AIRSS/Generating-Clusters/AIREBO/Higher-Symm/Only-C60
REM
REM
REM
REM
REM
REM ./C.cell (28575a23ae977d3b5fae324c64b13b57)
REM
REM compiler GCC version 9.2.1 20190827 (Red Hat 9.2.1-1)
REM options -cpp -mtune=generic -march=x86-64 -g -O0 -fpre-include=/usr/include/finclude/math-vector-fortran.h
REM seed -850821188 -828000483 -710422398 -1491839996 -918728527 -1407040060 688407864 -1712359451 1700330615 636662364 1501394531 278797034 354675439 -491070343 843751350 -239133057 -1525365304 -492649533 -1461541125 1854665781 -620846320 -2078559293 1237564866 -1371351679 702520706 106916275 -1468427702 554138226 1737558342 814195861 128237458 125593034 -329655917
REM
CELL 1.54180   50.00000   50.00000   50.00000   90.00000   90.00000   90.00000
LATT -1
SFAC C  
C      1  0.4784140000000  0.4704860000000  0.4178170000000 1.0
C      1  0.5242020000000  0.5310150000000  0.4129650000000 1.0
C      1  0.4644210000000  0.4652210000000  0.5796160000000 1.0
C      1  0.5350040000000  0.5229730000000  0.5836920000000 1.0
C      1  0.5355450000000  0.4651250000000  0.4204110000000 1.0
C      1  0.4650180000000  0.5229430000000  0.4162900000000 1.0
C      1  0.5215570000000  0.4705280000000  0.5822060000000 1.0
C      1  0.4758280000000  0.5311060000000  0.5870110000000 1.0
C      1  0.4453860000000  0.4745500000000  0.5196310000000 1.0
C      1  0.5556320000000  0.5307630000000  0.5234640000000 1.0
C      1  0.4379350000000  0.4740360000000  0.4878260000000 1.0
C      1  0.5619560000000  0.5347690000000  0.4929830000000 1.0
C      1  0.5620400000000  0.4739850000000  0.5121940000000 1.0
C      1  0.4380780000000  0.5348350000000  0.5069900000000 1.0
C      1  0.5545890000000  0.4744810000000  0.4803890000000 1.0
C      1  0.4443980000000  0.5307990000000  0.4765120000000 1.0
C      1  0.5365140000000  0.5557000000000  0.4851990000000 1.0
C      1  0.4617630000000  0.4535480000000  0.4900230000000 1.0
C      1  0.5304330000000  0.5469070000000  0.5138900000000 1.0
C      1  0.4682440000000  0.4526360000000  0.5192240000000 1.0
C      1  0.4696130000000  0.5469260000000  0.4860740000000 1.0
C      1  0.5317090000000  0.4525900000000  0.4808130000000 1.0
C      1  0.4635400000000  0.5557470000000  0.5147580000000 1.0
C      1  0.5381910000000  0.4535180000000  0.5100120000000 1.0
C      1  0.5461890000000  0.5140610000000  0.4142950000000 1.0
C      1  0.4530600000000  0.4787850000000  0.4297340000000 1.0
C      1  0.5557730000000  0.5032620000000  0.5834110000000 1.0
C      1  0.4499340000000  0.4910770000000  0.5690360000000 1.0
C      1  0.4442310000000  0.5032520000000  0.4165870000000 1.0
C      1  0.5500570000000  0.4909740000000  0.4309710000000 1.0
C      1  0.4538250000000  0.5141730000000  0.5856950000000 1.0
C      1  0.5469190000000  0.4787930000000  0.5702820000000 1.0
C      1  0.4961840000000  0.4884230000000  0.4325520000000 1.0
C      1  0.5072320000000  0.5357820000000  0.4400470000000 1.0
C      1  0.4835830000000  0.4732770000000  0.5570260000000 1.0
C      1  0.5154350000000  0.5145120000000  0.5599140000000 1.0
C      1  0.5163900000000  0.4732170000000  0.4429950000000 1.0
C      1  0.4845790000000  0.5144810000000  0.4400750000000 1.0
C      1  0.5038050000000  0.4884710000000  0.5674570000000 1.0
C      1  0.4928030000000  0.5358360000000  0.5599250000000 1.0
C      1  0.5095680000000  0.4589930000000  0.4655940000000 1.0
C      1  0.4949680000000  0.5272450000000  0.4852080000000 1.0
C      1  0.5168350000000  0.4598680000000  0.5287800000000 1.0
C      1  0.4818380000000  0.5365970000000  0.5333340000000 1.0
C      1  0.4831260000000  0.4598630000000  0.4712510000000 1.0
C      1  0.5181970000000  0.5365530000000  0.4666370000000 1.0
C      1  0.4903920000000  0.4590290000000  0.5344380000000 1.0
C      1  0.5050590000000  0.5272510000000  0.5147710000000 1.0
C      1  0.4696680000000  0.5116670000000  0.4676030000000 1.0
C      1  0.5529910000000  0.4947790000000  0.4599480000000 1.0
C      1  0.4530290000000  0.5206820000000  0.5299400000000 1.0
C      1  0.5413130000000  0.4818340000000  0.5379940000000 1.0
C      1  0.5469920000000  0.5206120000000  0.4700440000000 1.0
C      1  0.4586690000000  0.4818450000000  0.4620200000000 1.0
C      1  0.5303440000000  0.5116620000000  0.5323880000000 1.0
C      1  0.4470040000000  0.4948620000000  0.5400560000000 1.0
C      1  0.5057280000000  0.4589880000000  0.4072300000000 1.0
C      1  0.4919700000000  0.5374900000000  0.4084940000000 1.0
C      1  0.4942320000000  0.4590650000000  0.5928010000000 1.0
C      1  0.5080670000000  0.5375530000000  0.5914770000000 1.0
END
