TITL C-26732-6566-72 -0.00257781913998054 125000 -298.745533037044 0 0 60 (C1) n - 1
REM
REM in /home/nfs/bkarasulu/CARBON/AIRSS/Generating-Clusters/AIREBO/Higher-Symm/Only-C60
REM
REM
REM
REM
REM
REM ./C.cell (28575a23ae977d3b5fae324c64b13b57)
REM
REM compiler GCC version 9.2.1 20190827 (Red Hat 9.2.1-1)
REM options -cpp -mtune=generic -march=x86-64 -g -O0 -fpre-include=/usr/include/finclude/math-vector-fortran.h
REM seed -1040923572 1275878263 -893796237 13672940 197339660 510582260 -1194030425 1328693408 -878223567 -980933144 -606776527 -1281243945 593416013 1481272121 1935485567 -685541167 2092446008 310350097 1834087674 -653656922 -934903237 1460830209 -1181989696 -313731653 646181534 688095216 -1837787491 -61835779 875729461 -1554354569 897335500 -1600632512 -751431202
REM
CELL 1.54180   50.00000   50.00000   50.00000   90.00000   90.00000   90.00000
LATT -1
SFAC C  
C      1  0.4626990000000  0.4341910000000  0.5310280000000 1.0
C      1  0.5351180000000  0.5638420000000  0.5275360000000 1.0
C      1  0.4673030000000  0.4332960000000  0.4732900000000 1.0
C      1  0.5339490000000  0.5633000000000  0.4718600000000 1.0
C      1  0.5307580000000  0.4384080000000  0.5249840000000 1.0
C      1  0.4645320000000  0.5604360000000  0.5258140000000 1.0
C      1  0.5367180000000  0.4374540000000  0.4721680000000 1.0
C      1  0.4642670000000  0.5594380000000  0.4747870000000 1.0
C      1  0.5635770000000  0.5174690000000  0.4677520000000 1.0
C      1  0.4379360000000  0.4795410000000  0.4685560000000 1.0
C      1  0.5626530000000  0.5164430000000  0.5320300000000 1.0
C      1  0.4361150000000  0.4821700000000  0.5315000000000 1.0
C      1  0.4423510000000  0.5104290000000  0.4647330000000 1.0
C      1  0.5584940000000  0.4867160000000  0.4632660000000 1.0
C      1  0.4404590000000  0.5128830000000  0.5351440000000 1.0
C      1  0.5561490000000  0.4858910000000  0.5361100000000 1.0
C      1  0.5152170000000  0.5384120000000  0.5308570000000 1.0
C      1  0.4826370000000  0.4594470000000  0.5347050000000 1.0
C      1  0.5151610000000  0.5368770000000  0.4690280000000 1.0
C      1  0.4859890000000  0.4594090000000  0.4688300000000 1.0
C      1  0.4870230000000  0.5377210000000  0.5306620000000 1.0
C      1  0.5098730000000  0.4626730000000  0.5262980000000 1.0
C      1  0.4870780000000  0.5370070000000  0.4703800000000 1.0
C      1  0.5143240000000  0.4593270000000  0.4672540000000 1.0
C      1  0.4740550000000  0.5166990000000  0.5500380000000 1.0
C      1  0.5239030000000  0.4844200000000  0.5433010000000 1.0
C      1  0.4730870000000  0.5157930000000  0.4513880000000 1.0
C      1  0.5273040000000  0.4828270000000  0.4532100000000 1.0
C      1  0.5322550000000  0.5166540000000  0.5477550000000 1.0
C      1  0.4654380000000  0.4840900000000  0.5472520000000 1.0
C      1  0.5334560000000  0.5157570000000  0.4518850000000 1.0
C      1  0.4682430000000  0.4819570000000  0.4541110000000 1.0
C      1  0.4796450000000  0.4868510000000  0.4248540000000 1.0
C      1  0.5206950000000  0.5227210000000  0.4221810000000 1.0
C      1  0.4798130000000  0.4876350000000  0.5758540000000 1.0
C      1  0.5230180000000  0.5207020000000  0.5787000000000 1.0
C      1  0.5154640000000  0.4910860000000  0.4260720000000 1.0
C      1  0.4867370000000  0.5186230000000  0.4228030000000 1.0
C      1  0.5133660000000  0.4908580000000  0.5717450000000 1.0
C      1  0.4868040000000  0.5198030000000  0.5789370000000 1.0
C      1  0.4578470000000  0.5288110000000  0.4859160000000 1.0
C      1  0.5454030000000  0.4662880000000  0.4846870000000 1.0
C      1  0.4578550000000  0.5292790000000  0.5157540000000 1.0
C      1  0.5435840000000  0.4661500000000  0.5139740000000 1.0
C      1  0.5443890000000  0.5351490000000  0.4850950000000 1.0
C      1  0.4569650000000  0.4615490000000  0.4864860000000 1.0
C      1  0.5443250000000  0.5350990000000  0.5144420000000 1.0
C      1  0.4549920000000  0.4622100000000  0.5155760000000 1.0
C      1  0.5919200000000  0.5268490000000  0.4661800000000 1.0
C      1  0.4101280000000  0.4689390000000  0.4655000000000 1.0
C      1  0.5913340000000  0.5247990000000  0.5334190000000 1.0
C      1  0.4077030000000  0.4726480000000  0.5329910000000 1.0
C      1  0.4185630000000  0.5244850000000  0.4520710000000 1.0
C      1  0.5803820000000  0.4736490000000  0.4466220000000 1.0
C      1  0.4188730000000  0.5267970000000  0.5477830000000 1.0
C      1  0.5757840000000  0.4718610000000  0.5545900000000 1.0
C      1  0.5007710000000  0.4685660000000  0.5920480000000 1.0
C      1  0.5006640000000  0.5398220000000  0.4028150000000 1.0
C      1  0.5044590000000  0.5379200000000  0.5983850000000 1.0
C      1  0.5003940000000  0.4698710000000  0.4070050000000 1.0
END
