TITL C-26729-7230-139 -0.00119386819743056 125000 -341.443706767563 0 0 60 (C1) n - 1
REM
REM in /home/nfs/bkarasulu/CARBON/AIRSS/Generating-Clusters/AIREBO/Higher-Symm/Only-C60
REM
REM
REM
REM
REM
REM ./C.cell (28575a23ae977d3b5fae324c64b13b57)
REM
REM compiler GCC version 9.2.1 20190827 (Red Hat 9.2.1-1)
REM options -cpp -mtune=generic -march=x86-64 -g -O0 -fpre-include=/usr/include/finclude/math-vector-fortran.h
REM seed 1576595487 414105649 100091242 64772252 -1684188868 1533014020 -1290270838 -1077913647 256315472 223994196 -1418339231 1945309690 1721051782 -238561580 -790701297 -1668099127 1521089096 1464501412 -340349949 -1480521876 -383910636 547213524 295373499 325676901 220473343 -848635406 857566510 1691156141 -28229231 -1399173719 -1631890701 -1054662664 -1137984427
REM
CELL 1.54180   50.00000   50.00000   50.00000   90.00000   90.00000   90.00000
LATT -1
SFAC C  
C      1  0.4430980000000  0.4508950000000  0.5142220000000 1.0
C      1  0.4358020000000  0.5467480000000  0.4923350000000 1.0
C      1  0.4330310000000  0.5358060000000  0.5173980000000 1.0
C      1  0.4411000000000  0.4567380000000  0.4878390000000 1.0
C      1  0.4906940000000  0.4866460000000  0.4084900000000 1.0
C      1  0.4947640000000  0.5194190000000  0.5761790000000 1.0
C      1  0.4942900000000  0.5191800000000  0.4172780000000 1.0
C      1  0.4921580000000  0.4890160000000  0.5899380000000 1.0
C      1  0.5373620000000  0.4451300000000  0.4908040000000 1.0
C      1  0.5621610000000  0.5603000000000  0.5163050000000 1.0
C      1  0.5408460000000  0.5565770000000  0.4922550000000 1.0
C      1  0.5411720000000  0.4362580000000  0.5206610000000 1.0
C      1  0.5123400000000  0.4805060000000  0.5170820000000 1.0
C      1  0.5182300000000  0.5209410000000  0.4825490000000 1.0
C      1  0.5148330000000  0.5133580000000  0.5158420000000 1.0
C      1  0.5133910000000  0.4890260000000  0.4841740000000 1.0
C      1  0.4920420000000  0.4604060000000  0.5762710000000 1.0
C      1  0.4761740000000  0.5350660000000  0.4300850000000 1.0
C      1  0.4756550000000  0.5331050000000  0.5622810000000 1.0
C      1  0.4901910000000  0.4603550000000  0.4264570000000 1.0
C      1  0.4616590000000  0.4865300000000  0.4543810000000 1.0
C      1  0.4574330000000  0.5153130000000  0.5414660000000 1.0
C      1  0.4562430000000  0.5202450000000  0.4519960000000 1.0
C      1  0.4629280000000  0.4816680000000  0.5451230000000 1.0
C      1  0.4860220000000  0.4401750000000  0.5361850000000 1.0
C      1  0.4836440000000  0.5578920000000  0.4694760000000 1.0
C      1  0.4954600000000  0.5621080000000  0.5309420000000 1.0
C      1  0.4844760000000  0.4469350000000  0.4691600000000 1.0
C      1  0.5073510000000  0.4559230000000  0.4860410000000 1.0
C      1  0.4948970000000  0.5378800000000  0.5102600000000 1.0
C      1  0.5094540000000  0.5523900000000  0.4849800000000 1.0
C      1  0.5094020000000  0.4475600000000  0.5190370000000 1.0
C      1  0.5592900000000  0.4662130000000  0.4860100000000 1.0
C      1  0.5739060000000  0.5294600000000  0.5169910000000 1.0
C      1  0.5615810000000  0.5322010000000  0.4885330000000 1.0
C      1  0.5623970000000  0.4609290000000  0.5173100000000 1.0
C      1  0.5510930000000  0.4865760000000  0.4686220000000 1.0
C      1  0.5598550000000  0.5111020000000  0.5336860000000 1.0
C      1  0.5549310000000  0.5147480000000  0.4679920000000 1.0
C      1  0.5566050000000  0.4821220000000  0.5358680000000 1.0
C      1  0.4427320000000  0.5133420000000  0.5720780000000 1.0
C      1  0.4628040000000  0.4922600000000  0.4245250000000 1.0
C      1  0.4640780000000  0.4925970000000  0.5734630000000 1.0
C      1  0.4433530000000  0.5143870000000  0.4210700000000 1.0
C      1  0.5327520000000  0.5273370000000  0.4524700000000 1.0
C      1  0.5290410000000  0.4771670000000  0.5456930000000 1.0
C      1  0.5255420000000  0.4794920000000  0.4538660000000 1.0
C      1  0.5334080000000  0.5216840000000  0.5387530000000 1.0
C      1  0.4613800000000  0.4639480000000  0.4702200000000 1.0
C      1  0.4652540000000  0.5282400000000  0.5119540000000 1.0
C      1  0.4612290000000  0.5384430000000  0.4770250000000 1.0
C      1  0.4629710000000  0.4569890000000  0.5326890000000 1.0
C      1  0.4809670000000  0.5592570000000  0.5539800000000 1.0
C      1  0.4896340000000  0.4388980000000  0.4425450000000 1.0
C      1  0.4916670000000  0.4367120000000  0.5637040000000 1.0
C      1  0.4835720000000  0.5600240000000  0.4419380000000 1.0
C      1  0.5191490000000  0.4888740000000  0.5691990000000 1.0
C      1  0.5222740000000  0.5189810000000  0.4285330000000 1.0
C      1  0.5226900000000  0.5186910000000  0.5645380000000 1.0
C      1  0.5175410000000  0.4892290000000  0.4292520000000 1.0
END
