TITL C-26737-6152-107 0.00137038134260339 125000 -310.540544471684 0 0 60 (C1) n - 1
REM
REM in /home/nfs/bkarasulu/CARBON/AIRSS/Generating-Clusters/AIREBO/Higher-Symm/Only-C60
REM
REM
REM
REM
REM
REM ./C.cell (28575a23ae977d3b5fae324c64b13b57)
REM
REM compiler GCC version 9.2.1 20190827 (Red Hat 9.2.1-1)
REM options -cpp -mtune=generic -march=x86-64 -g -O0 -fpre-include=/usr/include/finclude/math-vector-fortran.h
REM seed 1326961987 981170506 -244782154 -543838879 1073200915 -210494375 1455353726 424327801 1615380469 -48330651 -1681722150 -413382338 -1705194292 -2069038729 1391586854 -1433159047 511295809 -616090207 835154163 -17548312 1529866824 1269525645 603323869 674146991 -1694042955 -2034418422 1047049450 -756357293 312476569 775626726 542105468 670065144 253087695
REM
CELL 1.54180   50.00000   50.00000   50.00000   90.00000   90.00000   90.00000
LATT -1
SFAC C  
C      1  0.4972760000000  0.5113810000000  0.4419840000000 1.0
C      1  0.4569040000000  0.4879590000000  0.5129720000000 1.0
C      1  0.5053740000000  0.4518420000000  0.4910590000000 1.0
C      1  0.5207910000000  0.4799190000000  0.4492410000000 1.0
C      1  0.5117700000000  0.5029450000000  0.5688600000000 1.0
C      1  0.4815540000000  0.4778640000000  0.5442600000000 1.0
C      1  0.5580850000000  0.5124580000000  0.4943440000000 1.0
C      1  0.5387700000000  0.4741120000000  0.4760470000000 1.0
C      1  0.4526360000000  0.5132690000000  0.4712370000000 1.0
C      1  0.4722610000000  0.5373240000000  0.4737260000000 1.0
C      1  0.4711900000000  0.4531210000000  0.5280310000000 1.0
C      1  0.4979170000000  0.5591350000000  0.5134280000000 1.0
C      1  0.4895560000000  0.5255190000000  0.5671290000000 1.0
C      1  0.4695790000000  0.4883820000000  0.4821340000000 1.0
C      1  0.5207210000000  0.4580980000000  0.5186720000000 1.0
C      1  0.5153960000000  0.4789800000000  0.5449720000000 1.0
C      1  0.5241250000000  0.5216340000000  0.4566440000000 1.0
C      1  0.4876950000000  0.4833490000000  0.4565070000000 1.0
C      1  0.5477000000000  0.5049770000000  0.4649050000000 1.0
C      1  0.5564910000000  0.4917770000000  0.5126150000000 1.0
C      1  0.4589540000000  0.5211940000000  0.5214480000000 1.0
C      1  0.4724390000000  0.5465560000000  0.5043320000000 1.0
C      1  0.4764790000000  0.4578690000000  0.4954590000000 1.0
C      1  0.5206280000000  0.5625870000000  0.4919480000000 1.0
C      1  0.5463350000000  0.4917180000000  0.5382600000000 1.0
C      1  0.5472520000000  0.5628550000000  0.5021850000000 1.0
C      1  0.4997370000000  0.5520120000000  0.5656030000000 1.0
C      1  0.4596210000000  0.5230810000000  0.5529680000000 1.0
C      1  0.4431940000000  0.4922360000000  0.4149180000000 1.0
C      1  0.5667790000000  0.5027640000000  0.4395420000000 1.0
C      1  0.4505470000000  0.4382540000000  0.4889510000000 1.0
C      1  0.4418770000000  0.5588950000000  0.5059860000000 1.0
C      1  0.5477090000000  0.4394040000000  0.5195240000000 1.0
C      1  0.5118060000000  0.4501530000000  0.5617480000000 1.0
C      1  0.5211520000000  0.5530240000000  0.4607310000000 1.0
C      1  0.4841720000000  0.4558720000000  0.4388760000000 1.0
C      1  0.5623620000000  0.4958990000000  0.4080850000000 1.0
C      1  0.5764750000000  0.5661660000000  0.5141450000000 1.0
C      1  0.4916300000000  0.5427570000000  0.4482670000000 1.0
C      1  0.4462160000000  0.5077650000000  0.4429540000000 1.0
C      1  0.4500750000000  0.4913660000000  0.5461070000000 1.0
C      1  0.5567990000000  0.5034070000000  0.5620860000000 1.0
C      1  0.4413550000000  0.4591490000000  0.5141590000000 1.0
C      1  0.4128020000000  0.5483650000000  0.4988560000000 1.0
C      1  0.5382860000000  0.4418830000000  0.4869470000000 1.0
C      1  0.5099830000000  0.4505360000000  0.4603580000000 1.0
C      1  0.5117450000000  0.5815990000000  0.5669070000000 1.0
C      1  0.4962010000000  0.4267700000000  0.5778850000000 1.0
C      1  0.5026420000000  0.5677630000000  0.5385070000000 1.0
C      1  0.4860060000000  0.4363260000000  0.5486790000000 1.0
C      1  0.4915540000000  0.5653170000000  0.4745300000000 1.0
C      1  0.4974830000000  0.4269210000000  0.4391790000000 1.0
C      1  0.4724140000000  0.4964370000000  0.5712330000000 1.0
C      1  0.5383900000000  0.4901670000000  0.4289360000000 1.0
C      1  0.5362520000000  0.5084690000000  0.5802420000000 1.0
C      1  0.5660090000000  0.5370520000000  0.5028990000000 1.0
C      1  0.4722290000000  0.5027310000000  0.4252020000000 1.0
C      1  0.4194940000000  0.4395710000000  0.4969470000000 1.0
C      1  0.4389300000000  0.5266720000000  0.4955060000000 1.0
C      1  0.5601940000000  0.4643940000000  0.5001410000000 1.0
END
