TITL C-26737-6152-36 4.84190089270633e-05 125000 -364.435742593652 0 0 60 (D6d) n - 1
REM
REM in /home/nfs/bkarasulu/CARBON/AIRSS/Generating-Clusters/AIREBO/Higher-Symm/Only-C60
REM
REM
REM
REM
REM
REM ./C.cell (28575a23ae977d3b5fae324c64b13b57)
REM
REM compiler GCC version 9.2.1 20190827 (Red Hat 9.2.1-1)
REM options -cpp -mtune=generic -march=x86-64 -g -O0 -fpre-include=/usr/include/finclude/math-vector-fortran.h
REM seed -1858099657 1942996116 542851046 -1618689574 660418124 -1684023038 -2132285381 -532158122 1596622310 2001847629 390064973 932755774 -107508316 122031282 -895772268 -418122525 -1621619370 1023765020 1542556017 2058557104 -1783861350 -2044144664 575676766 -980374442 -1717843591 -2008961107 -1695174187 220147927 -1570842377 1398526247 917827171 -301686061 1204246370
REM
CELL 1.54180   50.00000   50.00000   50.00000   90.00000   90.00000   90.00000
LATT -1
SFAC C  
C      1  0.4672440000000  0.5313110000000  0.5069910000000 1.0
C      1  0.4559780000000  0.5107370000000  0.4930000000000 1.0
C      1  0.4565070000000  0.4872890000000  0.5069950000000 1.0
C      1  0.4686900000000  0.4672440000000  0.4930050000000 1.0
C      1  0.4892620000000  0.4559790000000  0.5070000000000 1.0
C      1  0.5127120000000  0.4565060000000  0.4930090000000 1.0
C      1  0.5327550000000  0.4686910000000  0.5070020000000 1.0
C      1  0.5440220000000  0.4892620000000  0.4930070000000 1.0
C      1  0.5434930000000  0.5127130000000  0.5069980000000 1.0
C      1  0.5313100000000  0.5327550000000  0.4930020000000 1.0
C      1  0.5107370000000  0.5440230000000  0.5069920000000 1.0
C      1  0.4872880000000  0.5434920000000  0.4929980000000 1.0
C      1  0.5333370000000  0.4343920000000  0.5624730000000 1.0
C      1  0.5616850000000  0.4598390000000  0.4375440000000 1.0
C      1  0.5734910000000  0.4960730000000  0.5624690000000 1.0
C      1  0.5656190000000  0.5333340000000  0.4375360000000 1.0
C      1  0.5401500000000  0.5616880000000  0.5624600000000 1.0
C      1  0.5039380000000  0.5734880000000  0.4375290000000 1.0
C      1  0.4666560000000  0.5656220000000  0.5624550000000 1.0
C      1  0.4383230000000  0.5401480000000  0.4375280000000 1.0
C      1  0.4265020000000  0.5039410000000  0.5624590000000 1.0
C      1  0.4343890000000  0.4666530000000  0.4375360000000 1.0
C      1  0.4598420000000  0.4383260000000  0.5624680000000 1.0
C      1  0.4960700000000  0.4264990000000  0.4375440000000 1.0
C      1  0.5598040000000  0.5429020000000  0.5624630000000 1.0
C      1  0.5303510000000  0.5670450000000  0.4375310000000 1.0
C      1  0.4927520000000  0.5732490000000  0.5624560000000 1.0
C      1  0.4571090000000  0.5598010000000  0.4375270000000 1.0
C      1  0.4329440000000  0.5303540000000  0.5624570000000 1.0
C      1  0.4267620000000  0.4927490000000  0.4375330000000 1.0
C      1  0.4401890000000  0.4571120000000  0.5624650000000 1.0
C      1  0.4696570000000  0.4329420000000  0.4375410000000 1.0
C      1  0.5072410000000  0.4267640000000  0.5624720000000 1.0
C      1  0.5428990000000  0.4401860000000  0.4375450000000 1.0
C      1  0.5670480000000  0.4696590000000  0.5624710000000 1.0
C      1  0.5732460000000  0.5072380000000  0.4375400000000 1.0
C      1  0.4863020000000  0.4438620000000  0.5563010000000 1.0
C      1  0.5162160000000  0.4445250000000  0.4437110000000 1.0
C      1  0.5417710000000  0.4600750000000  0.5563030000000 1.0
C      1  0.5561470000000  0.4863000000000  0.4437090000000 1.0
C      1  0.5554650000000  0.5162180000000  0.5562980000000 1.0
C      1  0.5399350000000  0.5417690000000  0.4437020000000 1.0
C      1  0.5136910000000  0.5561490000000  0.5562910000000 1.0
C      1  0.4837910000000  0.5554630000000  0.4436970000000 1.0
C      1  0.4582220000000  0.5399370000000  0.5562890000000 1.0
C      1  0.4438600000000  0.5136880000000  0.4436990000000 1.0
C      1  0.4445280000000  0.4837940000000  0.5562940000000 1.0
C      1  0.4600720000000  0.4582190000000  0.4437060000000 1.0
C      1  0.5330640000000  0.4919320000000  0.4633390000000 1.0
C      1  0.5326630000000  0.5095510000000  0.5366640000000 1.0
C      1  0.5235170000000  0.5245970000000  0.4633350000000 1.0
C      1  0.5080620000000  0.5330660000000  0.5366600000000 1.0
C      1  0.4904550000000  0.5326610000000  0.4633330000000 1.0
C      1  0.4753970000000  0.5235190000000  0.5366600000000 1.0
C      1  0.4669400000000  0.5080600000000  0.4633340000000 1.0
C      1  0.4673330000000  0.4904570000000  0.5366630000000 1.0
C      1  0.4764870000000  0.4753960000000  0.4633380000000 1.0
C      1  0.4919340000000  0.4669420000000  0.5366660000000 1.0
C      1  0.5095490000000  0.4673310000000  0.4633410000000 1.0
C      1  0.5245980000000  0.4764890000000  0.5366670000000 1.0
END
