TITL C-26730-8313-97 -0.000585193986677965 125000 -341.542008247865 0 0 60 (C1) n - 1
REM
REM in /home/nfs/bkarasulu/CARBON/AIRSS/Generating-Clusters/AIREBO/Higher-Symm/Only-C60
REM
REM
REM
REM
REM
REM ./C.cell (28575a23ae977d3b5fae324c64b13b57)
REM
REM compiler GCC version 9.2.1 20190827 (Red Hat 9.2.1-1)
REM options -cpp -mtune=generic -march=x86-64 -g -O0 -fpre-include=/usr/include/finclude/math-vector-fortran.h
REM seed -304156741 -239519607 643477924 465766958 -77832211 -753799933 -161646943 1122107334 -1889679573 -65683912 830462374 -1372190898 994990080 1234002695 -969048471 299736924 -964665394 41920216 -1457115264 181450900 -1377213588 -2129775417 336105155 1037768204 263611260 -777083547 -672642097 -692035659 22757763 -1468035375 642015297 -958649403 840638379
REM
CELL 1.54180   50.00000   50.00000   50.00000   90.00000   90.00000   90.00000
LATT -1
SFAC C  
C      1  0.5038200000000  0.4811670000000  0.5422390000000 1.0
C      1  0.5357650000000  0.4970100000000  0.4788280000000 1.0
C      1  0.4771570000000  0.5375120000000  0.5025890000000 1.0
C      1  0.4997550000000  0.5293660000000  0.4589080000000 1.0
C      1  0.4852210000000  0.5285620000000  0.5475990000000 1.0
C      1  0.4974570000000  0.4715560000000  0.4534320000000 1.0
C      1  0.5516520000000  0.5087280000000  0.5312400000000 1.0
C      1  0.4533220000000  0.4938130000000  0.4690890000000 1.0
C      1  0.4567940000000  0.4963560000000  0.5209850000000 1.0
C      1  0.4844010000000  0.4619970000000  0.4975980000000 1.0
C      1  0.5302490000000  0.4485800000000  0.5091010000000 1.0
C      1  0.5262490000000  0.5446410000000  0.4993180000000 1.0
C      1  0.4998950000000  0.5453700000000  0.4831220000000 1.0
C      1  0.5454660000000  0.4686590000000  0.4944370000000 1.0
C      1  0.4821180000000  0.5033000000000  0.5350420000000 1.0
C      1  0.5039530000000  0.4579960000000  0.5226430000000 1.0
C      1  0.4817050000000  0.5488270000000  0.5285020000000 1.0
C      1  0.4934990000000  0.4500070000000  0.4730000000000 1.0
C      1  0.5423880000000  0.5200750000000  0.5007680000000 1.0
C      1  0.4595550000000  0.4761000000000  0.4962870000000 1.0
C      1  0.4571320000000  0.5158820000000  0.4947960000000 1.0
C      1  0.4696020000000  0.4858970000000  0.4459140000000 1.0
C      1  0.5162510000000  0.4997620000000  0.4561410000000 1.0
C      1  0.5296560000000  0.4978760000000  0.5494210000000 1.0
C      1  0.4172110000000  0.4943880000000  0.5247220000000 1.0
C      1  0.5268020000000  0.4250520000000  0.4950700000000 1.0
C      1  0.5025030000000  0.5223430000000  0.4261700000000 1.0
C      1  0.4195450000000  0.4992480000000  0.4700250000000 1.0
C      1  0.5770740000000  0.4911760000000  0.5188880000000 1.0
C      1  0.5689220000000  0.4978980000000  0.4811840000000 1.0
C      1  0.5262200000000  0.5618630000000  0.5217560000000 1.0
C      1  0.4913580000000  0.5893580000000  0.5048200000000 1.0
C      1  0.4817820000000  0.4163880000000  0.5042960000000 1.0
C      1  0.4801460000000  0.4788010000000  0.5665060000000 1.0
C      1  0.5009630000000  0.4827550000000  0.4215190000000 1.0
C      1  0.4966000000000  0.5225510000000  0.5736360000000 1.0
C      1  0.4163780000000  0.5159620000000  0.4994770000000 1.0
C      1  0.5292910000000  0.5047410000000  0.4245060000000 1.0
C      1  0.4814990000000  0.4344490000000  0.5264400000000 1.0
C      1  0.4275450000000  0.4810050000000  0.4967020000000 1.0
C      1  0.5766780000000  0.5206850000000  0.5025710000000 1.0
C      1  0.5796770000000  0.4682620000000  0.4945640000000 1.0
C      1  0.5241910000000  0.5150290000000  0.5707880000000 1.0
C      1  0.4817850000000  0.5005220000000  0.5848010000000 1.0
C      1  0.4746420000000  0.5038810000000  0.4194350000000 1.0
C      1  0.4926400000000  0.5766070000000  0.4799500000000 1.0
C      1  0.5006450000000  0.4237580000000  0.4835550000000 1.0
C      1  0.4993940000000  0.5717620000000  0.5261880000000 1.0
C      1  0.4570000000000  0.4650040000000  0.5573530000000 1.0
C      1  0.5621020000000  0.4618400000000  0.4661730000000 1.0
C      1  0.4482220000000  0.5406050000000  0.4506850000000 1.0
C      1  0.4722080000000  0.5309320000000  0.4398900000000 1.0
C      1  0.5737340000000  0.5606680000000  0.5580470000000 1.0
C      1  0.5316790000000  0.4722130000000  0.4315960000000 1.0
C      1  0.5627160000000  0.5337550000000  0.5441650000000 1.0
C      1  0.4353300000000  0.5291160000000  0.4730510000000 1.0
C      1  0.4384420000000  0.4798580000000  0.5416960000000 1.0
C      1  0.4633910000000  0.4389540000000  0.5474840000000 1.0
C      1  0.5508340000000  0.4581640000000  0.4427600000000 1.0
C      1  0.5477930000000  0.5613640000000  0.5385310000000 1.0
END
