TITL C-26736-6558-192 1.88535086560966 125000 -286.413784763711 0 0 60 (C1) n - 1
REM
REM in /home/nfs/bkarasulu/CARBON/AIRSS/Generating-Clusters/AIREBO/Higher-Symm/Only-C60
REM
REM
REM
REM
REM
REM ./C.cell (28575a23ae977d3b5fae324c64b13b57)
REM
REM compiler GCC version 9.2.1 20190827 (Red Hat 9.2.1-1)
REM options -cpp -mtune=generic -march=x86-64 -g -O0 -fpre-include=/usr/include/finclude/math-vector-fortran.h
REM seed -213018342 771444505 393511486 -1836045532 1935921502 1108363106 -465926409 -1493091264 -446514082 -121844419 -1489674909 1693968647 -1639363302 2012533315 4818441 -1546766540 -2146662510 -926322680 273230705 712028067 -462932874 928912675 -1178412915 1937365700 -702419199 -270681850 -2053432124 1558517784 -1176872234 -1983198367 1826139756 -1301650908 50581955
REM
CELL 1.54180   50.00000   50.00000   50.00000   90.00000   90.00000   90.00000
LATT -1
SFAC C  
C      1  0.4583260000000  0.4880120000000  0.4372100000000 1.0
C      1  0.5455970000000  0.4848800000000  0.4403970000000 1.0
C      1  0.5705340000000  0.4848290000000  0.5239870000000 1.0
C      1  0.4875860000000  0.4924460000000  0.5783840000000 1.0
C      1  0.4278980000000  0.4877680000000  0.5201750000000 1.0
C      1  0.5199570000000  0.4407220000000  0.5291290000000 1.0
C      1  0.4865230000000  0.4371820000000  0.5365360000000 1.0
C      1  0.4631810000000  0.4406490000000  0.4993670000000 1.0
C      1  0.4853560000000  0.4443210000000  0.4725530000000 1.0
C      1  0.5299070000000  0.4395330000000  0.4963060000000 1.0
C      1  0.4586780000000  0.4712800000000  0.4849250000000 1.0
C      1  0.5030140000000  0.4681580000000  0.4565440000000 1.0
C      1  0.5417200000000  0.4673700000000  0.4860210000000 1.0
C      1  0.5236870000000  0.4741520000000  0.5340910000000 1.0
C      1  0.4711050000000  0.4680830000000  0.5380380000000 1.0
C      1  0.5019530000000  0.5123050000000  0.5612340000000 1.0
C      1  0.4427770000000  0.5123840000000  0.5233560000000 1.0
C      1  0.4582580000000  0.5127780000000  0.4520360000000 1.0
C      1  0.5315770000000  0.5116530000000  0.4464570000000 1.0
C      1  0.5595250000000  0.5122900000000  0.5145370000000 1.0
C      1  0.4462750000000  0.4657100000000  0.5149330000000 1.0
C      1  0.4698050000000  0.4685900000000  0.4543900000000 1.0
C      1  0.5335280000000  0.4653310000000  0.4565650000000 1.0
C      1  0.5500020000000  0.4664120000000  0.5178430000000 1.0
C      1  0.4758020000000  0.4715610000000  0.5705410000000 1.0
C      1  0.4567780000000  0.5020740000000  0.4835350000000 1.0
C      1  0.5009320000000  0.5000720000000  0.4549970000000 1.0
C      1  0.5422780000000  0.4999250000000  0.4879720000000 1.0
C      1  0.5275820000000  0.5034250000000  0.5413500000000 1.0
C      1  0.4709700000000  0.5020880000000  0.5369670000000 1.0
C      1  0.5496470000000  0.5509260000000  0.5131480000000 1.0
C      1  0.5096400000000  0.5566390000000  0.5409520000000 1.0
C      1  0.4595200000000  0.5577310000000  0.5199400000000 1.0
C      1  0.4676950000000  0.5567640000000  0.4679840000000 1.0
C      1  0.5183760000000  0.5554480000000  0.4592920000000 1.0
C      1  0.5048530000000  0.5320820000000  0.4415040000000 1.0
C      1  0.5553190000000  0.5323320000000  0.4873940000000 1.0
C      1  0.5250600000000  0.5349160000000  0.5546070000000 1.0
C      1  0.4601650000000  0.5346300000000  0.5423020000000 1.0
C      1  0.4459010000000  0.5341260000000  0.4754390000000 1.0
C      1  0.4922320000000  0.5286180000000  0.5326930000000 1.0
C      1  0.4649330000000  0.5289380000000  0.5031430000000 1.0
C      1  0.4845470000000  0.5272360000000  0.4683490000000 1.0
C      1  0.5237440000000  0.5264520000000  0.4762170000000 1.0
C      1  0.5283560000000  0.5260030000000  0.5159260000000 1.0
C      1  0.5114830000000  0.3847640000000  0.4934720000000 1.0
C      1  0.4980730000000  0.4971610000000  0.5081500000000 1.0
C      1  0.4968270000000  0.4394610000000  0.5042020000000 1.0
C      1  0.5062420000000  0.6681650000000  0.4988760000000 1.0
C      1  0.5122250000000  0.4101910000000  0.4962660000000 1.0
C      1  0.5077150000000  0.6943310000000  0.4988320000000 1.0
C      1  0.5032490000000  0.6149950000000  0.4989670000000 1.0
C      1  0.5047450000000  0.6415790000000  0.4989210000000 1.0
C      1  0.5090080000000  0.3316580000000  0.4912630000000 1.0
C      1  0.5003510000000  0.5620620000000  0.4991000000000 1.0
C      1  0.4987490000000  0.5280950000000  0.4992790000000 1.0
C      1  0.4971050000000  0.4709770000000  0.5169620000000 1.0
C      1  0.5075620000000  0.3054930000000  0.4918500000000 1.0
C      1  0.5113210000000  0.3581310000000  0.4931230000000 1.0
C      1  0.5017560000000  0.5884080000000  0.4990180000000 1.0
END
