TITL C-26732-6566-108 -3.2563661455891e-07 125000 -310.096092506493 0 0 60 (C3) n - 1
REM
REM in /home/nfs/bkarasulu/CARBON/AIRSS/Generating-Clusters/AIREBO/Higher-Symm/Only-C60
REM
REM
REM
REM
REM
REM ./C.cell (28575a23ae977d3b5fae324c64b13b57)
REM
REM compiler GCC version 9.2.1 20190827 (Red Hat 9.2.1-1)
REM options -cpp -mtune=generic -march=x86-64 -g -O0 -fpre-include=/usr/include/finclude/math-vector-fortran.h
REM seed 1435794444 -963934335 -1830446708 519621563 307000598 -1729941860 1125746182 85704460 -469430789 -1164342801 1756572002 1379743829 1940206857 -2114399960 -289311395 -842667532 -1209814374 769428933 -901598350 -90326959 738202940 1383901358 936338884 1539191438 94748584 -871650235 1600377206 404132725 809826509 1617210868 -1686183725 -1668653286 1696945004
REM
CELL 1.54180   50.00000   50.00000   50.00000   90.00000   90.00000   90.00000
LATT -1
SFAC C  
C      1  0.5439390000000  0.4721820000000  0.5224270000000 1.0
C      1  0.5432290000000  0.4739790000000  0.4752710000000 1.0
C      1  0.4974510000000  0.4721850000000  0.4507320000000 1.0
C      1  0.4569690000000  0.4739830000000  0.4749250000000 1.0
C      1  0.4586050000000  0.4721860000000  0.5268390000000 1.0
C      1  0.4997990000000  0.4739800000000  0.5498020000000 1.0
C      1  0.5176510000000  0.4147340000000  0.5267830000000 1.0
C      1  0.5320240000000  0.4229760000000  0.4978880000000 1.0
C      1  0.5143640000000  0.4147350000000  0.4713170000000 1.0
C      1  0.4821540000000  0.4229780000000  0.4733170000000 1.0
C      1  0.4679730000000  0.4147370000000  0.5018960000000 1.0
C      1  0.4858110000000  0.4229770000000  0.5287910000000 1.0
C      1  0.5513990000000  0.5248050000000  0.5775370000000 1.0
C      1  0.5923190000000  0.5236120000000  0.4904570000000 1.0
C      1  0.5414500000000  0.5248090000000  0.4167200000000 1.0
C      1  0.4455780000000  0.5236210000000  0.4248230000000 1.0
C      1  0.4071540000000  0.5248140000000  0.5057440000000 1.0
C      1  0.4621070000000  0.5236170000000  0.5847210000000 1.0
C      1  0.4936090000000  0.5518400000000  0.4393250000000 1.0
C      1  0.4442590000000  0.5526720000000  0.4752060000000 1.0
C      1  0.4506520000000  0.5518400000000  0.5358760000000 1.0
C      1  0.5064020000000  0.5526670000000  0.5606730000000 1.0
C      1  0.5557470000000  0.5518350000000  0.5248020000000 1.0
C      1  0.5493470000000  0.5526670000000  0.4641230000000 1.0
C      1  0.5372550000000  0.5098630000000  0.5531030000000 1.0
C      1  0.5638000000000  0.5097650000000  0.4927210000000 1.0
C      1  0.5273610000000  0.5098660000000  0.4411850000000 1.0
C      1  0.4617970000000  0.5097710000000  0.4483880000000 1.0
C      1  0.4353850000000  0.5098690000000  0.5057120000000 1.0
C      1  0.4744040000000  0.5097690000000  0.5588920000000 1.0
C      1  0.5219310000000  0.4968240000000  0.5258060000000 1.0
C      1  0.5319530000000  0.4979960000000  0.4946320000000 1.0
C      1  0.5113830000000  0.4968250000000  0.4681040000000 1.0
C      1  0.4793740000000  0.4979990000000  0.4750120000000 1.0
C      1  0.4666860000000  0.4968270000000  0.5060900000000 1.0
C      1  0.4886720000000  0.4979980000000  0.5303570000000 1.0
C      1  0.5665140000000  0.4824200000000  0.5103450000000 1.0
C      1  0.5460260000000  0.4846010000000  0.4501160000000 1.0
C      1  0.4757010000000  0.4824250000000  0.4372240000000 1.0
C      1  0.4337850000000  0.4846060000000  0.4850810000000 1.0
C      1  0.4577830000000  0.4824240000000  0.5524300000000 1.0
C      1  0.5201870000000  0.4846000000000  0.5648020000000 1.0
C      1  0.5041910000000  0.4459280000000  0.4613290000000 1.0
C      1  0.4654530000000  0.4489890000000  0.4839540000000 1.0
C      1  0.4644110000000  0.4459290000000  0.5157020000000 1.0
C      1  0.5033740000000  0.4489860000000  0.5379390000000 1.0
C      1  0.5313890000000  0.4459260000000  0.5229660000000 1.0
C      1  0.5311660000000  0.4489860000000  0.4781050000000 1.0
C      1  0.4665230000000  0.5408090000000  0.4541310000000 1.0
C      1  0.4436640000000  0.5407760000000  0.5057850000000 1.0
C      1  0.4770170000000  0.5408070000000  0.5519300000000 1.0
C      1  0.5331800000000  0.5407710000000  0.5458980000000 1.0
C      1  0.5564660000000  0.5408040000000  0.4939420000000 1.0
C      1  0.5231620000000  0.5407730000000  0.4483190000000 1.0
C      1  0.4890180000000  0.5525870000000  0.5246920000000 1.0
C      1  0.5158950000000  0.5526240000000  0.5218470000000 1.0
C      1  0.5268780000000  0.5525860000000  0.4971680000000 1.0
C      1  0.5109750000000  0.5526250000000  0.4753150000000 1.0
C      1  0.4841120000000  0.5525880000000  0.4781430000000 1.0
C      1  0.4731380000000  0.5526260000000  0.5028410000000 1.0
END
