TITL C-26736-6558-193 -0.00143471497859694 125000 -335.262008197686 0 0 60 (C1) n - 1
REM
REM in /home/nfs/bkarasulu/CARBON/AIRSS/Generating-Clusters/AIREBO/Higher-Symm/Only-C60
REM
REM
REM
REM
REM
REM ./C.cell (28575a23ae977d3b5fae324c64b13b57)
REM
REM compiler GCC version 9.2.1 20190827 (Red Hat 9.2.1-1)
REM options -cpp -mtune=generic -march=x86-64 -g -O0 -fpre-include=/usr/include/finclude/math-vector-fortran.h
REM seed 687032258 -1194631420 190973630 -707508612 -1823560914 -2022391104 -1244047009 684636700 -1399544760 1019773402 -1910776899 1997065822 2135892566 -1882255905 -1085302629 -1017619608 -39868269 -652532281 556885459 1962091059 1769385920 -1695039249 250494005 206067349 1997410061 -1484377059 1343456456 -259292230 -1624440504 1673587495 -2031781204 270158643 650974977
REM
CELL 1.54180   50.00000   50.00000   50.00000   90.00000   90.00000   90.00000
LATT -1
SFAC C  
C      1  0.4701510000000  0.4794820000000  0.4399960000000 1.0
C      1  0.4798050000000  0.4695910000000  0.4710940000000 1.0
C      1  0.4767970000000  0.4623070000000  0.5041880000000 1.0
C      1  0.4785420000000  0.4966990000000  0.5543570000000 1.0
C      1  0.4729320000000  0.5221250000000  0.5692120000000 1.0
C      1  0.4829040000000  0.5487830000000  0.5207290000000 1.0
C      1  0.4833730000000  0.5309210000000  0.4692150000000 1.0
C      1  0.5074820000000  0.5764720000000  0.4647100000000 1.0
C      1  0.5311580000000  0.5267700000000  0.4241470000000 1.0
C      1  0.5421310000000  0.4662520000000  0.4306160000000 1.0
C      1  0.5175860000000  0.4289910000000  0.4834040000000 1.0
C      1  0.5259680000000  0.4482840000000  0.5625170000000 1.0
C      1  0.5323190000000  0.5019030000000  0.5775680000000 1.0
C      1  0.5352530000000  0.5583790000000  0.5526460000000 1.0
C      1  0.5532340000000  0.4788550000000  0.5271930000000 1.0
C      1  0.5523670000000  0.5112520000000  0.5309400000000 1.0
C      1  0.5649050000000  0.5306100000000  0.5073380000000 1.0
C      1  0.5664470000000  0.5299660000000  0.4792420000000 1.0
C      1  0.5705830000000  0.5034450000000  0.4603460000000 1.0
C      1  0.5681580000000  0.4753080000000  0.4780920000000 1.0
C      1  0.5539990000000  0.4698580000000  0.5003780000000 1.0
C      1  0.4957950000000  0.4947340000000  0.4236890000000 1.0
C      1  0.4902440000000  0.4458910000000  0.4459120000000 1.0
C      1  0.4715720000000  0.4351910000000  0.4897600000000 1.0
C      1  0.4801330000000  0.4642320000000  0.5627490000000 1.0
C      1  0.4999290000000  0.5357050000000  0.5802840000000 1.0
C      1  0.4883820000000  0.5667110000000  0.5481570000000 1.0
C      1  0.4865910000000  0.5413530000000  0.4366080000000 1.0
C      1  0.4491240000000  0.5024700000000  0.4404460000000 1.0
C      1  0.4637950000000  0.4489090000000  0.4265420000000 1.0
C      1  0.4475090000000  0.4224720000000  0.4916170000000 1.0
C      1  0.4689850000000  0.4713580000000  0.5334930000000 1.0
C      1  0.4533320000000  0.5189380000000  0.5893340000000 1.0
C      1  0.4656670000000  0.5444990000000  0.5488460000000 1.0
C      1  0.4589510000000  0.5269890000000  0.4470750000000 1.0
C      1  0.5134010000000  0.4666560000000  0.4707430000000 1.0
C      1  0.5061590000000  0.4669580000000  0.5198630000000 1.0
C      1  0.5043590000000  0.4960250000000  0.5353520000000 1.0
C      1  0.5021040000000  0.5148780000000  0.5117710000000 1.0
C      1  0.5137320000000  0.5458440000000  0.5086330000000 1.0
C      1  0.5163750000000  0.5290080000000  0.4612220000000 1.0
C      1  0.5041620000000  0.4974250000000  0.4629600000000 1.0
C      1  0.5181870000000  0.5192320000000  0.5934330000000 1.0
C      1  0.5094210000000  0.5575190000000  0.5647160000000 1.0
C      1  0.4939990000000  0.5715290000000  0.4409010000000 1.0
C      1  0.5042690000000  0.5219560000000  0.4211630000000 1.0
C      1  0.5116450000000  0.4699810000000  0.4376230000000 1.0
C      1  0.4924300000000  0.4299910000000  0.4719280000000 1.0
C      1  0.5005010000000  0.4490630000000  0.5733770000000 1.0
C      1  0.5269120000000  0.4570450000000  0.4961710000000 1.0
C      1  0.5322110000000  0.4632410000000  0.5395030000000 1.0
C      1  0.5301700000000  0.5015750000000  0.5506650000000 1.0
C      1  0.5397790000000  0.5427910000000  0.5260900000000 1.0
C      1  0.5137970000000  0.5546420000000  0.4796230000000 1.0
C      1  0.5463680000000  0.5244980000000  0.4526820000000 1.0
C      1  0.5609290000000  0.4746590000000  0.4473230000000 1.0
C      1  0.4238020000000  0.5072280000000  0.5015150000000 1.0
C      1  0.4757830000000  0.5273950000000  0.4975900000000 1.0
C      1  0.4471210000000  0.5175520000000  0.5003360000000 1.0
C      1  0.5164980000000  0.5014390000000  0.4901530000000 1.0
END
