TITL C-26736-6558-44 0.000629411441113841 125000 -314.516374706519 0 0 60 (C1) n - 1
REM
REM in /home/nfs/bkarasulu/CARBON/AIRSS/Generating-Clusters/AIREBO/Higher-Symm/Only-C60
REM
REM
REM
REM
REM
REM ./C.cell (28575a23ae977d3b5fae324c64b13b57)
REM
REM compiler GCC version 9.2.1 20190827 (Red Hat 9.2.1-1)
REM options -cpp -mtune=generic -march=x86-64 -g -O0 -fpre-include=/usr/include/finclude/math-vector-fortran.h
REM seed 714862101 -1452528430 1751328388 393259966 1662971525 -87529741 2090095561 1046789491 -1014452831 459424528 -1427013087 240759077 784964064 1744350399 -1510675815 361009277 -794943249 1037134942 -1400944773 316196010 -1532359468 -360081002 -646258688 -194854251 -1126826006 -1712018056 -1868680269 -474614126 1075856166 1980595153 -1803045756 320777818 772958762
REM
CELL 1.54180   50.00000   50.00000   50.00000   90.00000   90.00000   90.00000
LATT -1
SFAC C  
C      1  0.4496340000000  0.4670090000000  0.4923900000000 1.0
C      1  0.5481970000000  0.5769450000000  0.5133440000000 1.0
C      1  0.5457180000000  0.5466190000000  0.5523360000000 1.0
C      1  0.5605210000000  0.5467120000000  0.4906410000000 1.0
C      1  0.4988910000000  0.5633520000000  0.5386700000000 1.0
C      1  0.5508950000000  0.5451620000000  0.5218730000000 1.0
C      1  0.4940790000000  0.4626880000000  0.4591750000000 1.0
C      1  0.5010180000000  0.5169900000000  0.4872020000000 1.0
C      1  0.4626000000000  0.5257890000000  0.5266570000000 1.0
C      1  0.4284450000000  0.5088190000000  0.5070680000000 1.0
C      1  0.4496850000000  0.4994650000000  0.4822000000000 1.0
C      1  0.5017160000000  0.5322660000000  0.5768610000000 1.0
C      1  0.5246420000000  0.5826660000000  0.5052750000000 1.0
C      1  0.4671940000000  0.5540600000000  0.5402470000000 1.0
C      1  0.4943440000000  0.5181560000000  0.4370120000000 1.0
C      1  0.5170890000000  0.4996300000000  0.4298460000000 1.0
C      1  0.4987450000000  0.5049990000000  0.5645210000000 1.0
C      1  0.4904080000000  0.4406930000000  0.5120400000000 1.0
C      1  0.5409110000000  0.5385190000000  0.4738230000000 1.0
C      1  0.4752920000000  0.5071180000000  0.5032180000000 1.0
C      1  0.4476240000000  0.4668260000000  0.5243370000000 1.0
C      1  0.4682540000000  0.5052290000000  0.4337140000000 1.0
C      1  0.5378530000000  0.4936010000000  0.4459770000000 1.0
C      1  0.5408200000000  0.4859960000000  0.5435990000000 1.0
C      1  0.5497040000000  0.4661030000000  0.4980520000000 1.0
C      1  0.5318840000000  0.4456880000000  0.4775010000000 1.0
C      1  0.5044240000000  0.5555320000000  0.5060330000000 1.0
C      1  0.5099240000000  0.4633670000000  0.4958740000000 1.0
C      1  0.5097370000000  0.5102260000000  0.5349970000000 1.0
C      1  0.5376240000000  0.5089940000000  0.4736420000000 1.0
C      1  0.5403660000000  0.4536980000000  0.4469620000000 1.0
C      1  0.4985480000000  0.4884090000000  0.5148090000000 1.0
C      1  0.4470040000000  0.5323380000000  0.4905490000000 1.0
C      1  0.5162040000000  0.4598240000000  0.4333970000000 1.0
C      1  0.4681160000000  0.4597470000000  0.4374140000000 1.0
C      1  0.5011150000000  0.4324230000000  0.4730120000000 1.0
C      1  0.5560040000000  0.4747100000000  0.4647730000000 1.0
C      1  0.4612630000000  0.4370810000000  0.5202770000000 1.0
C      1  0.5188350000000  0.4801630000000  0.5595910000000 1.0
C      1  0.4722860000000  0.5468540000000  0.5017830000000 1.0
C      1  0.4487170000000  0.4966140000000  0.4510150000000 1.0
C      1  0.4972390000000  0.5340050000000  0.4596140000000 1.0
C      1  0.5629400000000  0.4916010000000  0.5257470000000 1.0
C      1  0.4297490000000  0.4572430000000  0.4686890000000 1.0
C      1  0.4725010000000  0.4673140000000  0.5472060000000 1.0
C      1  0.5344950000000  0.4514300000000  0.5247130000000 1.0
C      1  0.4815040000000  0.5538710000000  0.5682650000000 1.0
C      1  0.5803520000000  0.4711820000000  0.5126330000000 1.0
C      1  0.5155540000000  0.5517690000000  0.4741190000000 1.0
C      1  0.5103610000000  0.4886400000000  0.4745650000000 1.0
C      1  0.4708510000000  0.4925110000000  0.5614000000000 1.0
C      1  0.4425220000000  0.4691090000000  0.4455520000000 1.0
C      1  0.4336830000000  0.4939390000000  0.5307360000000 1.0
C      1  0.4909420000000  0.4802840000000  0.4234310000000 1.0
C      1  0.5038460000000  0.4617550000000  0.5352440000000 1.0
C      1  0.5240140000000  0.5279560000000  0.5097410000000 1.0
C      1  0.5199800000000  0.5495530000000  0.5598050000000 1.0
C      1  0.4513150000000  0.5084350000000  0.5491500000000 1.0
C      1  0.4740720000000  0.4508800000000  0.4840120000000 1.0
C      1  0.5377490000000  0.4974390000000  0.5036700000000 1.0
END
