TITL C-26730-8313-71 0.000248073466798502 125000 -314.973127908626 0 0 60 (C1) n - 1
REM
REM in /home/nfs/bkarasulu/CARBON/AIRSS/Generating-Clusters/AIREBO/Higher-Symm/Only-C60
REM
REM
REM
REM
REM
REM ./C.cell (28575a23ae977d3b5fae324c64b13b57)
REM
REM compiler GCC version 9.2.1 20190827 (Red Hat 9.2.1-1)
REM options -cpp -mtune=generic -march=x86-64 -g -O0 -fpre-include=/usr/include/finclude/math-vector-fortran.h
REM seed -890881026 -515914911 188684019 -2146168265 1966839356 1584192131 1811356269 306876350 -1102027879 519461505 -1577194348 35220604 -835881051 1172866369 1929142107 -1032803680 1534011900 1859270356 -77155393 -862984354 -705277592 488315504 -762968583 -947443600 145707449 1208664889 1943787435 -1574780168 616230181 1835752527 -29582015 -597210539 -736939946
REM
CELL 1.54180   50.00000   50.00000   50.00000   90.00000   90.00000   90.00000
LATT -1
SFAC C  
C      1  0.4756720000000  0.5163410000000  0.4712840000000 1.0
C      1  0.5235060000000  0.4984810000000  0.4752220000000 1.0
C      1  0.4693710000000  0.4891790000000  0.5148130000000 1.0
C      1  0.5231400000000  0.5104940000000  0.5340720000000 1.0
C      1  0.5258270000000  0.5223060000000  0.5824390000000 1.0
C      1  0.4673700000000  0.4828070000000  0.5645780000000 1.0
C      1  0.5292130000000  0.4862850000000  0.4377010000000 1.0
C      1  0.4731090000000  0.5133120000000  0.4159100000000 1.0
C      1  0.5438520000000  0.5195740000000  0.5014430000000 1.0
C      1  0.4475750000000  0.4661450000000  0.5041900000000 1.0
C      1  0.5368590000000  0.4728700000000  0.4932170000000 1.0
C      1  0.4564280000000  0.5251250000000  0.5051480000000 1.0
C      1  0.5042450000000  0.5575900000000  0.4862650000000 1.0
C      1  0.5119670000000  0.4268450000000  0.4859820000000 1.0
C      1  0.4947390000000  0.4352540000000  0.5104030000000 1.0
C      1  0.5159740000000  0.5674730000000  0.5132810000000 1.0
C      1  0.4993810000000  0.4194250000000  0.5332920000000 1.0
C      1  0.5121540000000  0.5899260000000  0.5256430000000 1.0
C      1  0.5070960000000  0.5763280000000  0.4624530000000 1.0
C      1  0.5035300000000  0.4066400000000  0.4696360000000 1.0
C      1  0.5096470000000  0.4653640000000  0.5121170000000 1.0
C      1  0.4882390000000  0.5174520000000  0.5144720000000 1.0
C      1  0.5114130000000  0.5249900000000  0.4927520000000 1.0
C      1  0.4856940000000  0.4726190000000  0.4939930000000 1.0
C      1  0.5360180000000  0.4397730000000  0.4854430000000 1.0
C      1  0.4763010000000  0.5455740000000  0.4887510000000 1.0
C      1  0.5310750000000  0.5417650000000  0.5231230000000 1.0
C      1  0.4658780000000  0.4375080000000  0.5029840000000 1.0
C      1  0.5543970000000  0.5405460000000  0.4447590000000 1.0
C      1  0.4402130000000  0.4791330000000  0.4511050000000 1.0
C      1  0.5496230000000  0.4824440000000  0.5454000000000 1.0
C      1  0.4403570000000  0.5209230000000  0.5498010000000 1.0
C      1  0.5524450000000  0.4907060000000  0.4610400000000 1.0
C      1  0.4463890000000  0.5102510000000  0.4591410000000 1.0
C      1  0.5566880000000  0.5138590000000  0.5385150000000 1.0
C      1  0.4471900000000  0.4892080000000  0.5385480000000 1.0
C      1  0.4467640000000  0.4339090000000  0.4809190000000 1.0
C      1  0.5434450000000  0.5499230000000  0.4915600000000 1.0
C      1  0.4573420000000  0.5634600000000  0.5113190000000 1.0
C      1  0.5555660000000  0.4412080000000  0.5086160000000 1.0
C      1  0.4947230000000  0.5257080000000  0.4289230000000 1.0
C      1  0.5039140000000  0.4775670000000  0.4469540000000 1.0
C      1  0.4933790000000  0.4764480000000  0.5576090000000 1.0
C      1  0.5053410000000  0.5367370000000  0.5697420000000 1.0
C      1  0.4983570000000  0.5284760000000  0.5447350000000 1.0
C      1  0.5102620000000  0.4823000000000  0.5371420000000 1.0
C      1  0.4867230000000  0.4842570000000  0.4689470000000 1.0
C      1  0.5037170000000  0.5168290000000  0.4544810000000 1.0
C      1  0.4387800000000  0.4613820000000  0.4712040000000 1.0
C      1  0.5553300000000  0.5555790000000  0.4682050000000 1.0
C      1  0.4476630000000  0.5403300000000  0.5320760000000 1.0
C      1  0.5507570000000  0.4667500000000  0.5239910000000 1.0
C      1  0.4231380000000  0.4701630000000  0.5265610000000 1.0
C      1  0.5752200000000  0.5146480000000  0.5112530000000 1.0
C      1  0.4334490000000  0.5186370000000  0.4859440000000 1.0
C      1  0.5692490000000  0.4740240000000  0.4814260000000 1.0
C      1  0.5436880000000  0.5064760000000  0.5681110000000 1.0
C      1  0.4500220000000  0.5058390000000  0.5744990000000 1.0
C      1  0.5489460000000  0.5139880000000  0.4381030000000 1.0
C      1  0.4516490000000  0.5008500000000  0.4287670000000 1.0
END
