TITL C-26726-4881-158 -0.000185937121900211 125000 -320.550918460778 0 0 60 (Ci) n - 1
REM
REM in /home/nfs/bkarasulu/CARBON/AIRSS/Generating-Clusters/AIREBO/Higher-Symm/Only-C60
REM
REM
REM
REM
REM
REM ./C.cell (28575a23ae977d3b5fae324c64b13b57)
REM
REM compiler GCC version 9.2.1 20190827 (Red Hat 9.2.1-1)
REM options -cpp -mtune=generic -march=x86-64 -g -O0 -fpre-include=/usr/include/finclude/math-vector-fortran.h
REM seed -100151257 -1124759407 -1218181775 -1736017203 -662495274 1682144673 1053766589 1005364186 154932513 -82784 1536048664 -1238115663 -567628523 1907221385 1757208231 830544628 1372487591 656116056 -602303291 1297785928 574111405 795339212 -345339808 170181768 -150683643 -1124500677 1715751770 -816370418 -440096884 1236627555 725738948 -2010287327 1991031130
REM
CELL 1.54180   50.00000   50.00000   50.00000   90.00000   90.00000   90.00000
LATT -1
SFAC C  
C      1  0.5512340000000  0.5282440000000  0.4869920000000 1.0
C      1  0.4428600000000  0.5425790000000  0.5110580000000 1.0
C      1  0.5474060000000  0.5239710000000  0.5313840000000 1.0
C      1  0.4539220000000  0.5077730000000  0.5410890000000 1.0
C      1  0.5575700000000  0.4747950000000  0.5344900000000 1.0
C      1  0.4487660000000  0.4717560000000  0.5130080000000 1.0
C      1  0.5571400000000  0.4574210000000  0.4889420000000 1.0
C      1  0.4525940000000  0.4760290000000  0.4686160000000 1.0
C      1  0.5460780000000  0.4922270000000  0.4589110000000 1.0
C      1  0.4424300000000  0.5252050000000  0.4655100000000 1.0
C      1  0.5282990000000  0.4667980000000  0.5041370000000 1.0
C      1  0.4846410000000  0.4841560000000  0.4766100000000 1.0
C      1  0.5185670000000  0.4862290000000  0.4779860000000 1.0
C      1  0.4740940000000  0.5137430000000  0.4702170000000 1.0
C      1  0.5188390000000  0.5182160000000  0.4896120000000 1.0
C      1  0.4717010000000  0.5332020000000  0.4958630000000 1.0
C      1  0.5153590000000  0.5158440000000  0.5233900000000 1.0
C      1  0.4814330000000  0.5137710000000  0.5220140000000 1.0
C      1  0.5259060000000  0.4862570000000  0.5297830000000 1.0
C      1  0.4811610000000  0.4817840000000  0.5103880000000 1.0
C      1  0.5566580000000  0.5021560000000  0.5494270000000 1.0
C      1  0.4471670000000  0.4804380000000  0.5404610000000 1.0
C      1  0.5618680000000  0.4511230000000  0.5187820000000 1.0
C      1  0.4458640000000  0.4568420000000  0.4886080000000 1.0
C      1  0.5554150000000  0.4646340000000  0.4616670000000 1.0
C      1  0.4433420000000  0.4978440000000  0.4505730000000 1.0
C      1  0.5528330000000  0.5195620000000  0.4595390000000 1.0
C      1  0.4381320000000  0.5488770000000  0.4812180000000 1.0
C      1  0.5541360000000  0.5431580000000  0.5113920000000 1.0
C      1  0.4445850000000  0.5353660000000  0.5383330000000 1.0
C      1  0.5115330000000  0.5254460000000  0.5558050000000 1.0
C      1  0.4869570000000  0.4786480000000  0.5437620000000 1.0
C      1  0.5178590000000  0.4552280000000  0.5347550000000 1.0
C      1  0.4873520000000  0.4483330000000  0.5104740000000 1.0
C      1  0.5150010000000  0.4545280000000  0.4661830000000 1.0
C      1  0.4884670000000  0.4745540000000  0.4441950000000 1.0
C      1  0.5130430000000  0.5213520000000  0.4562380000000 1.0
C      1  0.4821410000000  0.5447720000000  0.4652450000000 1.0
C      1  0.5126480000000  0.5516670000000  0.4895260000000 1.0
C      1  0.4849990000000  0.5454720000000  0.5338170000000 1.0
C      1  0.4904310000000  0.5462040000000  0.5668110000000 1.0
C      1  0.5040370000000  0.4944180000000  0.5619400000000 1.0
C      1  0.4907160000000  0.4462490000000  0.5520030000000 1.0
C      1  0.5158840000000  0.4299800000000  0.5132270000000 1.0
C      1  0.4968970000000  0.4374540000000  0.4810080000000 1.0
C      1  0.5095690000000  0.4537960000000  0.4331890000000 1.0
C      1  0.4959630000000  0.5055820000000  0.4380600000000 1.0
C      1  0.5092840000000  0.5537510000000  0.4479970000000 1.0
C      1  0.4841160000000  0.5700200000000  0.4867730000000 1.0
C      1  0.5031030000000  0.5625460000000  0.5189920000000 1.0
C      1  0.4605790000000  0.5533830000000  0.5562710000000 1.0
C      1  0.5344790000000  0.5037840000000  0.5685670000000 1.0
C      1  0.4621370000000  0.4612190000000  0.5587830000000 1.0
C      1  0.5444660000000  0.4277560000000  0.5234500000000 1.0
C      1  0.4648980000000  0.4346530000000  0.4889340000000 1.0
C      1  0.5394210000000  0.4466170000000  0.4437290000000 1.0
C      1  0.4655210000000  0.4962160000000  0.4314330000000 1.0
C      1  0.5378630000000  0.5387810000000  0.4412170000000 1.0
C      1  0.4555340000000  0.5722440000000  0.4765500000000 1.0
C      1  0.5351020000000  0.5653470000000  0.5110660000000 1.0
END
