TITL C-26727-7196-144 -0.000226323881805241 125000 -317.3793302285 0 0 60 (C1) n - 1
REM
REM in /home/nfs/bkarasulu/CARBON/AIRSS/Generating-Clusters/AIREBO/Higher-Symm/Only-C60
REM
REM
REM
REM
REM
REM ./C.cell (28575a23ae977d3b5fae324c64b13b57)
REM
REM compiler GCC version 9.2.1 20190827 (Red Hat 9.2.1-1)
REM options -cpp -mtune=generic -march=x86-64 -g -O0 -fpre-include=/usr/include/finclude/math-vector-fortran.h
REM seed 690075255 1753822724 456868387 -1891398054 -613902276 439938814 756227211 1509333222 -685742141 1032606424 -298234046 2046551089 6560248 -1839938676 544777461 -673559569 -841636449 -510523727 1308351942 1883429712 -1278472083 403296133 1312052884 1423415095 -1660798102 -653006734 274178868 1203483395 -830726223 -1605057430 1336775043 -2059855238 -470452290
REM
CELL 1.54180   50.00000   50.00000   50.00000   90.00000   90.00000   90.00000
LATT -1
SFAC C  
C      1  0.5622950000000  0.4975200000000  0.4572200000000 1.0
C      1  0.4578120000000  0.5641040000000  0.4944040000000 1.0
C      1  0.4944620000000  0.4574790000000  0.5652920000000 1.0
C      1  0.4321850000000  0.5032190000000  0.4575970000000 1.0
C      1  0.4357730000000  0.4969530000000  0.5414390000000 1.0
C      1  0.5645430000000  0.5036580000000  0.5432260000000 1.0
C      1  0.5427540000000  0.4354360000000  0.4940800000000 1.0
C      1  0.5425210000000  0.5633110000000  0.5049720000000 1.0
C      1  0.4581600000000  0.4365710000000  0.5035850000000 1.0
C      1  0.5044440000000  0.5431440000000  0.5651670000000 1.0
C      1  0.5056250000000  0.4573880000000  0.4301910000000 1.0
C      1  0.4921340000000  0.5424730000000  0.4301850000000 1.0
C      1  0.4949850000000  0.5636950000000  0.4566340000000 1.0
C      1  0.5689520000000  0.4570560000000  0.4915070000000 1.0
C      1  0.4561900000000  0.4943840000000  0.5682600000000 1.0
C      1  0.5047430000000  0.4363330000000  0.4569540000000 1.0
C      1  0.4922760000000  0.4313540000000  0.5433020000000 1.0
C      1  0.5067450000000  0.5691650000000  0.5431320000000 1.0
C      1  0.4312530000000  0.5427730000000  0.4932120000000 1.0
C      1  0.5693630000000  0.5424950000000  0.5074250000000 1.0
C      1  0.4311230000000  0.4571570000000  0.5057420000000 1.0
C      1  0.5432830000000  0.5068350000000  0.5696630000000 1.0
C      1  0.4580210000000  0.5020140000000  0.4380280000000 1.0
C      1  0.5417440000000  0.4963940000000  0.4301530000000 1.0
C      1  0.4987560000000  0.5197900000000  0.5426780000000 1.0
C      1  0.5422520000000  0.4986770000000  0.5201320000000 1.0
C      1  0.5201540000000  0.5401670000000  0.5028000000000 1.0
C      1  0.5013790000000  0.4803930000000  0.5426340000000 1.0
C      1  0.5016920000000  0.5243220000000  0.4552180000000 1.0
C      1  0.5011800000000  0.4760940000000  0.4561280000000 1.0
C      1  0.4585250000000  0.5005870000000  0.5175410000000 1.0
C      1  0.4580480000000  0.5002150000000  0.4777490000000 1.0
C      1  0.5399250000000  0.4998660000000  0.4806600000000 1.0
C      1  0.4807010000000  0.4599930000000  0.5018780000000 1.0
C      1  0.4805510000000  0.5418670000000  0.5013340000000 1.0
C      1  0.5203310000000  0.4570020000000  0.5029560000000 1.0
C      1  0.5247780000000  0.5003850000000  0.5441890000000 1.0
C      1  0.4993550000000  0.5436190000000  0.5256770000000 1.0
C      1  0.5440320000000  0.5235960000000  0.5006800000000 1.0
C      1  0.4754360000000  0.4995520000000  0.5427790000000 1.0
C      1  0.5225150000000  0.5001830000000  0.4560440000000 1.0
C      1  0.4828630000000  0.5000420000000  0.4595050000000 1.0
C      1  0.5004370000000  0.4565500000000  0.5259430000000 1.0
C      1  0.5003830000000  0.4589300000000  0.4796130000000 1.0
C      1  0.5024450000000  0.5417020000000  0.4789510000000 1.0
C      1  0.4562360000000  0.4761310000000  0.4986550000000 1.0
C      1  0.5436890000000  0.4747990000000  0.5007550000000 1.0
C      1  0.4570360000000  0.5245090000000  0.4990740000000 1.0
C      1  0.4864490000000  0.5101840000000  0.4211730000000 1.0
C      1  0.4208880000000  0.4890110000000  0.5119080000000 1.0
C      1  0.5101250000000  0.4894830000000  0.4197030000000 1.0
C      1  0.4878410000000  0.4881880000000  0.5790310000000 1.0
C      1  0.4211620000000  0.5104880000000  0.4889300000000 1.0
C      1  0.4881140000000  0.5780120000000  0.4867250000000 1.0
C      1  0.5123070000000  0.4216500000000  0.4867000000000 1.0
C      1  0.4880340000000  0.4219080000000  0.5106990000000 1.0
C      1  0.5122630000000  0.5782800000000  0.5108130000000 1.0
C      1  0.5113270000000  0.5128640000000  0.5796230000000 1.0
C      1  0.5795120000000  0.5105600000000  0.5132140000000 1.0
C      1  0.5778890000000  0.4894900000000  0.4865360000000 1.0
END
