TITL C-26730-8313-18 -0.000451908891014353 125000 -323.503699198244 0 0 60 (C1) n - 1
REM
REM in /home/nfs/bkarasulu/CARBON/AIRSS/Generating-Clusters/AIREBO/Higher-Symm/Only-C60
REM
REM
REM
REM
REM
REM ./C.cell (28575a23ae977d3b5fae324c64b13b57)
REM
REM compiler GCC version 9.2.1 20190827 (Red Hat 9.2.1-1)
REM options -cpp -mtune=generic -march=x86-64 -g -O0 -fpre-include=/usr/include/finclude/math-vector-fortran.h
REM seed 754856354 1107905757 1527745391 -1275395073 -1040100614 473423155 1333410550 -577140899 -1451838363 2086447321 -1444332789 -1047953989 -1835417406 -615143781 -1382300966 -1451840470 318692164 -1786054043 -159799934 -756551242 -2125966656 -1374700521 1647069479 -316496992 1023735534 -1053108540 -670189027 313644670 412112026 -1099189277 1138775331 -823379713 -111267903
REM
CELL 1.54180   50.00000   50.00000   50.00000   90.00000   90.00000   90.00000
LATT -1
SFAC C  
C      1  0.5153200000000  0.5488330000000  0.5172110000000 1.0
C      1  0.5526900000000  0.5115770000000  0.5094950000000 1.0
C      1  0.5355910000000  0.5290380000000  0.5330490000000 1.0
C      1  0.4808580000000  0.4550810000000  0.5274230000000 1.0
C      1  0.5042590000000  0.4543370000000  0.4845910000000 1.0
C      1  0.4837890000000  0.5481110000000  0.4750350000000 1.0
C      1  0.4458140000000  0.4734300000000  0.5215990000000 1.0
C      1  0.5498320000000  0.4752220000000  0.4755520000000 1.0
C      1  0.4453500000000  0.5184910000000  0.4824980000000 1.0
C      1  0.4716780000000  0.4868780000000  0.5346060000000 1.0
C      1  0.5271380000000  0.4647460000000  0.4648070000000 1.0
C      1  0.4710790000000  0.5186300000000  0.4659540000000 1.0
C      1  0.5118090000000  0.5501660000000  0.4849920000000 1.0
C      1  0.5580060000000  0.5287620000000  0.4847950000000 1.0
C      1  0.5321100000000  0.5344340000000  0.4683930000000 1.0
C      1  0.4749560000000  0.4646730000000  0.4768740000000 1.0
C      1  0.5089090000000  0.4523940000000  0.5164130000000 1.0
C      1  0.4878390000000  0.5480450000000  0.5282060000000 1.0
C      1  0.4453690000000  0.4615780000000  0.4933510000000 1.0
C      1  0.5520560000000  0.4774640000000  0.5088000000000 1.0
C      1  0.4436990000000  0.5271370000000  0.5123630000000 1.0
C      1  0.4759600000000  0.4880840000000  0.4581510000000 1.0
C      1  0.5271980000000  0.4728690000000  0.5288230000000 1.0
C      1  0.4701050000000  0.5190700000000  0.5299510000000 1.0
C      1  0.4889210000000  0.4800460000000  0.5592140000000 1.0
C      1  0.4658530000000  0.5664810000000  0.4870120000000 1.0
C      1  0.5706780000000  0.4861550000000  0.4618200000000 1.0
C      1  0.5182450000000  0.5324290000000  0.5577180000000 1.0
C      1  0.4901430000000  0.5279230000000  0.4418070000000 1.0
C      1  0.5182900000000  0.4686250000000  0.4392550000000 1.0
C      1  0.5295650000000  0.4327930000000  0.4885710000000 1.0
C      1  0.4646270000000  0.4354950000000  0.5166790000000 1.0
C      1  0.5442610000000  0.5662100000000  0.5214250000000 1.0
C      1  0.4245730000000  0.5044300000000  0.4721340000000 1.0
C      1  0.5668220000000  0.5181580000000  0.5383430000000 1.0
C      1  0.4224000000000  0.4846460000000  0.5304310000000 1.0
C      1  0.4901330000000  0.4825180000000  0.4354120000000 1.0
C      1  0.4707330000000  0.5693960000000  0.5188390000000 1.0
C      1  0.5802610000000  0.4759750000000  0.5277390000000 1.0
C      1  0.5221730000000  0.5294920000000  0.4437380000000 1.0
C      1  0.4859940000000  0.5255750000000  0.5583480000000 1.0
C      1  0.5201140000000  0.4775180000000  0.5544630000000 1.0
C      1  0.5297370000000  0.4258910000000  0.5207920000000 1.0
C      1  0.4701380000000  0.4319390000000  0.4847030000000 1.0
C      1  0.5334450000000  0.5733180000000  0.4914540000000 1.0
C      1  0.4199440000000  0.5153760000000  0.5256370000000 1.0
C      1  0.5784390000000  0.5161590000000  0.4678580000000 1.0
C      1  0.4236930000000  0.4734960000000  0.4770090000000 1.0
C      1  0.3994920000000  0.5012590000000  0.5465610000000 1.0
C      1  0.5953500000000  0.4996450000000  0.4457710000000 1.0
C      1  0.5617160000000  0.5580130000000  0.4951500000000 1.0
C      1  0.4396010000000  0.4281390000000  0.4963110000000 1.0
C      1  0.5542240000000  0.4435920000000  0.5067450000000 1.0
C      1  0.4434790000000  0.5575390000000  0.5084290000000 1.0
C      1  0.5016140000000  0.5387110000000  0.5839700000000 1.0
C      1  0.5834060000000  0.4978360000000  0.5447160000000 1.0
C      1  0.5078830000000  0.4732870000000  0.5844160000000 1.0
C      1  0.5052670000000  0.4698720000000  0.4094410000000 1.0
C      1  0.5072180000000  0.5358760000000  0.4155680000000 1.0
C      1  0.4001540000000  0.4871370000000  0.4595880000000 1.0
END
