TITL C-26728-8286-208 0.00335679319834015 125000 -320.717356497055 0 0 60 (C1) n - 1
REM
REM in /home/nfs/bkarasulu/CARBON/AIRSS/Generating-Clusters/AIREBO/Higher-Symm/Only-C60
REM
REM
REM
REM
REM
REM ./C.cell (28575a23ae977d3b5fae324c64b13b57)
REM
REM compiler GCC version 9.2.1 20190827 (Red Hat 9.2.1-1)
REM options -cpp -mtune=generic -march=x86-64 -g -O0 -fpre-include=/usr/include/finclude/math-vector-fortran.h
REM seed 1965588254 -18652389 236876063 -1697336635 944047430 1401449468 -1462638365 358299291 1099290253 866842451 1724778635 1896420646 291855672 2080104803 -1283267779 278647726 -2091170023 421549997 -813977949 1232545584 -344840119 -838676463 -608416874 62110011 771564541 936920195 -664161344 150894768 1573785407 1180178351 1277714728 -998713677 -1699603993
REM
CELL 1.54180   50.00000   50.00000   50.00000   90.00000   90.00000   90.00000
LATT -1
SFAC C  
C      1  0.4979030000000  0.4745320000000  0.5500800000000 1.0
C      1  0.4846340000000  0.5030470000000  0.4890010000000 1.0
C      1  0.5115350000000  0.4484550000000  0.4794220000000 1.0
C      1  0.4746810000000  0.4758870000000  0.5004120000000 1.0
C      1  0.4723970000000  0.5284130000000  0.5081390000000 1.0
C      1  0.4181650000000  0.4760720000000  0.5138830000000 1.0
C      1  0.4853740000000  0.5554480000000  0.5000240000000 1.0
C      1  0.5127040000000  0.5671380000000  0.4526630000000 1.0
C      1  0.4912820000000  0.5755750000000  0.4751610000000 1.0
C      1  0.4864720000000  0.5280550000000  0.5390960000000 1.0
C      1  0.5581260000000  0.5247180000000  0.4631780000000 1.0
C      1  0.4459620000000  0.4636640000000  0.5034430000000 1.0
C      1  0.4458450000000  0.4757100000000  0.4338450000000 1.0
C      1  0.5200670000000  0.5386220000000  0.4689980000000 1.0
C      1  0.4589160000000  0.4389340000000  0.4911810000000 1.0
C      1  0.4435510000000  0.5020350000000  0.5467270000000 1.0
C      1  0.4815010000000  0.5027970000000  0.5588420000000 1.0
C      1  0.5197240000000  0.4914370000000  0.5688240000000 1.0
C      1  0.4775260000000  0.4257230000000  0.5101650000000 1.0
C      1  0.4385000000000  0.4641130000000  0.5361190000000 1.0
C      1  0.5107650000000  0.5780060000000  0.5020380000000 1.0
C      1  0.5120140000000  0.4604300000000  0.5285740000000 1.0
C      1  0.4202100000000  0.5181270000000  0.4895660000000 1.0
C      1  0.4862650000000  0.4939490000000  0.4587700000000 1.0
C      1  0.5503300000000  0.5491810000000  0.4782450000000 1.0
C      1  0.5302400000000  0.4374610000000  0.5128760000000 1.0
C      1  0.5393100000000  0.4756470000000  0.5177890000000 1.0
C      1  0.5108830000000  0.5211780000000  0.4942450000000 1.0
C      1  0.5252150000000  0.5480940000000  0.5092920000000 1.0
C      1  0.4065940000000  0.4981470000000  0.5024040000000 1.0
C      1  0.4425650000000  0.5329880000000  0.4924670000000 1.0
C      1  0.5360440000000  0.4843220000000  0.4443040000000 1.0
C      1  0.4952420000000  0.4264940000000  0.4589580000000 1.0
C      1  0.4739670000000  0.5756370000000  0.4484760000000 1.0
C      1  0.5578260000000  0.5020740000000  0.4805100000000 1.0
C      1  0.5137730000000  0.5107910000000  0.5414510000000 1.0
C      1  0.5411270000000  0.5273590000000  0.5299060000000 1.0
C      1  0.5399010000000  0.4590500000000  0.4881160000000 1.0
C      1  0.4815970000000  0.4020770000000  0.5221230000000 1.0
C      1  0.4676480000000  0.4697790000000  0.4494690000000 1.0
C      1  0.4846160000000  0.5528760000000  0.5521820000000 1.0
C      1  0.5576390000000  0.4814490000000  0.5418080000000 1.0
C      1  0.4799280000000  0.5567390000000  0.4322570000000 1.0
C      1  0.4994860000000  0.4578010000000  0.4491460000000 1.0
C      1  0.4677520000000  0.4408250000000  0.4653340000000 1.0
C      1  0.5359820000000  0.5392000000000  0.5613610000000 1.0
C      1  0.5431840000000  0.5733210000000  0.4944920000000 1.0
C      1  0.5385340000000  0.5049490000000  0.5041800000000 1.0
C      1  0.5253830000000  0.5227470000000  0.5777500000000 1.0
C      1  0.5510860000000  0.4777020000000  0.4676460000000 1.0
C      1  0.5411710000000  0.5198980000000  0.4410330000000 1.0
C      1  0.5207920000000  0.5151210000000  0.4167230000000 1.0
C      1  0.5669950000000  0.5075160000000  0.5390090000000 1.0
C      1  0.5457330000000  0.4756830000000  0.5666960000000 1.0
C      1  0.5066280000000  0.5378840000000  0.4374740000000 1.0
C      1  0.5549830000000  0.4593230000000  0.5864140000000 1.0
C      1  0.4476940000000  0.5198560000000  0.5298910000000 1.0
C      1  0.4637720000000  0.4751270000000  0.5515440000000 1.0
C      1  0.5081060000000  0.4982080000000  0.4420970000000 1.0
C      1  0.4941520000000  0.4526100000000  0.5041830000000 1.0
END
