TITL C-26740-8352-28 7.0866663622577 125000 -315.15325217663 0 0 60 (C1) n - 1
REM
REM in /home/nfs/bkarasulu/CARBON/AIRSS/Generating-Clusters/AIREBO/Higher-Symm/Only-C60
REM
REM
REM
REM
REM
REM ./C.cell (28575a23ae977d3b5fae324c64b13b57)
REM
REM compiler GCC version 9.2.1 20190827 (Red Hat 9.2.1-1)
REM options -cpp -mtune=generic -march=x86-64 -g -O0 -fpre-include=/usr/include/finclude/math-vector-fortran.h
REM seed -865857211 -515867457 1674059991 89589266 -787722776 -857584667 1491537841 -276112003 778308251 229643593 52114871 1881310833 -669706407 1808037126 -1812139516 -1355697978 801703039 -185732075 -453992154 -954754736 1467801652 -1612018148 -619245098 1317234049 1406258412 825639299 2044813764 133608772 69030439 265592944 -200325486 -179817267 -333135557
REM
CELL 1.54180   50.00000   50.00000   50.00000   90.00000   90.00000   90.00000
LATT -1
SFAC C  
C      1  0.5470660000000  0.5533590000000  0.5041880000000 1.0
C      1  0.5274060000000  0.4412570000000  0.5631300000000 1.0
C      1  0.4551480000000  0.4809960000000  0.5161660000000 1.0
C      1  0.4680350000000  0.5181540000000  0.4586790000000 1.0
C      1  0.5129530000000  0.5136420000000  0.5221720000000 1.0
C      1  0.4561460000000  0.4712480000000  0.4686060000000 1.0
C      1  0.5293510000000  0.5127050000000  0.5769660000000 1.0
C      1  0.4800130000000  0.4774980000000  0.5653130000000 1.0
C      1  0.4994360000000  0.5001060000000  0.4361100000000 1.0
C      1  0.5148020000000  0.4727790000000  0.4295090000000 1.0
C      1  0.4821830000000  0.4995010000000  0.5252940000000 1.0
C      1  0.5114980000000  0.4403100000000  0.4689720000000 1.0
C      1  0.4422710000000  0.4969830000000  0.5504450000000 1.0
C      1  0.5432950000000  0.5273740000000  0.5259620000000 1.0
C      1  0.5100260000000  0.4741600000000  0.4718540000000 1.0
C      1  0.4741390000000  0.4557260000000  0.4367260000000 1.0
C      1  0.5664170000000  0.5263930000000  0.4553820000000 1.0
C      1  0.4572100000000  0.4538210000000  0.5302140000000 1.0
C      1  0.4966230000000  0.5640230000000  0.4821790000000 1.0
C      1  0.5034560000000  0.5214630000000  0.5698860000000 1.0
C      1  0.5438020000000  0.4438770000000  0.5249200000000 1.0
C      1  0.5351060000000  0.4930640000000  0.4729020000000 1.0
C      1  0.5222590000000  0.5424010000000  0.4232150000000 1.0
C      1  0.5626920000000  0.4995100000000  0.4597340000000 1.0
C      1  0.4886540000000  0.4267630000000  0.4902220000000 1.0
C      1  0.4817460000000  0.5034910000000  0.5779360000000 1.0
C      1  0.5597690000000  0.5528140000000  0.4741710000000 1.0
C      1  0.5420500000000  0.4632580000000  0.5721140000000 1.0
C      1  0.5378480000000  0.5429390000000  0.4504430000000 1.0
C      1  0.4965980000000  0.5481310000000  0.5122440000000 1.0
C      1  0.4633130000000  0.5617360000000  0.4886860000000 1.0
C      1  0.4834160000000  0.4408980000000  0.5209280000000 1.0
C      1  0.4677960000000  0.4886360000000  0.4418000000000 1.0
C      1  0.4329950000000  0.5174790000000  0.5301190000000 1.0
C      1  0.4536230000000  0.5329320000000  0.4849450000000 1.0
C      1  0.5082310000000  0.4428020000000  0.5440960000000 1.0
C      1  0.4539940000000  0.4712000000000  0.5548800000000 1.0
C      1  0.5011970000000  0.4511510000000  0.4404060000000 1.0
C      1  0.5025210000000  0.5305500000000  0.4829570000000 1.0
C      1  0.4877270000000  0.4948780000000  0.4737760000000 1.0
C      1  0.4678630000000  0.5193590000000  0.5494310000000 1.0
C      1  0.4985800000000  0.5292440000000  0.4244460000000 1.0
C      1  0.5269980000000  0.4697350000000  0.5213470000000 1.0
C      1  0.5173990000000  0.5173010000000  0.4594490000000 1.0
C      1  0.4758540000000  0.4548420000000  0.4791720000000 1.0
C      1  0.4785020000000  0.5403520000000  0.4404100000000 1.0
C      1  0.4994250000000  0.4745470000000  0.5406780000000 1.0
C      1  0.4399350000000  0.4826880000000  0.4881870000000 1.0
C      1  0.5362100000000  0.4272790000000  0.4692130000000 1.0
C      1  0.5451680000000  0.4947020000000  0.5356040000000 1.0
C      1  0.4386850000000  0.5112090000000  0.5019610000000 1.0
C      1  0.4450510000000  0.5437810000000  0.5412540000000 1.0
C      1  0.4782080000000  0.5148410000000  0.4970740000000 1.0
C      1  0.5631410000000  0.5517800000000  0.5335040000000 1.0
C      1  0.4828450000000  0.5648720000000  0.4513910000000 1.0
C      1  0.4963470000000  0.5361510000000  0.5414970000000 1.0
C      1  0.5004360000000  0.4624170000000  0.5014240000000 1.0
C      1  0.5348090000000  0.4967940000000  0.5022970000000 1.0
C      1  0.5423480000000  0.4906610000000  0.5648740000000 1.0
C      1  0.5293830000000  0.5674340000000  0.4785400000000 1.0
END
