TITL C-26726-4881-82 0.00271372030500244 125000 -337.983637648001 0 0 60 (C1) n - 1
REM
REM in /home/nfs/bkarasulu/CARBON/AIRSS/Generating-Clusters/AIREBO/Higher-Symm/Only-C60
REM
REM
REM
REM
REM
REM ./C.cell (28575a23ae977d3b5fae324c64b13b57)
REM
REM compiler GCC version 9.2.1 20190827 (Red Hat 9.2.1-1)
REM options -cpp -mtune=generic -march=x86-64 -g -O0 -fpre-include=/usr/include/finclude/math-vector-fortran.h
REM seed -454091637 1284617183 331642859 1291472544 -147558017 1861207010 1521046187 2024652679 1041260447 -1022414265 -583798668 -610270658 259775782 -635152582 1093161083 1469831784 -1783743168 -1322774993 -252524735 -1937304374 -1956365883 -1135143223 1866044197 -1691242798 -586354170 65652576 -837661311 -255238883 -1393994682 -1968331430 -176490387 638504821 744331210
REM
CELL 1.54180   50.00000   50.00000   50.00000   90.00000   90.00000   90.00000
LATT -1
SFAC C  
C      1  0.4674810000000  0.5538470000000  0.4628690000000 1.0
C      1  0.4648580000000  0.4829800000000  0.4267190000000 1.0
C      1  0.4703480000000  0.4294490000000  0.5044550000000 1.0
C      1  0.4592480000000  0.4912520000000  0.5768550000000 1.0
C      1  0.4527830000000  0.5598830000000  0.5378500000000 1.0
C      1  0.5078700000000  0.4436480000000  0.4842820000000 1.0
C      1  0.5098000000000  0.4674960000000  0.5652180000000 1.0
C      1  0.4914420000000  0.5525030000000  0.5449620000000 1.0
C      1  0.5166300000000  0.5694560000000  0.4761790000000 1.0
C      1  0.5040550000000  0.4923120000000  0.4371390000000 1.0
C      1  0.5124340000000  0.4675120000000  0.4399210000000 1.0
C      1  0.5123350000000  0.4340680000000  0.5092670000000 1.0
C      1  0.5047600000000  0.4944490000000  0.5703220000000 1.0
C      1  0.5011520000000  0.5701460000000  0.5275890000000 1.0
C      1  0.5212940000000  0.5503070000000  0.4563670000000 1.0
C      1  0.4598780000000  0.4622940000000  0.4462540000000 1.0
C      1  0.4672260000000  0.4419890000000  0.5312910000000 1.0
C      1  0.4467140000000  0.5116280000000  0.5629090000000 1.0
C      1  0.4510360000000  0.5577550000000  0.5107930000000 1.0
C      1  0.4562480000000  0.5324500000000  0.4466940000000 1.0
C      1  0.4643650000000  0.5374110000000  0.5589420000000 1.0
C      1  0.4693080000000  0.5734610000000  0.4904120000000 1.0
C      1  0.4769980000000  0.5131090000000  0.4350700000000 1.0
C      1  0.4761840000000  0.4390390000000  0.4461920000000 1.0
C      1  0.4867430000000  0.4432580000000  0.5591130000000 1.0
C      1  0.4382070000000  0.4999990000000  0.5380860000000 1.0
C      1  0.4450770000000  0.5321970000000  0.5011660000000 1.0
C      1  0.4436900000000  0.5238480000000  0.4742610000000 1.0
C      1  0.4561540000000  0.4736460000000  0.4715580000000 1.0
C      1  0.4548370000000  0.4728740000000  0.5260370000000 1.0
C      1  0.5609350000000  0.5343270000000  0.5108120000000 1.0
C      1  0.5654760000000  0.5134820000000  0.4694670000000 1.0
C      1  0.5848400000000  0.4714600000000  0.4521600000000 1.0
C      1  0.5597460000000  0.4592040000000  0.4933710000000 1.0
C      1  0.5720120000000  0.4894170000000  0.5313220000000 1.0
C      1  0.5098060000000  0.4506010000000  0.5352780000000 1.0
C      1  0.4931740000000  0.5198820000000  0.5546020000000 1.0
C      1  0.5001990000000  0.5752960000000  0.4992250000000 1.0
C      1  0.5056750000000  0.5237860000000  0.4498970000000 1.0
C      1  0.5028000000000  0.4448750000000  0.4546530000000 1.0
C      1  0.4702260000000  0.4627070000000  0.4973540000000 1.0
C      1  0.4715020000000  0.4728700000000  0.5556730000000 1.0
C      1  0.4551290000000  0.5120020000000  0.5179520000000 1.0
C      1  0.4817610000000  0.5418340000000  0.4885360000000 1.0
C      1  0.4617080000000  0.5009610000000  0.4707290000000 1.0
C      1  0.5739030000000  0.5359260000000  0.4850310000000 1.0
C      1  0.5776480000000  0.4978860000000  0.4497140000000 1.0
C      1  0.5732340000000  0.4535610000000  0.4694890000000 1.0
C      1  0.5738720000000  0.4654340000000  0.5172760000000 1.0
C      1  0.5756410000000  0.5206690000000  0.5324100000000 1.0
C      1  0.5431220000000  0.5039070000000  0.5303090000000 1.0
C      1  0.5298350000000  0.5217840000000  0.5051790000000 1.0
C      1  0.5436790000000  0.5024050000000  0.4831420000000 1.0
C      1  0.5327200000000  0.4740800000000  0.4909610000000 1.0
C      1  0.5225710000000  0.4845240000000  0.5188020000000 1.0
C      1  0.4847110000000  0.5098680000000  0.5250290000000 1.0
C      1  0.4999790000000  0.5212340000000  0.5020230000000 1.0
C      1  0.4919910000000  0.5057280000000  0.4747420000000 1.0
C      1  0.4992500000000  0.4757430000000  0.4850830000000 1.0
C      1  0.4937010000000  0.4802790000000  0.5310050000000 1.0
END
