TITL C-26737-6152-86 -11.5902197508325 125000 -318.967662578501 0 0 60 (C2) n - 1
REM
REM in /home/nfs/bkarasulu/CARBON/AIRSS/Generating-Clusters/AIREBO/Higher-Symm/Only-C60
REM
REM
REM
REM
REM
REM ./C.cell (28575a23ae977d3b5fae324c64b13b57)
REM
REM compiler GCC version 9.2.1 20190827 (Red Hat 9.2.1-1)
REM options -cpp -mtune=generic -march=x86-64 -g -O0 -fpre-include=/usr/include/finclude/math-vector-fortran.h
REM seed -751370753 -190550363 -867796266 -1218343757 1832311487 1044726945 -1323351776 1483097695 2064902737 -1454249030 -1325194542 -1173725853 -2002421893 1468492944 142995881 -1761695772 -1790219131 -912263895 -1535737379 1837328175 -1564897238 -1210743580 75969577 721870271 476252456 646610797 1800789712 544178804 -1636574961 1167121964 2008676835 -1746543962 -35619006
REM
CELL 1.54180   50.00000   50.00000   50.00000   90.00000   90.00000   90.00000
LATT -1
SFAC C  
C      1  0.4957360000000  0.5233830000000  0.4699090000000 1.0
C      1  0.5249880000000  0.5074420000000  0.4716480000000 1.0
C      1  0.5034600000000  0.4738380000000  0.4704410000000 1.0
C      1  0.4769010000000  0.4950710000000  0.4709450000000 1.0
C      1  0.4965410000000  0.4738380000000  0.5275030000000 1.0
C      1  0.5231000000000  0.4950730000000  0.5269980000000 1.0
C      1  0.5042620000000  0.5233840000000  0.5280340000000 1.0
C      1  0.4750110000000  0.5074410000000  0.5262950000000 1.0
C      1  0.5160470000000  0.4490840000000  0.5244560000000 1.0
C      1  0.4505600000000  0.4862810000000  0.5283550000000 1.0
C      1  0.4850400000000  0.5514370000000  0.5276950000000 1.0
C      1  0.5503020000000  0.5154300000000  0.5257130000000 1.0
C      1  0.5149570000000  0.5514370000000  0.4702470000000 1.0
C      1  0.4496970000000  0.5154260000000  0.4722290000000 1.0
C      1  0.4839570000000  0.4490820000000  0.4734890000000 1.0
C      1  0.5494410000000  0.4862840000000  0.4695880000000 1.0
C      1  0.5604370000000  0.5241480000000  0.4643530000000 1.0
C      1  0.5213310000000  0.4386390000000  0.4641070000000 1.0
C      1  0.4416680000000  0.4771300000000  0.4649530000000 1.0
C      1  0.4768180000000  0.5589530000000  0.4622400000000 1.0
C      1  0.5583340000000  0.4771350000000  0.5329900000000 1.0
C      1  0.5231790000000  0.5589560000000  0.5357020000000 1.0
C      1  0.4395620000000  0.5241450000000  0.5335900000000 1.0
C      1  0.4786730000000  0.4386380000000  0.5338370000000 1.0
C      1  0.4863210000000  0.5353090000000  0.4394930000000 1.0
C      1  0.5381420000000  0.5122620000000  0.4414450000000 1.0
C      1  0.5147590000000  0.4637850000000  0.4418630000000 1.0
C      1  0.4642860000000  0.4855840000000  0.4408300000000 1.0
C      1  0.4852430000000  0.4637860000000  0.5560810000000 1.0
C      1  0.5357150000000  0.4855880000000  0.5571130000000 1.0
C      1  0.5136770000000  0.5353120000000  0.5584490000000 1.0
C      1  0.4618570000000  0.5122610000000  0.5564980000000 1.0
C      1  0.4636750000000  0.4828760000000  0.5681520000000 1.0
C      1  0.4828240000000  0.5330570000000  0.5692140000000 1.0
C      1  0.5347220000000  0.5149810000000  0.5702880000000 1.0
C      1  0.5150610000000  0.4648190000000  0.5690610000000 1.0
C      1  0.4652770000000  0.5149770000000  0.4276540000000 1.0
C      1  0.4849410000000  0.4648160000000  0.4288820000000 1.0
C      1  0.5363260000000  0.4828770000000  0.4297910000000 1.0
C      1  0.5171740000000  0.5330560000000  0.4287280000000 1.0
C      1  0.5001170000000  0.4267080000000  0.5135010000000 1.0
C      1  0.4278250000000  0.5009280000000  0.5141570000000 1.0
C      1  0.5010690000000  0.5726830000000  0.5138290000000 1.0
C      1  0.5719220000000  0.4992570000000  0.5131770000000 1.0
C      1  0.4989260000000  0.5726820000000  0.4841120000000 1.0
C      1  0.4280780000000  0.4992520000000  0.4847660000000 1.0
C      1  0.4998880000000  0.4267070000000  0.4844440000000 1.0
C      1  0.5721750000000  0.5009320000000  0.4837860000000 1.0
C      1  0.5428190000000  0.4591090000000  0.5174120000000 1.0
C      1  0.4600500000000  0.4585720000000  0.5224720000000 1.0
C      1  0.4571270000000  0.5425700000000  0.5199650000000 1.0
C      1  0.5415650000000  0.5430690000000  0.5205770000000 1.0
C      1  0.5428700000000  0.5425720000000  0.4779770000000 1.0
C      1  0.4584330000000  0.5430660000000  0.4773650000000 1.0
C      1  0.4571830000000  0.4591060000000  0.4805320000000 1.0
C      1  0.5399520000000  0.4585730000000  0.4754720000000 1.0
C      1  0.4775250000000  0.5258270000000  0.4985210000000 1.0
C      1  0.5224740000000  0.5258280000000  0.4994210000000 1.0
C      1  0.5228360000000  0.4777700000000  0.4977100000000 1.0
C      1  0.4771660000000  0.4777690000000  0.5002330000000 1.0
END
