TITL C-26732-6566-71 0.00136254874743457 125000 -329.568844663334 0 0 60 (C1) n - 1
REM
REM in /home/nfs/bkarasulu/CARBON/AIRSS/Generating-Clusters/AIREBO/Higher-Symm/Only-C60
REM
REM
REM
REM
REM
REM ./C.cell (28575a23ae977d3b5fae324c64b13b57)
REM
REM compiler GCC version 9.2.1 20190827 (Red Hat 9.2.1-1)
REM options -cpp -mtune=generic -march=x86-64 -g -O0 -fpre-include=/usr/include/finclude/math-vector-fortran.h
REM seed 1295254872 -1456497706 -1048518816 623156833 -1325449453 -2129416463 546131254 -990874808 -1418292987 804491510 723842735 -407685648 344717075 937102588 -2021087608 1873460880 685942618 1265611082 1720416453 -1083097 -570401209 1210446512 -1739618240 7557829 1921098773 177816234 -2119517900 782318544 106230086 957136963 -1980817631 -1777746293 1116946150
REM
CELL 1.54180   50.00000   50.00000   50.00000   90.00000   90.00000   90.00000
LATT -1
SFAC C  
C      1  0.4927170000000  0.4731440000000  0.5734570000000 1.0
C      1  0.4417010000000  0.5055710000000  0.5200110000000 1.0
C      1  0.5077230000000  0.4448170000000  0.4994410000000 1.0
C      1  0.4535460000000  0.5106370000000  0.5514740000000 1.0
C      1  0.4793180000000  0.4992910000000  0.4569040000000 1.0
C      1  0.4232290000000  0.5132430000000  0.4695580000000 1.0
C      1  0.5592780000000  0.4905120000000  0.5502660000000 1.0
C      1  0.4751930000000  0.4934390000000  0.5632500000000 1.0
C      1  0.5516500000000  0.5394530000000  0.5057490000000 1.0
C      1  0.4605800000000  0.4673820000000  0.5128220000000 1.0
C      1  0.5113250000000  0.4606950000000  0.4468460000000 1.0
C      1  0.4464700000000  0.5218770000000  0.4570660000000 1.0
C      1  0.4593300000000  0.4775120000000  0.4457390000000 1.0
C      1  0.5619430000000  0.4940340000000  0.4390950000000 1.0
C      1  0.4988640000000  0.5693400000000  0.4647710000000 1.0
C      1  0.5441910000000  0.4657580000000  0.5534050000000 1.0
C      1  0.5128390000000  0.4779810000000  0.5072510000000 1.0
C      1  0.4743710000000  0.5274860000000  0.4385500000000 1.0
C      1  0.4984650000000  0.5463770000000  0.4396550000000 1.0
C      1  0.4595250000000  0.5270450000000  0.5059040000000 1.0
C      1  0.4897310000000  0.4315320000000  0.4760790000000 1.0
C      1  0.4616620000000  0.4365870000000  0.4732110000000 1.0
C      1  0.5056340000000  0.5239600000000  0.4842960000000 1.0
C      1  0.5593460000000  0.4889550000000  0.4714870000000 1.0
C      1  0.5167340000000  0.5743710000000  0.4864730000000 1.0
C      1  0.4225860000000  0.4998370000000  0.4926930000000 1.0
C      1  0.5275710000000  0.5609650000000  0.5095710000000 1.0
C      1  0.5673090000000  0.4182170000000  0.5758690000000 1.0
C      1  0.4490810000000  0.5723500000000  0.4726680000000 1.0
C      1  0.5044130000000  0.4345030000000  0.4518540000000 1.0
C      1  0.5497280000000  0.5189490000000  0.4309540000000 1.0
C      1  0.4909760000000  0.5446090000000  0.5410050000000 1.0
C      1  0.5445570000000  0.5324980000000  0.4568410000000 1.0
C      1  0.4723540000000  0.5580550000000  0.4707050000000 1.0
C      1  0.5583460000000  0.5217910000000  0.4790710000000 1.0
C      1  0.4843150000000  0.4684910000000  0.4947410000000 1.0
C      1  0.5295250000000  0.4920160000000  0.4830180000000 1.0
C      1  0.4545450000000  0.4508530000000  0.4494960000000 1.0
C      1  0.5530100000000  0.5159270000000  0.5285660000000 1.0
C      1  0.4251110000000  0.4673970000000  0.5617930000000 1.0
C      1  0.5390370000000  0.4471170000000  0.5043930000000 1.0
C      1  0.4618260000000  0.5367710000000  0.5567000000000 1.0
C      1  0.4673300000000  0.5495610000000  0.5196210000000 1.0
C      1  0.5483960000000  0.4431650000000  0.5294310000000 1.0
C      1  0.5022110000000  0.4817160000000  0.4689040000000 1.0
C      1  0.4727930000000  0.5255870000000  0.4782700000000 1.0
C      1  0.5255100000000  0.5358950000000  0.4218820000000 1.0
C      1  0.5152410000000  0.5611810000000  0.5352340000000 1.0
C      1  0.5285410000000  0.5149950000000  0.5048650000000 1.0
C      1  0.4460030000000  0.4435680000000  0.4951850000000 1.0
C      1  0.4386270000000  0.4763860000000  0.5371820000000 1.0
C      1  0.4928770000000  0.5122700000000  0.5448370000000 1.0
C      1  0.5749960000000  0.5174400000000  0.5545120000000 1.0
C      1  0.5154920000000  0.4719080000000  0.5560280000000 1.0
C      1  0.4283960000000  0.4712030000000  0.5047040000000 1.0
C      1  0.5275360000000  0.5740070000000  0.5562450000000 1.0
C      1  0.5536870000000  0.4603490000000  0.4858880000000 1.0
C      1  0.5081490000000  0.4892810000000  0.5344250000000 1.0
C      1  0.5566520000000  0.4354990000000  0.5587270000000 1.0
C      1  0.5179120000000  0.5346470000000  0.4613610000000 1.0
END
