TITL C-26731-8310-77 -0.00039493725554262 125000 -334.584378837145 0 0 60 (S4) n - 1
REM
REM in /home/nfs/bkarasulu/CARBON/AIRSS/Generating-Clusters/AIREBO/Higher-Symm/Only-C60
REM
REM
REM
REM
REM
REM ./C.cell (28575a23ae977d3b5fae324c64b13b57)
REM
REM compiler GCC version 9.2.1 20190827 (Red Hat 9.2.1-1)
REM options -cpp -mtune=generic -march=x86-64 -g -O0 -fpre-include=/usr/include/finclude/math-vector-fortran.h
REM seed -910958420 -986082041 -571353628 -371944140 -1379623821 1334588803 -898420520 371816327 -261961047 -20327098 -1922919524 -1998690508 -173928271 -1696984560 259311265 1197852488 494695546 1507515081 770270366 -1952445744 500404502 -1562103713 -1768697530 276238798 923092763 1512896985 -2025754275 2045480627 208468077 -403154658 179867079 841488387 923018641
REM
CELL 1.54180   50.00000   50.00000   50.00000   90.00000   90.00000   90.00000
LATT -1
SFAC C  
C      1  0.5333980000000  0.4418100000000  0.4913080000000 1.0
C      1  0.5087020000000  0.5581940000000  0.5333980000000 1.0
C      1  0.4666030000000  0.4418130000000  0.5086970000000 1.0
C      1  0.4913130000000  0.5581830000000  0.4666030000000 1.0
C      1  0.5105010000000  0.4483640000000  0.4434760000000 1.0
C      1  0.5565340000000  0.5516210000000  0.5104980000000 1.0
C      1  0.4895060000000  0.4483620000000  0.5565330000000 1.0
C      1  0.4434770000000  0.5516530000000  0.4895040000000 1.0
C      1  0.4464630000000  0.4583250000000  0.4940400000000 1.0
C      1  0.5059640000000  0.5416660000000  0.4464650000000 1.0
C      1  0.5535060000000  0.4583420000000  0.5059660000000 1.0
C      1  0.4940380000000  0.5416680000000  0.5535070000000 1.0
C      1  0.4705990000000  0.4429970000000  0.4661980000000 1.0
C      1  0.5338120000000  0.5569870000000  0.4705970000000 1.0
C      1  0.5294190000000  0.4429690000000  0.5338260000000 1.0
C      1  0.4661840000000  0.5570460000000  0.5294170000000 1.0
C      1  0.5015250000000  0.4320560000000  0.5372530000000 1.0
C      1  0.4627610000000  0.5679570000000  0.5015210000000 1.0
C      1  0.4984790000000  0.4320720000000  0.4627630000000 1.0
C      1  0.5372510000000  0.5679150000000  0.4984750000000 1.0
C      1  0.5111870000000  0.4662630000000  0.5190910000000 1.0
C      1  0.4809100000000  0.5337440000000  0.5111880000000 1.0
C      1  0.4888690000000  0.4662910000000  0.4809340000000 1.0
C      1  0.5190660000000  0.5337020000000  0.4888710000000 1.0
C      1  0.4395900000000  0.5199050000000  0.5003030000000 1.0
C      1  0.4996860000000  0.4801060000000  0.4395860000000 1.0
C      1  0.5604110000000  0.5198780000000  0.4996870000000 1.0
C      1  0.5003020000000  0.4801110000000  0.5604070000000 1.0
C      1  0.4670780000000  0.5508800000000  0.5624510000000 1.0
C      1  0.4375510000000  0.4491120000000  0.4670720000000 1.0
C      1  0.5329330000000  0.5508700000000  0.4375490000000 1.0
C      1  0.5624530000000  0.4491380000000  0.5329280000000 1.0
C      1  0.5214670000000  0.4734190000000  0.4874810000000 1.0
C      1  0.5125180000000  0.5265820000000  0.5214700000000 1.0
C      1  0.4784890000000  0.4734410000000  0.5125130000000 1.0
C      1  0.4874860000000  0.5265580000000  0.4784920000000 1.0
C      1  0.4903200000000  0.4261530000000  0.5116880000000 1.0
C      1  0.4883280000000  0.5738500000000  0.4903150000000 1.0
C      1  0.5096780000000  0.4261480000000  0.4883240000000 1.0
C      1  0.5116920000000  0.5738490000000  0.5096730000000 1.0
C      1  0.5031210000000  0.5108790000000  0.4522820000000 1.0
C      1  0.5476730000000  0.4891190000000  0.5031040000000 1.0
C      1  0.4968990000000  0.5108870000000  0.5476810000000 1.0
C      1  0.4522740000000  0.4891160000000  0.4968830000000 1.0
C      1  0.5435880000000  0.5038830000000  0.5555820000000 1.0
C      1  0.4444180000000  0.4961480000000  0.5435990000000 1.0
C      1  0.4563970000000  0.5038670000000  0.4444110000000 1.0
C      1  0.5555890000000  0.4961020000000  0.4564080000000 1.0
C      1  0.4555050000000  0.4574920000000  0.4415680000000 1.0
C      1  0.5584350000000  0.5424780000000  0.4555010000000 1.0
C      1  0.5445010000000  0.4575050000000  0.5584430000000 1.0
C      1  0.4415590000000  0.5425250000000  0.5444970000000 1.0
C      1  0.4596890000000  0.5121030000000  0.4739060000000 1.0
C      1  0.5260920000000  0.4878740000000  0.4596870000000 1.0
C      1  0.5403030000000  0.5121160000000  0.5260890000000 1.0
C      1  0.4739080000000  0.4879070000000  0.5403020000000 1.0
C      1  0.5645110000000  0.5188890000000  0.4686020000000 1.0
C      1  0.5313930000000  0.4810970000000  0.5645040000000 1.0
C      1  0.4354950000000  0.5189300000000  0.5313950000000 1.0
C      1  0.4686000000000  0.4810840000000  0.4354880000000 1.0
END
