TITL C-26739-6686-180 0.00101696017479355 125000 -301.459605723907 0 0 60 (C1) n - 1
REM
REM in /home/nfs/bkarasulu/CARBON/AIRSS/Generating-Clusters/AIREBO/Higher-Symm/Only-C60
REM
REM
REM
REM
REM
REM ./C.cell (28575a23ae977d3b5fae324c64b13b57)
REM
REM compiler GCC version 9.2.1 20190827 (Red Hat 9.2.1-1)
REM options -cpp -mtune=generic -march=x86-64 -g -O0 -fpre-include=/usr/include/finclude/math-vector-fortran.h
REM seed -1664522318 154414199 -1928331244 1154894906 1578484986 -167040026 767526720 -566053126 -744655232 -1222525931 1802727038 1137395077 -1520944921 1201485944 2089495066 -1755779953 829714432 -228532859 1516610314 1324066976 -79297997 -1932539119 38654750 -1178896686 -897453788 -1253564470 736107056 1936545887 1710336164 1571563138 427313251 567885426 -35131758
REM
CELL 1.54180   50.00000   50.00000   50.00000   90.00000   90.00000   90.00000
LATT -1
SFAC C  
C      1  0.5388820000000  0.5513650000000  0.5262580000000 1.0
C      1  0.4513860000000  0.5413550000000  0.5280610000000 1.0
C      1  0.4602590000000  0.4574000000000  0.5325670000000 1.0
C      1  0.5443570000000  0.4529130000000  0.5303410000000 1.0
C      1  0.4669810000000  0.5017250000000  0.5140560000000 1.0
C      1  0.4978430000000  0.4568080000000  0.5156580000000 1.0
C      1  0.5425180000000  0.5004290000000  0.5063190000000 1.0
C      1  0.4997200000000  0.5337470000000  0.5098860000000 1.0
C      1  0.4385530000000  0.5021410000000  0.4687540000000 1.0
C      1  0.5029330000000  0.4283520000000  0.4691150000000 1.0
C      1  0.5596420000000  0.5014140000000  0.4702250000000 1.0
C      1  0.4999220000000  0.5664460000000  0.4692250000000 1.0
C      1  0.5291580000000  0.5208440000000  0.4869890000000 1.0
C      1  0.4800230000000  0.5264630000000  0.4862280000000 1.0
C      1  0.4797320000000  0.4826060000000  0.4916510000000 1.0
C      1  0.5146050000000  0.4707440000000  0.4927660000000 1.0
C      1  0.5594650000000  0.5354200000000  0.4669840000000 1.0
C      1  0.4664180000000  0.5609960000000  0.4723410000000 1.0
C      1  0.4489250000000  0.4697060000000  0.4699490000000 1.0
C      1  0.5339120000000  0.4416000000000  0.4737400000000 1.0
C      1  0.5149370000000  0.4317640000000  0.5003100000000 1.0
C      1  0.5677230000000  0.5211340000000  0.4967240000000 1.0
C      1  0.4862730000000  0.5631000000000  0.4998700000000 1.0
C      1  0.4408310000000  0.4869210000000  0.4981500000000 1.0
C      1  0.5786470000000  0.4634480000000  0.5051500000000 1.0
C      1  0.5208540000000  0.5831700000000  0.4988500000000 1.0
C      1  0.4188200000000  0.5199810000000  0.5016110000000 1.0
C      1  0.4492450000000  0.4281340000000  0.4980180000000 1.0
C      1  0.4933830000000  0.5267440000000  0.4562020000000 1.0
C      1  0.4806100000000  0.4956400000000  0.4612180000000 1.0
C      1  0.5072600000000  0.4774120000000  0.4632540000000 1.0
C      1  0.5183770000000  0.5083330000000  0.4612850000000 1.0
C      1  0.4773380000000  0.4511750000000  0.4672540000000 1.0
C      1  0.5530130000000  0.4675720000000  0.4666140000000 1.0
C      1  0.5310930000000  0.5534810000000  0.4639700000000 1.0
C      1  0.4467190000000  0.5353840000000  0.4664660000000 1.0
C      1  0.5577960000000  0.5311630000000  0.5266160000000 1.0
C      1  0.4738200000000  0.5583010000000  0.5288880000000 1.0
C      1  0.4396150000000  0.4765220000000  0.5287280000000 1.0
C      1  0.5255300000000  0.4320590000000  0.5301090000000 1.0
C      1  0.5476960000000  0.4682600000000  0.5001790000000 1.0
C      1  0.5248480000000  0.5529460000000  0.4973900000000 1.0
C      1  0.4485500000000  0.5261040000000  0.4991300000000 1.0
C      1  0.4681040000000  0.4517310000000  0.4999720000000 1.0
C      1  0.5066980000000  0.5516590000000  0.4403540000000 1.0
C      1  0.4580350000000  0.5131530000000  0.4443280000000 1.0
C      1  0.5033770000000  0.4517930000000  0.4453980000000 1.0
C      1  0.5405650000000  0.4899790000000  0.4453800000000 1.0
C      1  0.4531910000000  0.5196340000000  0.5487520000000 1.0
C      1  0.4825780000000  0.4495070000000  0.5516030000000 1.0
C      1  0.5499630000000  0.4787620000000  0.5469170000000 1.0
C      1  0.5193900000000  0.5550280000000  0.5471970000000 1.0
C      1  0.4927600000000  0.4790110000000  0.5409740000000 1.0
C      1  0.5219080000000  0.4856950000000  0.5289980000000 1.0
C      1  0.5180800000000  0.5178320000000  0.5327470000000 1.0
C      1  0.4854110000000  0.5124920000000  0.5405330000000 1.0
C      1  0.5042380000000  0.4306570000000  0.5497180000000 1.0
C      1  0.5490600000000  0.5096720000000  0.5446330000000 1.0
C      1  0.4923620000000  0.5450950000000  0.5473410000000 1.0
C      1  0.4360670000000  0.4970740000000  0.5480560000000 1.0
END
