TITL C-26730-8313-5 0.0140962740451077 125000 -309.56806138502 0 0 60 (C1) n - 1
REM
REM in /home/nfs/bkarasulu/CARBON/AIRSS/Generating-Clusters/AIREBO/Higher-Symm/Only-C60
REM
REM
REM
REM
REM
REM ./C.cell (28575a23ae977d3b5fae324c64b13b57)
REM
REM compiler GCC version 9.2.1 20190827 (Red Hat 9.2.1-1)
REM options -cpp -mtune=generic -march=x86-64 -g -O0 -fpre-include=/usr/include/finclude/math-vector-fortran.h
REM seed 1908148370 1932496336 -212910898 -2128516940 -723490150 1073818630 -826689605 -2133850015 -1822166359 -607556431 1038451634 -1148055850 -690343204 -927967517 227649453 806654138 1807043167 700688327 1951919350 -1732940994 -2009294411 -1130739717 131998879 1339395311 -394023010 -2090904006 -1534508509 -2087609292 -1358730023 -1264775914 -2145159846 -366116632 -1872044283
REM
CELL 1.54180   50.00000   50.00000   50.00000   90.00000   90.00000   90.00000
LATT -1
SFAC C  
C      1  0.4689240000000  0.5412960000000  0.5489990000000 1.0
C      1  0.4707340000000  0.4540870000000  0.4540990000000 1.0
C      1  0.5253390000000  0.4582300000000  0.5452600000000 1.0
C      1  0.5328360000000  0.5449810000000  0.4606990000000 1.0
C      1  0.5255640000000  0.4342570000000  0.5132940000000 1.0
C      1  0.5733170000000  0.5732650000000  0.4619500000000 1.0
C      1  0.4501830000000  0.5703800000000  0.5166860000000 1.0
C      1  0.5005000000000  0.4237440000000  0.5201100000000 1.0
C      1  0.4809390000000  0.4988440000000  0.4479900000000 1.0
C      1  0.4724310000000  0.4969040000000  0.5593410000000 1.0
C      1  0.5237810000000  0.4990340000000  0.4502890000000 1.0
C      1  0.5363270000000  0.5039500000000  0.5519870000000 1.0
C      1  0.5838950000000  0.4929110000000  0.5282360000000 1.0
C      1  0.5705450000000  0.4957900000000  0.4572840000000 1.0
C      1  0.4030080000000  0.4907730000000  0.5323470000000 1.0
C      1  0.4151040000000  0.5007360000000  0.4588030000000 1.0
C      1  0.4878310000000  0.5029600000000  0.4810360000000 1.0
C      1  0.4841970000000  0.4850370000000  0.5099850000000 1.0
C      1  0.5207950000000  0.4945560000000  0.4838750000000 1.0
C      1  0.5238680000000  0.5119980000000  0.5129130000000 1.0
C      1  0.5528760000000  0.5058070000000  0.4825280000000 1.0
C      1  0.5515110000000  0.4975900000000  0.5244890000000 1.0
C      1  0.4312250000000  0.4893620000000  0.4774180000000 1.0
C      1  0.4263750000000  0.4959510000000  0.5187310000000 1.0
C      1  0.5637820000000  0.5403950000000  0.5198320000000 1.0
C      1  0.5540890000000  0.4727260000000  0.4851830000000 1.0
C      1  0.4435820000000  0.4719040000000  0.5107130000000 1.0
C      1  0.4531450000000  0.5435660000000  0.4957990000000 1.0
C      1  0.5150260000000  0.4366910000000  0.4747900000000 1.0
C      1  0.5258360000000  0.5676100000000  0.5177340000000 1.0
C      1  0.4812800000000  0.5681890000000  0.4820370000000 1.0
C      1  0.4778470000000  0.4417540000000  0.5279210000000 1.0
C      1  0.5010580000000  0.4633710000000  0.5253200000000 1.0
C      1  0.4895950000000  0.5357560000000  0.4826550000000 1.0
C      1  0.5092660000000  0.5419020000000  0.5201080000000 1.0
C      1  0.5036560000000  0.4670960000000  0.4733740000000 1.0
C      1  0.4852240000000  0.5281660000000  0.4437610000000 1.0
C      1  0.4590070000000  0.4731390000000  0.5580570000000 1.0
C      1  0.5162940000000  0.4734190000000  0.4361900000000 1.0
C      1  0.5138510000000  0.5266370000000  0.5487200000000 1.0
C      1  0.4631970000000  0.4796780000000  0.4837780000000 1.0
C      1  0.4780710000000  0.5498290000000  0.5180810000000 1.0
C      1  0.5184920000000  0.5284860000000  0.4835930000000 1.0
C      1  0.5269500000000  0.4674840000000  0.5049830000000 1.0
C      1  0.4420070000000  0.5438580000000  0.5339720000000 1.0
C      1  0.4479970000000  0.4422400000000  0.4646410000000 1.0
C      1  0.5486210000000  0.4461290000000  0.5307860000000 1.0
C      1  0.5580290000000  0.5529550000000  0.4701800000000 1.0
C      1  0.5460980000000  0.5341190000000  0.5397230000000 1.0
C      1  0.5350010000000  0.4609570000000  0.4617140000000 1.0
C      1  0.4558860000000  0.4575330000000  0.5343190000000 1.0
C      1  0.4637250000000  0.5456490000000  0.4635380000000 1.0
C      1  0.4854560000000  0.5215070000000  0.5593140000000 1.0
C      1  0.4864720000000  0.4718470000000  0.4377740000000 1.0
C      1  0.5299880000000  0.4772350000000  0.5643300000000 1.0
C      1  0.5152460000000  0.5264430000000  0.4438750000000 1.0
C      1  0.4309950000000  0.4562840000000  0.4832510000000 1.0
C      1  0.4345460000000  0.5213540000000  0.5135960000000 1.0
C      1  0.5636460000000  0.5343870000000  0.4912910000000 1.0
C      1  0.5649380000000  0.4672630000000  0.5167160000000 1.0
END
