TITL C-26734-8308-17 0.000418226417473812 125000 -309.571414991677 0 0 60 (C1) n - 1
REM
REM in /home/nfs/bkarasulu/CARBON/AIRSS/Generating-Clusters/AIREBO/Higher-Symm/Only-C60
REM
REM
REM
REM
REM
REM ./C.cell (28575a23ae977d3b5fae324c64b13b57)
REM
REM compiler GCC version 9.2.1 20190827 (Red Hat 9.2.1-1)
REM options -cpp -mtune=generic -march=x86-64 -g -O0 -fpre-include=/usr/include/finclude/math-vector-fortran.h
REM seed -1963618086 1411438743 138859801 -1972474366 201164676 1914068417 -1029960544 2084421343 -250608480 231894531 -990183637 -2116269717 -265024133 465564043 -2055897624 787641520 1525121276 1140482400 730156123 1550632102 -571894985 -2080516305 719717110 1377858976 -1935143437 1622488159 -1343838923 1690261057 1663581258 61283603 -982093478 -2046802738 275379744
REM
CELL 1.54180   50.00000   50.00000   50.00000   90.00000   90.00000   90.00000
LATT -1
SFAC C  
C      1  0.5052560000000  0.5804380000000  0.5016160000000 1.0
C      1  0.4832120000000  0.5078330000000  0.5650040000000 1.0
C      1  0.5010140000000  0.4348650000000  0.5217160000000 1.0
C      1  0.4849750000000  0.4458500000000  0.4484100000000 1.0
C      1  0.4953040000000  0.5336740000000  0.4341390000000 1.0
C      1  0.4733050000000  0.4525260000000  0.5128350000000 1.0
C      1  0.4771660000000  0.4733660000000  0.4643670000000 1.0
C      1  0.4753670000000  0.5245520000000  0.4567840000000 1.0
C      1  0.4801530000000  0.5583750000000  0.5069920000000 1.0
C      1  0.4654150000000  0.4959880000000  0.5474040000000 1.0
C      1  0.5200650000000  0.4629610000000  0.4954200000000 1.0
C      1  0.5161530000000  0.4840320000000  0.4617750000000 1.0
C      1  0.5299130000000  0.5199680000000  0.4741470000000 1.0
C      1  0.5256940000000  0.5411070000000  0.5263250000000 1.0
C      1  0.5254420000000  0.4964560000000  0.5256620000000 1.0
C      1  0.5457050000000  0.5419870000000  0.4816540000000 1.0
C      1  0.5440960000000  0.5257800000000  0.5470300000000 1.0
C      1  0.5512570000000  0.4759160000000  0.5345610000000 1.0
C      1  0.5431210000000  0.4508670000000  0.4765170000000 1.0
C      1  0.5445150000000  0.4940300000000  0.4475710000000 1.0
C      1  0.4807490000000  0.4813760000000  0.5265240000000 1.0
C      1  0.4913320000000  0.4525120000000  0.4871810000000 1.0
C      1  0.4902280000000  0.4964360000000  0.4471940000000 1.0
C      1  0.4853190000000  0.5340740000000  0.4837680000000 1.0
C      1  0.4949770000000  0.5344540000000  0.5242250000000 1.0
C      1  0.4252520000000  0.5295640000000  0.4605570000000 1.0
C      1  0.4498460000000  0.5580460000000  0.5105900000000 1.0
C      1  0.4208440000000  0.5173710000000  0.5422220000000 1.0
C      1  0.4429130000000  0.4555870000000  0.5091970000000 1.0
C      1  0.4282030000000  0.4756150000000  0.4642440000000 1.0
C      1  0.4379040000000  0.5363840000000  0.5061660000000 1.0
C      1  0.4449570000000  0.5081240000000  0.5334090000000 1.0
C      1  0.4306500000000  0.4798860000000  0.5090920000000 1.0
C      1  0.4511130000000  0.4825660000000  0.4749850000000 1.0
C      1  0.4481850000000  0.5220140000000  0.4703680000000 1.0
C      1  0.5141630000000  0.5129920000000  0.5519020000000 1.0
C      1  0.5272450000000  0.4568190000000  0.5251590000000 1.0
C      1  0.5172900000000  0.4518410000000  0.4571260000000 1.0
C      1  0.5235110000000  0.5178480000000  0.4419910000000 1.0
C      1  0.5318610000000  0.5591270000000  0.5033650000000 1.0
C      1  0.5548880000000  0.5397040000000  0.5687280000000 1.0
C      1  0.5709400000000  0.4576560000000  0.5432280000000 1.0
C      1  0.5681270000000  0.4458060000000  0.4763030000000 1.0
C      1  0.5696010000000  0.4906250000000  0.4442620000000 1.0
C      1  0.5701130000000  0.5490710000000  0.4716680000000 1.0
C      1  0.4903090000000  0.5369830000000  0.5560110000000 1.0
C      1  0.4996230000000  0.4612980000000  0.5413370000000 1.0
C      1  0.4990600000000  0.4247060000000  0.4691010000000 1.0
C      1  0.5027500000000  0.5061260000000  0.4169820000000 1.0
C      1  0.5083210000000  0.5556970000000  0.4793470000000 1.0
C      1  0.4509990000000  0.5055930000000  0.5000250000000 1.0
C      1  0.5145720000000  0.4964640000000  0.4934060000000 1.0
C      1  0.3787310000000  0.4908120000000  0.5191910000000 1.0
C      1  0.6315160000000  0.5213650000000  0.4983720000000 1.0
C      1  0.4846120000000  0.5075900000000  0.5050860000000 1.0
C      1  0.3532120000000  0.4953950000000  0.5230440000000 1.0
C      1  0.4040190000000  0.4852560000000  0.5129190000000 1.0
C      1  0.6087190000000  0.5175230000000  0.5107210000000 1.0
C      1  0.5850260000000  0.5118200000000  0.5214680000000 1.0
C      1  0.5627950000000  0.5057730000000  0.5343850000000 1.0
END
