TITL C-26738-6379-30 -0.000460036493528253 125000 -311.840408439581 0 0 60 (C1) n - 1
REM
REM in /home/nfs/bkarasulu/CARBON/AIRSS/Generating-Clusters/AIREBO/Higher-Symm/Only-C60
REM
REM
REM
REM
REM
REM ./C.cell (28575a23ae977d3b5fae324c64b13b57)
REM
REM compiler GCC version 9.2.1 20190827 (Red Hat 9.2.1-1)
REM options -cpp -mtune=generic -march=x86-64 -g -O0 -fpre-include=/usr/include/finclude/math-vector-fortran.h
REM seed -1488967324 663891114 1391396447 1360057718 -909071093 -1418404866 -749863337 1095759413 -846614758 341673481 -832227847 1707510287 1016900807 -1178709899 1222383397 1925677000 -1833587076 -694678008 -1946462589 2142179919 -1252038712 -2045728128 970646515 930762028 -993266638 -518236045 1026719519 2006884230 836056479 2126035102 1299425425 1132728381 -1215352847
REM
CELL 1.54180   50.00000   50.00000   50.00000   90.00000   90.00000   90.00000
LATT -1
SFAC C  
C      1  0.4433990000000  0.4851890000000  0.4939440000000 1.0
C      1  0.5273220000000  0.4885020000000  0.5537860000000 1.0
C      1  0.5358150000000  0.4963980000000  0.4429030000000 1.0
C      1  0.4425560000000  0.5079370000000  0.5053720000000 1.0
C      1  0.5212230000000  0.5171000000000  0.4395030000000 1.0
C      1  0.5356330000000  0.5126390000000  0.5498850000000 1.0
C      1  0.4591160000000  0.5637230000000  0.5010370000000 1.0
C      1  0.5218220000000  0.5649950000000  0.5364610000000 1.0
C      1  0.5171490000000  0.5606680000000  0.4683110000000 1.0
C      1  0.4636000000000  0.4429690000000  0.4989520000000 1.0
C      1  0.5178580000000  0.4380680000000  0.4691430000000 1.0
C      1  0.5188640000000  0.4343770000000  0.5399300000000 1.0
C      1  0.4950190000000  0.5154150000000  0.5275040000000 1.0
C      1  0.5206660000000  0.5341320000000  0.4886410000000 1.0
C      1  0.4766890000000  0.5123670000000  0.4780700000000 1.0
C      1  0.5046270000000  0.4687440000000  0.4700240000000 1.0
C      1  0.5297100000000  0.4876720000000  0.5072400000000 1.0
C      1  0.4796450000000  0.4696220000000  0.5117850000000 1.0
C      1  0.4899300000000  0.4360620000000  0.4534730000000 1.0
C      1  0.4645310000000  0.4391170000000  0.5317030000000 1.0
C      1  0.5380500000000  0.4387140000000  0.5210650000000 1.0
C      1  0.4960080000000  0.5594390000000  0.5436940000000 1.0
C      1  0.4630260000000  0.5591650000000  0.4745130000000 1.0
C      1  0.5459990000000  0.5638990000000  0.4860260000000 1.0
C      1  0.4721630000000  0.5212300000000  0.5078460000000 1.0
C      1  0.5272730000000  0.5199200000000  0.5177370000000 1.0
C      1  0.5040760000000  0.5229840000000  0.4660920000000 1.0
C      1  0.4734900000000  0.4785430000000  0.4795560000000 1.0
C      1  0.5312820000000  0.4850320000000  0.4730950000000 1.0
C      1  0.5041420000000  0.4829030000000  0.5295410000000 1.0
C      1  0.4918550000000  0.5045910000000  0.5739020000000 1.0
C      1  0.5610480000000  0.5028000000000  0.4799580000000 1.0
C      1  0.4426600000000  0.5044480000000  0.4455890000000 1.0
C      1  0.4815790000000  0.4959330000000  0.4271730000000 1.0
C      1  0.5654470000000  0.4953050000000  0.5296330000000 1.0
C      1  0.4455860000000  0.4965690000000  0.5452580000000 1.0
C      1  0.5587130000000  0.4693520000000  0.4856650000000 1.0
C      1  0.4536340000000  0.4757540000000  0.4520170000000 1.0
C      1  0.4899980000000  0.4755840000000  0.5596900000000 1.0
C      1  0.5603480000000  0.5271580000000  0.5215940000000 1.0
C      1  0.4577270000000  0.5244780000000  0.5384580000000 1.0
C      1  0.4819610000000  0.5241060000000  0.4402910000000 1.0
C      1  0.5424860000000  0.5746460000000  0.5123970000000 1.0
C      1  0.4855590000000  0.5707070000000  0.4627480000000 1.0
C      1  0.4743820000000  0.5709910000000  0.5293420000000 1.0
C      1  0.5353410000000  0.4267330000000  0.4958860000000 1.0
C      1  0.4872430000000  0.4271110000000  0.5437360000000 1.0
C      1  0.4678280000000  0.4281900000000  0.4694700000000 1.0
C      1  0.4455950000000  0.4511160000000  0.4713180000000 1.0
C      1  0.5018100000000  0.4473840000000  0.5642710000000 1.0
C      1  0.5514720000000  0.4417660000000  0.4726700000000 1.0
C      1  0.4479380000000  0.5526810000000  0.5290310000000 1.0
C      1  0.4993600000000  0.5527540000000  0.4402360000000 1.0
C      1  0.5527470000000  0.5544510000000  0.5351630000000 1.0
C      1  0.5539020000000  0.5306600000000  0.4899160000000 1.0
C      1  0.4558880000000  0.5313680000000  0.4608790000000 1.0
C      1  0.4873300000000  0.5302410000000  0.5545120000000 1.0
C      1  0.5520180000000  0.4664100000000  0.5180610000000 1.0
C      1  0.4634360000000  0.4716390000000  0.5416050000000 1.0
C      1  0.4844300000000  0.4675490000000  0.4426980000000 1.0
END
