TITL C-26741-8371-147 0.000140943908455284 125000 -336.736196329137 0 0 60 (C1) n - 1
REM
REM in /home/nfs/bkarasulu/CARBON/AIRSS/Generating-Clusters/AIREBO/Higher-Symm/Only-C60
REM
REM
REM
REM
REM
REM ./C.cell (28575a23ae977d3b5fae324c64b13b57)
REM
REM compiler GCC version 9.2.1 20190827 (Red Hat 9.2.1-1)
REM options -cpp -mtune=generic -march=x86-64 -g -O0 -fpre-include=/usr/include/finclude/math-vector-fortran.h
REM seed 923283953 -1199548039 300533836 262500505 -540493734 1915953586 -253466966 456516771 -1701186180 1940073394 1820138656 757439925 -1873317864 1117684226 682194227 1326833128 -1954017378 343718569 -1824629436 -509927656 -1090487824 23380080 564973127 -23299523 -1752004617 426704130 -1233228980 -1951842618 646154208 -394696657 -2082347721 -1360636646 -1000537062
REM
CELL 1.54180   50.00000   50.00000   50.00000   90.00000   90.00000   90.00000
LATT -1
SFAC C  
C      1  0.4941700000000  0.4710570000000  0.5414100000000 1.0
C      1  0.5029170000000  0.5233140000000  0.5291620000000 1.0
C      1  0.6019210000000  0.4976620000000  0.5210190000000 1.0
C      1  0.3950760000000  0.5011270000000  0.5247030000000 1.0
C      1  0.4740260000000  0.5531950000000  0.5299440000000 1.0
C      1  0.5244750000000  0.4466420000000  0.5333230000000 1.0
C      1  0.4208020000000  0.5057470000000  0.5182630000000 1.0
C      1  0.5757590000000  0.4921790000000  0.5165200000000 1.0
C      1  0.4843980000000  0.5235900000000  0.4817380000000 1.0
C      1  0.5127500000000  0.4764870000000  0.4943070000000 1.0
C      1  0.5109380000000  0.5161400000000  0.4425510000000 1.0
C      1  0.4925410000000  0.4907280000000  0.4498560000000 1.0
C      1  0.4656010000000  0.4481400000000  0.5053730000000 1.0
C      1  0.5317190000000  0.5536180000000  0.5020360000000 1.0
C      1  0.4846940000000  0.4896030000000  0.4829300000000 1.0
C      1  0.5171590000000  0.5165370000000  0.4759960000000 1.0
C      1  0.4885940000000  0.4213770000000  0.5686660000000 1.0
C      1  0.5211100000000  0.5645800000000  0.5615760000000 1.0
C      1  0.5012510000000  0.5504080000000  0.5496410000000 1.0
C      1  0.5016440000000  0.4424280000000  0.5581670000000 1.0
C      1  0.4827790000000  0.5568550000000  0.4816770000000 1.0
C      1  0.5163140000000  0.4436070000000  0.4942920000000 1.0
C      1  0.5012430000000  0.5511930000000  0.5096610000000 1.0
C      1  0.4937550000000  0.4458790000000  0.5185590000000 1.0
C      1  0.4520140000000  0.4648430000000  0.4561450000000 1.0
C      1  0.5521950000000  0.5395480000000  0.4528890000000 1.0
C      1  0.5261110000000  0.5126350000000  0.5080760000000 1.0
C      1  0.4663300000000  0.4955690000000  0.5109280000000 1.0
C      1  0.4942940000000  0.5419890000000  0.4352290000000 1.0
C      1  0.5106950000000  0.4642450000000  0.4498470000000 1.0
C      1  0.4723070000000  0.5310570000000  0.4529870000000 1.0
C      1  0.5284380000000  0.4860690000000  0.4667460000000 1.0
C      1  0.4679440000000  0.5146260000000  0.5597010000000 1.0
C      1  0.5313660000000  0.4814300000000  0.5517940000000 1.0
C      1  0.5505530000000  0.5419400000000  0.5200400000000 1.0
C      1  0.4428200000000  0.4573100000000  0.5201000000000 1.0
C      1  0.4514220000000  0.5617470000000  0.4819720000000 1.0
C      1  0.5456590000000  0.4353200000000  0.4826360000000 1.0
C      1  0.4402610000000  0.4857170000000  0.5166380000000 1.0
C      1  0.5574420000000  0.5126680000000  0.5164090000000 1.0
C      1  0.4823500000000  0.5008850000000  0.5357720000000 1.0
C      1  0.5172580000000  0.4865180000000  0.5232890000000 1.0
C      1  0.5508810000000  0.4501100000000  0.5292270000000 1.0
C      1  0.4484630000000  0.5466530000000  0.5283380000000 1.0
C      1  0.4610700000000  0.4885640000000  0.4429810000000 1.0
C      1  0.5439950000000  0.5144450000000  0.4410300000000 1.0
C      1  0.4499570000000  0.5143910000000  0.4477720000000 1.0
C      1  0.5556220000000  0.4900480000000  0.4533390000000 1.0
C      1  0.4937400000000  0.5649480000000  0.4530980000000 1.0
C      1  0.5117190000000  0.4394910000000  0.4620300000000 1.0
C      1  0.5683700000000  0.4643700000000  0.5114740000000 1.0
C      1  0.4304240000000  0.5321900000000  0.5117640000000 1.0
C      1  0.5223480000000  0.4656590000000  0.5691630000000 1.0
C      1  0.4763230000000  0.5374720000000  0.5666380000000 1.0
C      1  0.5735820000000  0.4705630000000  0.4622110000000 1.0
C      1  0.4272640000000  0.5243840000000  0.4617810000000 1.0
C      1  0.5666820000000  0.4546450000000  0.4849080000000 1.0
C      1  0.4321290000000  0.5407090000000  0.4848850000000 1.0
C      1  0.4661430000000  0.4614050000000  0.4807180000000 1.0
C      1  0.5361890000000  0.5437440000000  0.4760760000000 1.0
END
