TITL C-26729-7230-6 0.00222525919070548 125000 -322.817574733812 0 0 60 (C1) n - 1
REM
REM in /home/nfs/bkarasulu/CARBON/AIRSS/Generating-Clusters/AIREBO/Higher-Symm/Only-C60
REM
REM
REM
REM
REM
REM ./C.cell (28575a23ae977d3b5fae324c64b13b57)
REM
REM compiler GCC version 9.2.1 20190827 (Red Hat 9.2.1-1)
REM options -cpp -mtune=generic -march=x86-64 -g -O0 -fpre-include=/usr/include/finclude/math-vector-fortran.h
REM seed -692643304 52432557 662352440 -1665314278 -42215223 1803830250 -834068040 958909180 552858488 -1174770054 -278348434 1877364505 -1949202419 1745792694 608218832 -1649763596 1436090213 1071955367 -252411015 -549599624 1114715716 906268455 -279778168 2063778416 1909556787 -960306729 1689621889 1327145088 1310109483 350675182 1748439367 -683167179 -953045964
REM
CELL 1.54180   50.00000   50.00000   50.00000   90.00000   90.00000   90.00000
LATT -1
SFAC C  
C      1  0.5167680000000  0.4410090000000  0.4597240000000 1.0
C      1  0.5586820000000  0.4676320000000  0.5592960000000 1.0
C      1  0.5143980000000  0.4582280000000  0.5342330000000 1.0
C      1  0.4977740000000  0.5615010000000  0.5432010000000 1.0
C      1  0.5125680000000  0.4878940000000  0.5510080000000 1.0
C      1  0.5303540000000  0.5179080000000  0.4388990000000 1.0
C      1  0.5000740000000  0.5854250000000  0.5301010000000 1.0
C      1  0.5698390000000  0.5113200000000  0.5131020000000 1.0
C      1  0.4072910000000  0.5151220000000  0.5031290000000 1.0
C      1  0.4461150000000  0.4621880000000  0.5775140000000 1.0
C      1  0.5151170000000  0.4273960000000  0.4821280000000 1.0
C      1  0.4752690000000  0.5038190000000  0.4777980000000 1.0
C      1  0.4808480000000  0.4854970000000  0.4497060000000 1.0
C      1  0.4831350000000  0.5618620000000  0.5715460000000 1.0
C      1  0.4140680000000  0.5412670000000  0.4964810000000 1.0
C      1  0.5044940000000  0.5593830000000  0.4308420000000 1.0
C      1  0.5005870000000  0.4800190000000  0.5148860000000 1.0
C      1  0.5400000000000  0.5028770000000  0.5566320000000 1.0
C      1  0.5073400000000  0.4081460000000  0.5308520000000 1.0
C      1  0.5174590000000  0.4745690000000  0.4809990000000 1.0
C      1  0.4572320000000  0.4300750000000  0.4800000000000 1.0
C      1  0.5076740000000  0.4720920000000  0.4492800000000 1.0
C      1  0.4481790000000  0.4969710000000  0.5434630000000 1.0
C      1  0.4841030000000  0.4724000000000  0.4873330000000 1.0
C      1  0.5726250000000  0.4613800000000  0.5012010000000 1.0
C      1  0.4516890000000  0.5245270000000  0.4727000000000 1.0
C      1  0.5657450000000  0.4931080000000  0.5416510000000 1.0
C      1  0.4502240000000  0.4707350000000  0.4488630000000 1.0
C      1  0.4432550000000  0.4851070000000  0.5182210000000 1.0
C      1  0.5492020000000  0.5198770000000  0.4921370000000 1.0
C      1  0.5354720000000  0.5532870000000  0.4750360000000 1.0
C      1  0.4357960000000  0.5449010000000  0.4796230000000 1.0
C      1  0.5758920000000  0.5355910000000  0.4497180000000 1.0
C      1  0.4960150000000  0.5172480000000  0.4957930000000 1.0
C      1  0.4263250000000  0.4948130000000  0.4981490000000 1.0
C      1  0.5492220000000  0.4653550000000  0.4893200000000 1.0
C      1  0.5129620000000  0.4310980000000  0.5181710000000 1.0
C      1  0.5572810000000  0.4804900000000  0.4460890000000 1.0
C      1  0.5275860000000  0.5383670000000  0.5077020000000 1.0
C      1  0.4669180000000  0.4519960000000  0.4665230000000 1.0
C      1  0.4601800000000  0.4810180000000  0.5643110000000 1.0
C      1  0.5502820000000  0.5304120000000  0.4597390000000 1.0
C      1  0.5363360000000  0.4565330000000  0.5577450000000 1.0
C      1  0.4531550000000  0.5030760000000  0.4397560000000 1.0
C      1  0.4529600000000  0.4368730000000  0.5067890000000 1.0
C      1  0.5053940000000  0.5102930000000  0.5263700000000 1.0
C      1  0.5165060000000  0.5394350000000  0.5365540000000 1.0
C      1  0.4875640000000  0.4859590000000  0.5694970000000 1.0
C      1  0.4372850000000  0.4948110000000  0.4690870000000 1.0
C      1  0.5834140000000  0.4826840000000  0.5158620000000 1.0
C      1  0.5040530000000  0.5457300000000  0.4857150000000 1.0
C      1  0.4604390000000  0.4642980000000  0.5103750000000 1.0
C      1  0.5445540000000  0.4938810000000  0.4746390000000 1.0
C      1  0.5089170000000  0.5677370000000  0.4621070000000 1.0
C      1  0.5163450000000  0.5360490000000  0.4229000000000 1.0
C      1  0.5307080000000  0.4900830000000  0.4374430000000 1.0
C      1  0.4656190000000  0.5452820000000  0.5532760000000 1.0
C      1  0.5363190000000  0.5303500000000  0.5584500000000 1.0
C      1  0.4494140000000  0.5246180000000  0.5473720000000 1.0
C      1  0.4949810000000  0.5883970000000  0.4389630000000 1.0
END
