TITL C-26728-8286-87 -0.00163316441272131 125000 -319.820151697385 0 0 60 (C1) n - 1
REM
REM in /home/nfs/bkarasulu/CARBON/AIRSS/Generating-Clusters/AIREBO/Higher-Symm/Only-C60
REM
REM
REM
REM
REM
REM ./C.cell (28575a23ae977d3b5fae324c64b13b57)
REM
REM compiler GCC version 9.2.1 20190827 (Red Hat 9.2.1-1)
REM options -cpp -mtune=generic -march=x86-64 -g -O0 -fpre-include=/usr/include/finclude/math-vector-fortran.h
REM seed 329513676 -211719042 -924803295 -1427269104 1624491684 210302580 381505834 -1452132167 -777302934 671285743 -754459148 1897574123 806116587 -305831350 -212629798 -18419878 -1957200453 1814570012 -202665571 -135355203 -252645403 1652125025 1398225476 1857997495 40849284 -1409133064 1873203135 -1801920137 1715767025 -1722108577 1882448166 1506916884 -721864337
REM
CELL 1.54180   50.00000   50.00000   50.00000   90.00000   90.00000   90.00000
LATT -1
SFAC C  
C      1  0.4828740000000  0.5571120000000  0.4595720000000 1.0
C      1  0.5189610000000  0.4924830000000  0.4237240000000 1.0
C      1  0.4847090000000  0.4397720000000  0.4754140000000 1.0
C      1  0.5199450000000  0.4420150000000  0.5326300000000 1.0
C      1  0.4770570000000  0.4988340000000  0.5711460000000 1.0
C      1  0.5134930000000  0.5633560000000  0.5353500000000 1.0
C      1  0.4944150000000  0.4581560000000  0.5455010000000 1.0
C      1  0.5009200000000  0.5166400000000  0.5569940000000 1.0
C      1  0.4960150000000  0.5509330000000  0.5089640000000 1.0
C      1  0.5087890000000  0.5388170000000  0.4505820000000 1.0
C      1  0.5009470000000  0.4819830000000  0.4505810000000 1.0
C      1  0.5148420000000  0.4374860000000  0.4908680000000 1.0
C      1  0.4699730000000  0.5209490000000  0.4897110000000 1.0
C      1  0.5278320000000  0.4985300000000  0.4750570000000 1.0
C      1  0.4740560000000  0.4873440000000  0.4865220000000 1.0
C      1  0.5277360000000  0.4852520000000  0.5063940000000 1.0
C      1  0.4805210000000  0.5019460000000  0.5165490000000 1.0
C      1  0.5101930000000  0.5087710000000  0.5189670000000 1.0
C      1  0.5103170000000  0.4577140000000  0.4634550000000 1.0
C      1  0.4919540000000  0.4431540000000  0.5145670000000 1.0
C      1  0.5037240000000  0.4820160000000  0.5608330000000 1.0
C      1  0.4916310000000  0.5380810000000  0.5402700000000 1.0
C      1  0.5065170000000  0.5524630000000  0.4822210000000 1.0
C      1  0.4982140000000  0.5140460000000  0.4379300000000 1.0
C      1  0.4446540000000  0.4845880000000  0.5134240000000 1.0
C      1  0.5566430000000  0.5041680000000  0.5355010000000 1.0
C      1  0.4385150000000  0.5188090000000  0.5137560000000 1.0
C      1  0.5597180000000  0.5188660000000  0.4869070000000 1.0
C      1  0.4425950000000  0.5024950000000  0.4671570000000 1.0
C      1  0.5627690000000  0.4840080000000  0.4876930000000 1.0
C      1  0.5861180000000  0.4627540000000  0.4228210000000 1.0
C      1  0.4203670000000  0.4347290000000  0.5167140000000 1.0
C      1  0.5888570000000  0.4385400000000  0.5480180000000 1.0
C      1  0.4275020000000  0.5516500000000  0.5615050000000 1.0
C      1  0.5574070000000  0.5842120000000  0.5262950000000 1.0
C      1  0.4175730000000  0.5374230000000  0.4310320000000 1.0
C      1  0.4656220000000  0.5388480000000  0.5182920000000 1.0
C      1  0.5302930000000  0.5298830000000  0.4746130000000 1.0
C      1  0.4728310000000  0.5006520000000  0.4554640000000 1.0
C      1  0.5372150000000  0.4614950000000  0.4841730000000 1.0
C      1  0.4726880000000  0.4693970000000  0.5225010000000 1.0
C      1  0.5283160000000  0.5000620000000  0.5455610000000 1.0
C      1  0.4360690000000  0.4764580000000  0.4815210000000 1.0
C      1  0.5667260000000  0.4801220000000  0.5178390000000 1.0
C      1  0.4297420000000  0.4992250000000  0.5399790000000 1.0
C      1  0.5599660000000  0.5288810000000  0.5154150000000 1.0
C      1  0.4311010000000  0.5282660000000  0.4850270000000 1.0
C      1  0.5687000000000  0.5006560000000  0.4600540000000 1.0
C      1  0.4620730000000  0.5087960000000  0.5443830000000 1.0
C      1  0.5285800000000  0.5345510000000  0.5254010000000 1.0
C      1  0.4602430000000  0.5402820000000  0.4673140000000 1.0
C      1  0.5403510000000  0.4875390000000  0.4466060000000 1.0
C      1  0.4635340000000  0.4570230000000  0.4856670000000 1.0
C      1  0.5409760000000  0.4609660000000  0.5262170000000 1.0
C      1  0.4365190000000  0.5297310000000  0.5525500000000 1.0
C      1  0.5512130000000  0.5599500000000  0.5227000000000 1.0
C      1  0.4309650000000  0.5372760000000  0.4526840000000 1.0
C      1  0.5712390000000  0.4784140000000  0.4360310000000 1.0
C      1  0.4340200000000  0.4484900000000  0.5004210000000 1.0
C      1  0.5726680000000  0.4529440000000  0.5349610000000 1.0
END
