TITL C-26735-8354-10 -0.00232161870990323 125000 -316.303464929372 0 0 60 (C1) n - 1
REM
REM in /home/nfs/bkarasulu/CARBON/AIRSS/Generating-Clusters/AIREBO/Higher-Symm/Only-C60
REM
REM
REM
REM
REM
REM ./C.cell (28575a23ae977d3b5fae324c64b13b57)
REM
REM compiler GCC version 9.2.1 20190827 (Red Hat 9.2.1-1)
REM options -cpp -mtune=generic -march=x86-64 -g -O0 -fpre-include=/usr/include/finclude/math-vector-fortran.h
REM seed -1041126480 -1658239455 -2037289657 -267566976 752716542 -1254699206 -1581467973 1106289467 1665899035 1094929348 -2001246346 1266519212 -289837014 -55077188 1570088317 -299705466 -258965392 1280750746 -156129106 -1075434254 -959431328 2063375902 -930659712 -191776943 2090738091 2106089888 1919226548 -682191999 2021574280 -1683470142 10121379 239248461 961856685
REM
CELL 1.54180   50.00000   50.00000   50.00000   90.00000   90.00000   90.00000
LATT -1
SFAC C  
C      1  0.5668220000000  0.4840490000000  0.5311170000000 1.0
C      1  0.4386560000000  0.5113080000000  0.5272500000000 1.0
C      1  0.5616530000000  0.5136190000000  0.5260000000000 1.0
C      1  0.4328300000000  0.4818210000000  0.5320180000000 1.0
C      1  0.5389410000000  0.4571030000000  0.4334470000000 1.0
C      1  0.4550470000000  0.5405710000000  0.4350420000000 1.0
C      1  0.5423560000000  0.5416770000000  0.4346680000000 1.0
C      1  0.4601380000000  0.4571480000000  0.4327710000000 1.0
C      1  0.5181940000000  0.5177040000000  0.5245440000000 1.0
C      1  0.4831770000000  0.4891550000000  0.5179230000000 1.0
C      1  0.5157280000000  0.4837000000000  0.5210380000000 1.0
C      1  0.4779020000000  0.5179200000000  0.5280620000000 1.0
C      1  0.5257820000000  0.5507320000000  0.5213490000000 1.0
C      1  0.4770980000000  0.4556960000000  0.5181230000000 1.0
C      1  0.5236180000000  0.4506420000000  0.5197000000000 1.0
C      1  0.4751300000000  0.5518650000000  0.5228210000000 1.0
C      1  0.4427090000000  0.4833730000000  0.4990740000000 1.0
C      1  0.5532220000000  0.5184150000000  0.4937790000000 1.0
C      1  0.4530820000000  0.5156920000000  0.4968770000000 1.0
C      1  0.5562750000000  0.4849200000000  0.4987920000000 1.0
C      1  0.5107820000000  0.4759540000000  0.5537780000000 1.0
C      1  0.4876400000000  0.5264780000000  0.5594940000000 1.0
C      1  0.5164830000000  0.5287160000000  0.5550480000000 1.0
C      1  0.4833140000000  0.4677330000000  0.5586760000000 1.0
C      1  0.5151110000000  0.4708970000000  0.4622110000000 1.0
C      1  0.4849340000000  0.5273370000000  0.4572010000000 1.0
C      1  0.5153540000000  0.5254800000000  0.4587930000000 1.0
C      1  0.4846570000000  0.4705640000000  0.4610040000000 1.0
C      1  0.5316520000000  0.4853020000000  0.4361100000000 1.0
C      1  0.4667110000000  0.5122870000000  0.4351130000000 1.0
C      1  0.5344500000000  0.5116880000000  0.4373240000000 1.0
C      1  0.4675340000000  0.4856300000000  0.4357870000000 1.0
C      1  0.5411970000000  0.4708960000000  0.5490980000000 1.0
C      1  0.4551340000000  0.5305360000000  0.5499420000000 1.0
C      1  0.5459550000000  0.5312970000000  0.5497980000000 1.0
C      1  0.4573160000000  0.4672190000000  0.5506800000000 1.0
C      1  0.4851370000000  0.5607220000000  0.4915410000000 1.0
C      1  0.5153460000000  0.4422430000000  0.4901080000000 1.0
C      1  0.4846990000000  0.4428030000000  0.4897040000000 1.0
C      1  0.5163360000000  0.5628370000000  0.4922250000000 1.0
C      1  0.4855120000000  0.4330530000000  0.5389960000000 1.0
C      1  0.5137310000000  0.5707530000000  0.5420190000000 1.0
C      1  0.4882960000000  0.5718830000000  0.5420170000000 1.0
C      1  0.5108580000000  0.4311410000000  0.5396930000000 1.0
C      1  0.4418970000000  0.5447360000000  0.5219490000000 1.0
C      1  0.5554650000000  0.4532820000000  0.5230420000000 1.0
C      1  0.4450360000000  0.4516840000000  0.5230280000000 1.0
C      1  0.5585480000000  0.5472520000000  0.5221070000000 1.0
C      1  0.5490600000000  0.4529750000000  0.4893520000000 1.0
C      1  0.4535710000000  0.5467170000000  0.4900720000000 1.0
C      1  0.5493720000000  0.5504610000000  0.4893800000000 1.0
C      1  0.4502970000000  0.4516770000000  0.4893710000000 1.0
C      1  0.4659400000000  0.4421430000000  0.4613520000000 1.0
C      1  0.5297150000000  0.5531500000000  0.4637970000000 1.0
C      1  0.4682340000000  0.5559590000000  0.4624150000000 1.0
C      1  0.5335320000000  0.4423210000000  0.4615470000000 1.0
C      1  0.4741010000000  0.4835740000000  0.4863680000000 1.0
C      1  0.5192300000000  0.5163430000000  0.4913130000000 1.0
C      1  0.4854760000000  0.5132160000000  0.4860910000000 1.0
C      1  0.5240260000000  0.4839520000000  0.4880620000000 1.0
END
