TITL C-26738-6379-132 -0.0017884543136165 125000 -325.762804531616 0 0 60 (D2) n - 1
REM
REM in /home/nfs/bkarasulu/CARBON/AIRSS/Generating-Clusters/AIREBO/Higher-Symm/Only-C60
REM
REM
REM
REM
REM
REM ./C.cell (28575a23ae977d3b5fae324c64b13b57)
REM
REM compiler GCC version 9.2.1 20190827 (Red Hat 9.2.1-1)
REM options -cpp -mtune=generic -march=x86-64 -g -O0 -fpre-include=/usr/include/finclude/math-vector-fortran.h
REM seed 503497842 1638498189 963686091 -2074736089 -1579487978 -1355450007 961310592 1607187023 -277581435 218491522 -517914799 -846624597 -605163639 -1979958419 108476869 441351822 1579663675 -1027609639 -1402587152 268291569 -328942777 -1318952482 5617745 1092746591 -178050585 -1588171721 1348156353 -247092204 360194803 -731570121 -1239304680 729579177 -852545266
REM
CELL 1.54180   50.00000   50.00000   50.00000   90.00000   90.00000   90.00000
LATT -1
SFAC C  
C      1  0.4503880000000  0.4664730000000  0.4985390000000 1.0
C      1  0.5496030000000  0.4664740000000  0.5014620000000 1.0
C      1  0.4503980000000  0.5335260000000  0.5014640000000 1.0
C      1  0.5496100000000  0.5335260000000  0.4985330000000 1.0
C      1  0.5517160000000  0.4572780000000  0.4277380000000 1.0
C      1  0.4483280000000  0.4572690000000  0.5722650000000 1.0
C      1  0.5516760000000  0.5427360000000  0.5722570000000 1.0
C      1  0.4482820000000  0.5427200000000  0.4277400000000 1.0
C      1  0.4979140000000  0.5716310000000  0.4722300000000 1.0
C      1  0.5020840000000  0.5716200000000  0.5277690000000 1.0
C      1  0.4979180000000  0.4283810000000  0.5277730000000 1.0
C      1  0.5020830000000  0.4283680000000  0.4722340000000 1.0
C      1  0.5417550000000  0.5496830000000  0.4731790000000 1.0
C      1  0.4582390000000  0.5496840000000  0.5268190000000 1.0
C      1  0.5417630000000  0.4503160000000  0.5268180000000 1.0
C      1  0.4582420000000  0.4503150000000  0.4731860000000 1.0
C      1  0.4831620000000  0.5247360000000  0.4990570000000 1.0
C      1  0.5168450000000  0.5247420000000  0.5009400000000 1.0
C      1  0.4831540000000  0.4752560000000  0.5009420000000 1.0
C      1  0.5168380000000  0.4752640000000  0.4990570000000 1.0
C      1  0.5101730000000  0.4585100000000  0.5361860000000 1.0
C      1  0.4898410000000  0.4584940000000  0.4638170000000 1.0
C      1  0.5101550000000  0.5415050000000  0.4638120000000 1.0
C      1  0.4898310000000  0.5414920000000  0.5361860000000 1.0
C      1  0.5663210000000  0.4892990000000  0.4915470000000 1.0
C      1  0.4336800000000  0.4893040000000  0.5084630000000 1.0
C      1  0.5663210000000  0.5106960000000  0.5084570000000 1.0
C      1  0.4336780000000  0.5107000000000  0.4915520000000 1.0
C      1  0.4836750000000  0.4797650000000  0.5346480000000 1.0
C      1  0.5163370000000  0.4797510000000  0.4653480000000 1.0
C      1  0.4836610000000  0.5202440000000  0.4653480000000 1.0
C      1  0.5163270000000  0.5202350000000  0.5346460000000 1.0
C      1  0.4923810000000  0.5100690000000  0.4343380000000 1.0
C      1  0.5076390000000  0.5100570000000  0.5656550000000 1.0
C      1  0.4923680000000  0.4899430000000  0.5656560000000 1.0
C      1  0.5076100000000  0.4899230000000  0.4343380000000 1.0
C      1  0.4466230000000  0.5055490000000  0.4661310000000 1.0
C      1  0.5533700000000  0.5055510000000  0.5338760000000 1.0
C      1  0.4466330000000  0.4944510000000  0.5338810000000 1.0
C      1  0.5533750000000  0.4944490000000  0.4661270000000 1.0
C      1  0.4752930000000  0.4277480000000  0.4848030000000 1.0
C      1  0.5247070000000  0.4277540000000  0.5152050000000 1.0
C      1  0.4752940000000  0.5722460000000  0.5152030000000 1.0
C      1  0.5247050000000  0.5722510000000  0.4847960000000 1.0
C      1  0.5262390000000  0.5122760000000  0.4707320000000 1.0
C      1  0.4738300000000  0.5122180000000  0.5292620000000 1.0
C      1  0.5261670000000  0.4877880000000  0.5292610000000 1.0
C      1  0.4737660000000  0.4877300000000  0.4707350000000 1.0
C      1  0.5261180000000  0.5721850000000  0.5138060000000 1.0
C      1  0.4738800000000  0.5721870000000  0.4861930000000 1.0
C      1  0.5261180000000  0.4278130000000  0.4861940000000 1.0
C      1  0.4738830000000  0.4278160000000  0.5138130000000 1.0
C      1  0.5446940000000  0.4658370000000  0.4527540000000 1.0
C      1  0.4553280000000  0.4658320000000  0.5472420000000 1.0
C      1  0.5446750000000  0.5341710000000  0.5472360000000 1.0
C      1  0.4553040000000  0.5341610000000  0.4527570000000 1.0
C      1  0.5450990000000  0.4465630000000  0.4777020000000 1.0
C      1  0.4548950000000  0.4465610000000  0.5222990000000 1.0
C      1  0.5451070000000  0.5534400000000  0.5222920000000 1.0
C      1  0.4548980000000  0.5534360000000  0.4777030000000 1.0
END
