TITL C-26739-6686-174 5.49666699009265e-05 125000 -326.350085996076 0 0 60 (C1) n - 1
REM
REM in /home/nfs/bkarasulu/CARBON/AIRSS/Generating-Clusters/AIREBO/Higher-Symm/Only-C60
REM
REM
REM
REM
REM
REM ./C.cell (28575a23ae977d3b5fae324c64b13b57)
REM
REM compiler GCC version 9.2.1 20190827 (Red Hat 9.2.1-1)
REM options -cpp -mtune=generic -march=x86-64 -g -O0 -fpre-include=/usr/include/finclude/math-vector-fortran.h
REM seed -1154803131 759005094 1201201919 798468750 1287009620 -2044167802 848696834 12637650 -2115385426 -1084054626 2114815485 1581404634 -1576787353 -1312280118 -271965060 822453871 131165765 1567204934 1715809244 -2013980505 -1968547569 1904644946 -980405761 -1031502207 -390308884 1322407176 2107126445 -1501306079 1491202191 -1220212865 1477697700 637106575 -1806874867
REM
CELL 1.54180   50.00000   50.00000   50.00000   90.00000   90.00000   90.00000
LATT -1
SFAC C  
C      1  0.4360680000000  0.4691920000000  0.5242450000000 1.0
C      1  0.4276480000000  0.4563150000000  0.4960740000000 1.0
C      1  0.4209080000000  0.4795340000000  0.4734740000000 1.0
C      1  0.4231440000000  0.5123520000000  0.4712800000000 1.0
C      1  0.4308750000000  0.5379370000000  0.4924160000000 1.0
C      1  0.4272850000000  0.5325260000000  0.5248480000000 1.0
C      1  0.4288720000000  0.5008920000000  0.5343450000000 1.0
C      1  0.5550270000000  0.4524460000000  0.5163860000000 1.0
C      1  0.5455660000000  0.4609190000000  0.4874090000000 1.0
C      1  0.5640670000000  0.4724620000000  0.4667550000000 1.0
C      1  0.5556480000000  0.4943850000000  0.4566570000000 1.0
C      1  0.5386780000000  0.5391040000000  0.5008260000000 1.0
C      1  0.5391400000000  0.5236400000000  0.5228100000000 1.0
C      1  0.5554150000000  0.4658600000000  0.5381520000000 1.0
C      1  0.4392240000000  0.4926670000000  0.4484850000000 1.0
C      1  0.4369800000000  0.5406880000000  0.4599760000000 1.0
C      1  0.4524910000000  0.5527680000000  0.5143100000000 1.0
C      1  0.4564010000000  0.5207710000000  0.5378920000000 1.0
C      1  0.4446480000000  0.4793630000000  0.5543410000000 1.0
C      1  0.4589070000000  0.4495980000000  0.5084190000000 1.0
C      1  0.4504720000000  0.4624770000000  0.4716380000000 1.0
C      1  0.4842430000000  0.5311760000000  0.5252970000000 1.0
C      1  0.4751850000000  0.4808170000000  0.5469350000000 1.0
C      1  0.4773160000000  0.4778410000000  0.5128310000000 1.0
C      1  0.4798740000000  0.4750580000000  0.4790250000000 1.0
C      1  0.4694650000000  0.4903230000000  0.4504580000000 1.0
C      1  0.4680950000000  0.5403900000000  0.4645840000000 1.0
C      1  0.4705440000000  0.5333530000000  0.4941990000000 1.0
C      1  0.4909400000000  0.4262200000000  0.4718040000000 1.0
C      1  0.5039040000000  0.4822430000000  0.4237940000000 1.0
C      1  0.4993510000000  0.5393980000000  0.4240460000000 1.0
C      1  0.4841170000000  0.5865900000000  0.4808180000000 1.0
C      1  0.4888800000000  0.5560390000000  0.5562740000000 1.0
C      1  0.5078530000000  0.4905080000000  0.5903070000000 1.0
C      1  0.4952870000000  0.4341090000000  0.5451090000000 1.0
C      1  0.4942400000000  0.4584650000000  0.5586770000000 1.0
C      1  0.4795690000000  0.4283000000000  0.4977280000000 1.0
C      1  0.4872920000000  0.4636870000000  0.4390400000000 1.0
C      1  0.4816140000000  0.5201530000000  0.4457620000000 1.0
C      1  0.4827940000000  0.5676740000000  0.4602070000000 1.0
C      1  0.4819390000000  0.5645800000000  0.5251120000000 1.0
C      1  0.4905190000000  0.5028920000000  0.5680640000000 1.0
C      1  0.5085300000000  0.5044000000000  0.4388760000000 1.0
C      1  0.5057380000000  0.5517260000000  0.4502240000000 1.0
C      1  0.4982700000000  0.5763180000000  0.5028990000000 1.0
C      1  0.4977070000000  0.5312470000000  0.5626800000000 1.0
C      1  0.5164750000000  0.4725810000000  0.5680960000000 1.0
C      1  0.4992560000000  0.4367690000000  0.5175300000000 1.0
C      1  0.5017590000000  0.4488740000000  0.4584290000000 1.0
C      1  0.5077690000000  0.4656920000000  0.5108900000000 1.0
C      1  0.5150320000000  0.4729330000000  0.4784720000000 1.0
C      1  0.5257800000000  0.5021240000000  0.4640660000000 1.0
C      1  0.5221490000000  0.5342030000000  0.4721570000000 1.0
C      1  0.5190940000000  0.5611130000000  0.4942280000000 1.0
C      1  0.5123410000000  0.5157410000000  0.5371170000000 1.0
C      1  0.5303120000000  0.4876530000000  0.5453500000000 1.0
C      1  0.5334860000000  0.4857340000000  0.5115470000000 1.0
C      1  0.5851530000000  0.4988100000000  0.5294350000000 1.0
C      1  0.4671070000000  0.5050180000000  0.5012420000000 1.0
C      1  0.5598420000000  0.5031610000000  0.5234920000000 1.0
END
