TITL C-26726-4881-128 -0.00121466285375817 125000 -328.862749015186 0 0 60 (C1) n - 1
REM
REM in /home/nfs/bkarasulu/CARBON/AIRSS/Generating-Clusters/AIREBO/Higher-Symm/Only-C60
REM
REM
REM
REM
REM
REM ./C.cell (28575a23ae977d3b5fae324c64b13b57)
REM
REM compiler GCC version 9.2.1 20190827 (Red Hat 9.2.1-1)
REM options -cpp -mtune=generic -march=x86-64 -g -O0 -fpre-include=/usr/include/finclude/math-vector-fortran.h
REM seed 601875767 1368481201 -1943785675 131231541 -136459745 1874111799 1892322556 945631604 1050188809 1628788800 670955863 -2069128098 -1292757940 83836007 719086165 1149359934 1659853012 -365195080 206598630 -247797795 -1370849532 -1750317277 135049818 -252418411 449887139 500389331 -1497610784 -1351240747 439514280 446646975 1200413841 1054957668 -1685558499
REM
CELL 1.54180   50.00000   50.00000   50.00000   90.00000   90.00000   90.00000
LATT -1
SFAC C  
C      1  0.4693240000000  0.5022070000000  0.4483270000000 1.0
C      1  0.5127860000000  0.4737620000000  0.4485150000000 1.0
C      1  0.5151890000000  0.5222140000000  0.4396590000000 1.0
C      1  0.5522720000000  0.4577970000000  0.4999710000000 1.0
C      1  0.5061200000000  0.5588330000000  0.5023520000000 1.0
C      1  0.4393890000000  0.4808710000000  0.5026500000000 1.0
C      1  0.5683080000000  0.5347290000000  0.4885910000000 1.0
C      1  0.4324150000000  0.5400470000000  0.4803740000000 1.0
C      1  0.4985430000000  0.4262050000000  0.4793710000000 1.0
C      1  0.5379750000000  0.4872590000000  0.5454520000000 1.0
C      1  0.4977350000000  0.5264570000000  0.5394640000000 1.0
C      1  0.4713280000000  0.4792800000000  0.5473620000000 1.0
C      1  0.4752550000000  0.4913930000000  0.5181560000000 1.0
C      1  0.5246070000000  0.4869840000000  0.5167780000000 1.0
C      1  0.5006280000000  0.5066010000000  0.5168600000000 1.0
C      1  0.5222170000000  0.4531090000000  0.5150930000000 1.0
C      1  0.5329970000000  0.5449740000000  0.5179050000000 1.0
C      1  0.4493420000000  0.5110870000000  0.5154310000000 1.0
C      1  0.4974700000000  0.4807340000000  0.5659010000000 1.0
C      1  0.5206970000000  0.5055360000000  0.5646560000000 1.0
C      1  0.4872180000000  0.5123610000000  0.5652940000000 1.0
C      1  0.4828690000000  0.5117650000000  0.4764490000000 1.0
C      1  0.5033700000000  0.4846550000000  0.4777290000000 1.0
C      1  0.5148500000000  0.5157100000000  0.4873390000000 1.0
C      1  0.5166250000000  0.4201990000000  0.5216240000000 1.0
C      1  0.5615790000000  0.5611270000000  0.5266670000000 1.0
C      1  0.4201820000000  0.5267270000000  0.5232850000000 1.0
C      1  0.5182860000000  0.5654310000000  0.4728360000000 1.0
C      1  0.4302390000000  0.4840360000000  0.4722840000000 1.0
C      1  0.5505800000000  0.4499050000000  0.4684740000000 1.0
C      1  0.4605080000000  0.5315480000000  0.4922830000000 1.0
C      1  0.4987710000000  0.4544220000000  0.4919730000000 1.0
C      1  0.5451180000000  0.5182290000000  0.5026340000000 1.0
C      1  0.5474010000000  0.4913380000000  0.4579430000000 1.0
C      1  0.4817530000000  0.5512000000000  0.4539670000000 1.0
C      1  0.4689400000000  0.4577230000000  0.4656140000000 1.0
C      1  0.4576870000000  0.5180900000000  0.5688240000000 1.0
C      1  0.5082670000000  0.4527400000000  0.5689460000000 1.0
C      1  0.5371940000000  0.5312710000000  0.5696120000000 1.0
C      1  0.4704810000000  0.4685860000000  0.4964550000000 1.0
C      1  0.5446510000000  0.4890870000000  0.4890670000000 1.0
C      1  0.4820000000000  0.5513850000000  0.4814610000000 1.0
C      1  0.4277790000000  0.5276610000000  0.4555520000000 1.0
C      1  0.5121970000000  0.4260380000000  0.4548410000000 1.0
C      1  0.5583870000000  0.5369450000000  0.4629250000000 1.0
C      1  0.5037460000000  0.4076490000000  0.5001910000000 1.0
C      1  0.5800910000000  0.5532560000000  0.5064740000000 1.0
C      1  0.4135040000000  0.5430760000000  0.5013710000000 1.0
C      1  0.5269850000000  0.5366050000000  0.4632540000000 1.0
C      1  0.4391610000000  0.5019060000000  0.4533210000000 1.0
C      1  0.5288690000000  0.4485820000000  0.4517510000000 1.0
C      1  0.5137250000000  0.4399520000000  0.5465570000000 1.0
C      1  0.5463550000000  0.5453760000000  0.5491120000000 1.0
C      1  0.4420350000000  0.5213090000000  0.5477540000000 1.0
C      1  0.4439660000000  0.4740310000000  0.5356980000000 1.0
C      1  0.5564310000000  0.4682200000000  0.5319800000000 1.0
C      1  0.4968400000000  0.5529810000000  0.5325020000000 1.0
C      1  0.4877410000000  0.5270010000000  0.4397930000000 1.0
C      1  0.4810080000000  0.4740020000000  0.4463950000000 1.0
C      1  0.5280120000000  0.4977950000000  0.4369000000000 1.0
END
