TITL C-26735-8354-19 -0.00694731482122895 125000 -344.425929863067 0 0 60 (C1) n - 1
REM
REM in /home/nfs/bkarasulu/CARBON/AIRSS/Generating-Clusters/AIREBO/Higher-Symm/Only-C60
REM
REM
REM
REM
REM
REM ./C.cell (28575a23ae977d3b5fae324c64b13b57)
REM
REM compiler GCC version 9.2.1 20190827 (Red Hat 9.2.1-1)
REM options -cpp -mtune=generic -march=x86-64 -g -O0 -fpre-include=/usr/include/finclude/math-vector-fortran.h
REM seed -2037208748 -1004815568 242958565 1062983729 -122327860 -1445150108 -1700895406 -98900044 -1715125751 -1969675380 393023581 -719463613 -1079015874 -1563381010 -980528503 674106400 -2145256503 -175159120 -599140112 1211416242 1050585809 1381114569 1226542795 1177103306 -644322222 2074621767 -1371042011 -1599688605 1692148036 -1242313799 -558401604 -899755509 -1664547082
REM
CELL 1.54180   50.00000   50.00000   50.00000   90.00000   90.00000   90.00000
LATT -1
SFAC C  
C      1  0.5718670000000  0.4735120000000  0.5241050000000 1.0
C      1  0.5601190000000  0.5192830000000  0.5408490000000 1.0
C      1  0.5711000000000  0.5393210000000  0.4929540000000 1.0
C      1  0.5758020000000  0.5119470000000  0.4540800000000 1.0
C      1  0.5618070000000  0.4653140000000  0.4723260000000 1.0
C      1  0.5719020000000  0.5320260000000  0.5193010000000 1.0
C      1  0.5596630000000  0.4896120000000  0.5438300000000 1.0
C      1  0.5662620000000  0.4618030000000  0.4998040000000 1.0
C      1  0.5759680000000  0.4849410000000  0.4583050000000 1.0
C      1  0.5627040000000  0.5334210000000  0.4666840000000 1.0
C      1  0.4719490000000  0.4410290000000  0.5388960000000 1.0
C      1  0.4755380000000  0.5108970000000  0.5602330000000 1.0
C      1  0.4761190000000  0.5683490000000  0.5020910000000 1.0
C      1  0.4726840000000  0.5306110000000  0.4345970000000 1.0
C      1  0.4801960000000  0.4487670000000  0.4566150000000 1.0
C      1  0.4747250000000  0.5528680000000  0.5312790000000 1.0
C      1  0.4769680000000  0.4784400000000  0.5589280000000 1.0
C      1  0.4780060000000  0.4467150000000  0.5075190000000 1.0
C      1  0.4805490000000  0.4794550000000  0.4486950000000 1.0
C      1  0.4807610000000  0.5414030000000  0.4605540000000 1.0
C      1  0.5263110000000  0.4446700000000  0.5109890000000 1.0
C      1  0.5316250000000  0.4804590000000  0.5569250000000 1.0
C      1  0.5220380000000  0.5403710000000  0.5360580000000 1.0
C      1  0.5321670000000  0.5367380000000  0.4594460000000 1.0
C      1  0.5246020000000  0.4851720000000  0.4517140000000 1.0
C      1  0.5203310000000  0.5508170000000  0.5070270000000 1.0
C      1  0.5297130000000  0.5133470000000  0.5550190000000 1.0
C      1  0.5193200000000  0.4564040000000  0.5386310000000 1.0
C      1  0.5335990000000  0.4545760000000  0.4588090000000 1.0
C      1  0.5233420000000  0.5163710000000  0.4382440000000 1.0
C      1  0.5044300000000  0.4402820000000  0.4679090000000 1.0
C      1  0.4948200000000  0.4431060000000  0.5541870000000 1.0
C      1  0.5003920000000  0.5263980000000  0.5662260000000 1.0
C      1  0.5025300000000  0.5666530000000  0.4915770000000 1.0
C      1  0.4948000000000  0.5194980000000  0.4211550000000 1.0
C      1  0.5043770000000  0.5554040000000  0.4654130000000 1.0
C      1  0.4970790000000  0.5540300000000  0.5517440000000 1.0
C      1  0.5038530000000  0.4687770000000  0.5727400000000 1.0
C      1  0.5027930000000  0.4350370000000  0.4951050000000 1.0
C      1  0.5006800000000  0.4889850000000  0.4281300000000 1.0
C      1  0.4492450000000  0.5507240000000  0.5009480000000 1.0
C      1  0.4492860000000  0.5185920000000  0.4511550000000 1.0
C      1  0.4519070000000  0.4624110000000  0.4698060000000 1.0
C      1  0.4488450000000  0.4611820000000  0.5300560000000 1.0
C      1  0.4461680000000  0.5144610000000  0.5443940000000 1.0
C      1  0.4480620000000  0.4577830000000  0.4976280000000 1.0
C      1  0.4495570000000  0.4904430000000  0.4537800000000 1.0
C      1  0.4417960000000  0.5357330000000  0.4755330000000 1.0
C      1  0.4453530000000  0.5366950000000  0.5286460000000 1.0
C      1  0.4451190000000  0.4843870000000  0.5485220000000 1.0
C      1  0.5229180000000  0.5253530000000  0.4877790000000 1.0
C      1  0.5148770000000  0.4824070000000  0.5175590000000 1.0
C      1  0.5119880000000  0.5134610000000  0.5176990000000 1.0
C      1  0.5250690000000  0.4681180000000  0.4878370000000 1.0
C      1  0.5123770000000  0.4967410000000  0.4803420000000 1.0
C      1  0.4812460000000  0.4942980000000  0.4778460000000 1.0
C      1  0.4849730000000  0.4774960000000  0.5045090000000 1.0
C      1  0.4782480000000  0.4957110000000  0.5296630000000 1.0
C      1  0.4804460000000  0.5247990000000  0.5135860000000 1.0
C      1  0.4716980000000  0.5223950000000  0.4840210000000 1.0
END
