TITL C-26741-8371-59 0.000155141516435585 125000 -323.847683410508 0 0 60 (C1) n - 1
REM
REM in /home/nfs/bkarasulu/CARBON/AIRSS/Generating-Clusters/AIREBO/Higher-Symm/Only-C60
REM
REM
REM
REM
REM
REM ./C.cell (28575a23ae977d3b5fae324c64b13b57)
REM
REM compiler GCC version 9.2.1 20190827 (Red Hat 9.2.1-1)
REM options -cpp -mtune=generic -march=x86-64 -g -O0 -fpre-include=/usr/include/finclude/math-vector-fortran.h
REM seed 52160408 -267143359 101147653 1096008849 355052613 -1779086882 -1264302297 578781329 -1215846342 1711908994 1792050277 199159573 -1218713139 1286530786 261092874 998849030 -1320145362 -1050875504 -468248019 -2084186077 1542429211 -1287924813 -852363098 275102603 698562146 -734768944 -543768979 770344949 -1315152922 -1687334952 -1834913132 741200624 -178771339
REM
CELL 1.54180   50.00000   50.00000   50.00000   90.00000   90.00000   90.00000
LATT -1
SFAC C  
C      1  0.5025120000000  0.5397840000000  0.5593420000000 1.0
C      1  0.5006430000000  0.4568860000000  0.5586510000000 1.0
C      1  0.4962520000000  0.4360510000000  0.4787910000000 1.0
C      1  0.4986590000000  0.5021870000000  0.4281770000000 1.0
C      1  0.4982510000000  0.5633260000000  0.4849090000000 1.0
C      1  0.5321600000000  0.5017770000000  0.4755070000000 1.0
C      1  0.5303940000000  0.5258830000000  0.4989300000000 1.0
C      1  0.5402210000000  0.5111340000000  0.5258670000000 1.0
C      1  0.5356170000000  0.4801480000000  0.5213130000000 1.0
C      1  0.5261790000000  0.4736500000000  0.4895050000000 1.0
C      1  0.5611590000000  0.4962900000000  0.4582080000000 1.0
C      1  0.5608120000000  0.5358000000000  0.4873810000000 1.0
C      1  0.5635220000000  0.5301010000000  0.5393110000000 1.0
C      1  0.5646560000000  0.4823510000000  0.5388770000000 1.0
C      1  0.5576750000000  0.4611140000000  0.4923450000000 1.0
C      1  0.4930370000000  0.4741260000000  0.4948030000000 1.0
C      1  0.4768280000000  0.4938800000000  0.4756820000000 1.0
C      1  0.4786710000000  0.5188200000000  0.4839610000000 1.0
C      1  0.4980010000000  0.5231380000000  0.5078950000000 1.0
C      1  0.4909010000000  0.4943370000000  0.5189520000000 1.0
C      1  0.4396710000000  0.5124270000000  0.4728130000000 1.0
C      1  0.4450920000000  0.5199920000000  0.5055190000000 1.0
C      1  0.4450100000000  0.4923540000000  0.5199280000000 1.0
C      1  0.4433600000000  0.4706440000000  0.5007590000000 1.0
C      1  0.4332090000000  0.4798590000000  0.4760460000000 1.0
C      1  0.5264160000000  0.5675110000000  0.5290080000000 1.0
C      1  0.5273560000000  0.4954970000000  0.5707210000000 1.0
C      1  0.5237620000000  0.4322120000000  0.5181560000000 1.0
C      1  0.5225840000000  0.4624960000000  0.4404890000000 1.0
C      1  0.5235280000000  0.5440330000000  0.4497460000000 1.0
C      1  0.4543860000000  0.5879470000000  0.4632770000000 1.0
C      1  0.4516440000000  0.5583320000000  0.5591390000000 1.0
C      1  0.4516970000000  0.4697140000000  0.5771450000000 1.0
C      1  0.4490470000000  0.4051800000000  0.4896060000000 1.0
C      1  0.4536030000000  0.4864720000000  0.4042780000000 1.0
C      1  0.4674270000000  0.4551780000000  0.4987400000000 1.0
C      1  0.4555120000000  0.4894260000000  0.4529160000000 1.0
C      1  0.4571930000000  0.5401220000000  0.4773360000000 1.0
C      1  0.4691160000000  0.5354950000000  0.5189110000000 1.0
C      1  0.4682250000000  0.4900310000000  0.5357120000000 1.0
C      1  0.5440370000000  0.4751310000000  0.5598140000000 1.0
C      1  0.5401990000000  0.4367290000000  0.4953490000000 1.0
C      1  0.5394110000000  0.4851180000000  0.4400010000000 1.0
C      1  0.5411160000000  0.5517860000000  0.4704520000000 1.0
C      1  0.5442980000000  0.5521280000000  0.5445220000000 1.0
C      1  0.4690750000000  0.4867880000000  0.4272350000000 1.0
C      1  0.4697910000000  0.5659260000000  0.4685690000000 1.0
C      1  0.4736620000000  0.5492870000000  0.5451430000000 1.0
C      1  0.4734300000000  0.4756380000000  0.5610430000000 1.0
C      1  0.4686290000000  0.4233470000000  0.4925920000000 1.0
C      1  0.5248820000000  0.5594260000000  0.4999780000000 1.0
C      1  0.5279880000000  0.5221070000000  0.5556320000000 1.0
C      1  0.5253000000000  0.4540920000000  0.5396930000000 1.0
C      1  0.5216360000000  0.4485520000000  0.4670220000000 1.0
C      1  0.5222990000000  0.5140080000000  0.4453540000000 1.0
C      1  0.4982640000000  0.4700760000000  0.4289100000000 1.0
C      1  0.4992630000000  0.5575110000000  0.4537370000000 1.0
C      1  0.5018020000000  0.5671310000000  0.5425270000000 1.0
C      1  0.5022140000000  0.4844140000000  0.5752570000000 1.0
C      1  0.4987160000000  0.4250980000000  0.5085170000000 1.0
END
