TITL C-26737-6152-125 -0.000578072031634921 125000 -336.994637659084 0 0 60 (C2) n - 1
REM
REM in /home/nfs/bkarasulu/CARBON/AIRSS/Generating-Clusters/AIREBO/Higher-Symm/Only-C60
REM
REM
REM
REM
REM
REM ./C.cell (28575a23ae977d3b5fae324c64b13b57)
REM
REM compiler GCC version 9.2.1 20190827 (Red Hat 9.2.1-1)
REM options -cpp -mtune=generic -march=x86-64 -g -O0 -fpre-include=/usr/include/finclude/math-vector-fortran.h
REM seed -2026075268 -1544835148 436195227 -2039142910 -2032610137 -2054805515 1924902904 -1445009345 585538495 1139980457 1562277994 -1870371459 1925161409 -396071059 1322851151 1218415086 -796855179 2016482719 -924347789 -290591134 1718363108 -1190748097 -1193107050 493403416 -1839945057 -1188693401 -1627664052 -185473513 -1712217406 -2008522029 -659509086 398506781 1167893434
REM
CELL 1.54180   50.00000   50.00000   50.00000   90.00000   90.00000   90.00000
LATT -1
SFAC C  
C      1  0.4582800000000  0.4748950000000  0.4860130000000 1.0
C      1  0.4871860000000  0.4753760000000  0.5406780000000 1.0
C      1  0.5417020000000  0.4748690000000  0.5140160000000 1.0
C      1  0.5127970000000  0.4753240000000  0.4593480000000 1.0
C      1  0.4583900000000  0.5261090000000  0.4866190000000 1.0
C      1  0.4877890000000  0.5254860000000  0.5416710000000 1.0
C      1  0.5416320000000  0.5260910000000  0.5133550000000 1.0
C      1  0.5122330000000  0.5254390000000  0.4583020000000 1.0
C      1  0.5274030000000  0.5175440000000  0.4299000000000 1.0
C      1  0.4302110000000  0.5180340000000  0.4721440000000 1.0
C      1  0.4726170000000  0.5176340000000  0.5700860000000 1.0
C      1  0.5697920000000  0.5179920000000  0.5278430000000 1.0
C      1  0.5285790000000  0.4847500000000  0.4326740000000 1.0
C      1  0.4319740000000  0.4854420000000  0.4704590000000 1.0
C      1  0.4714050000000  0.4848390000000  0.5673400000000 1.0
C      1  0.5680350000000  0.4854070000000  0.5295410000000 1.0
C      1  0.4971350000000  0.4716080000000  0.4299590000000 1.0
C      1  0.4291860000000  0.4717070000000  0.5016580000000 1.0
C      1  0.5028360000000  0.4716690000000  0.5700730000000 1.0
C      1  0.5707850000000  0.4716370000000  0.4983550000000 1.0
C      1  0.4935790000000  0.5219490000000  0.4306810000000 1.0
C      1  0.4319930000000  0.5222520000000  0.5060320000000 1.0
C      1  0.5064450000000  0.5220070000000  0.5692910000000 1.0
C      1  0.5680220000000  0.5221780000000  0.4939490000000 1.0
C      1  0.5302090000000  0.4700090000000  0.4841880000000 1.0
C      1  0.4817730000000  0.4689190000000  0.4667770000000 1.0
C      1  0.4697730000000  0.4700500000000  0.5158420000000 1.0
C      1  0.5182060000000  0.4689380000000  0.5332620000000 1.0
C      1  0.5305550000000  0.5312920000000  0.4827680000000 1.0
C      1  0.4814230000000  0.5322640000000  0.4672580000000 1.0
C      1  0.4694670000000  0.5313310000000  0.5172020000000 1.0
C      1  0.5186000000000  0.5322840000000  0.5327040000000 1.0
C      1  0.5176320000000  0.4418200000000  0.4909600000000 1.0
C      1  0.4891630000000  0.4406650000000  0.4789060000000 1.0
C      1  0.4823260000000  0.4418440000000  0.5091030000000 1.0
C      1  0.5107940000000  0.4406790000000  0.5211580000000 1.0
C      1  0.5174750000000  0.5592670000000  0.4904710000000 1.0
C      1  0.4887330000000  0.5603000000000  0.4791770000000 1.0
C      1  0.4825660000000  0.5592880000000  0.5094670000000 1.0
C      1  0.5113080000000  0.5603140000000  0.5207600000000 1.0
C      1  0.4703870000000  0.4700900000000  0.4284610000000 1.0
C      1  0.4290460000000  0.4701650000000  0.5284640000000 1.0
C      1  0.5295810000000  0.4701280000000  0.5715810000000 1.0
C      1  0.5709280000000  0.4700670000000  0.4715520000000 1.0
C      1  0.4669880000000  0.5240660000000  0.4290650000000 1.0
C      1  0.4310280000000  0.5243600000000  0.5324610000000 1.0
C      1  0.5330390000000  0.5241010000000  0.5708980000000 1.0
C      1  0.5689960000000  0.5242600000000  0.4675190000000 1.0
C      1  0.5584060000000  0.4803330000000  0.4485250000000 1.0
C      1  0.4469870000000  0.4806120000000  0.4403170000000 1.0
C      1  0.4415790000000  0.4804380000000  0.5514840000000 1.0
C      1  0.5529940000000  0.4806110000000  0.5597200000000 1.0
C      1  0.5557740000000  0.5101710000000  0.4467760000000 1.0
C      1  0.4457800000000  0.5105750000000  0.4428180000000 1.0
C      1  0.4442390000000  0.5102740000000  0.5532110000000 1.0
C      1  0.5542350000000  0.5105670000000  0.5571600000000 1.0
C      1  0.5175450000000  0.5008290000000  0.4904460000000 1.0
C      1  0.4824590000000  0.5008530000000  0.5095530000000 1.0
C      1  0.4878500000000  0.5005360000000  0.4778050000000 1.0
C      1  0.5121540000000  0.5005470000000  0.5221940000000 1.0
END
