TITL C-26734-8308-136 -0.000289043985373776 125000 -341.256869764402 0 0 60 (C1) n - 1
REM
REM in /home/nfs/bkarasulu/CARBON/AIRSS/Generating-Clusters/AIREBO/Higher-Symm/Only-C60
REM
REM
REM
REM
REM
REM ./C.cell (28575a23ae977d3b5fae324c64b13b57)
REM
REM compiler GCC version 9.2.1 20190827 (Red Hat 9.2.1-1)
REM options -cpp -mtune=generic -march=x86-64 -g -O0 -fpre-include=/usr/include/finclude/math-vector-fortran.h
REM seed 1289885391 -264831449 1899928529 -1294653902 348209408 -611421502 -2032447778 -1610619711 951639189 1301688391 -1851683670 -1480503068 68550859 -781670467 -958867572 -1554336444 159296493 7448409 1060603197 -2038381804 -1716638928 -942165442 2032625242 -1637664909 1360462582 -1014564858 -1225772931 -42054698 191560087 1889607898 -1669738757 -1702202506 949807479
REM
CELL 1.54180   50.00000   50.00000   50.00000   90.00000   90.00000   90.00000
LATT -1
SFAC C  
C      1  0.4956760000000  0.4614680000000  0.5342860000000 1.0
C      1  0.4708090000000  0.4656700000000  0.4832350000000 1.0
C      1  0.5068820000000  0.5027110000000  0.4741900000000 1.0
C      1  0.5267150000000  0.4999670000000  0.5142270000000 1.0
C      1  0.4433840000000  0.5350700000000  0.4633090000000 1.0
C      1  0.5387860000000  0.5222450000000  0.4405090000000 1.0
C      1  0.4990560000000  0.4330740000000  0.5474930000000 1.0
C      1  0.5522640000000  0.4625700000000  0.4770440000000 1.0
C      1  0.4478920000000  0.4601580000000  0.4611720000000 1.0
C      1  0.5475500000000  0.4528880000000  0.5363620000000 1.0
C      1  0.5119230000000  0.4190250000000  0.5252450000000 1.0
C      1  0.5626200000000  0.5808820000000  0.4819650000000 1.0
C      1  0.5327730000000  0.4439580000000  0.4911350000000 1.0
C      1  0.5502320000000  0.4776360000000  0.5037580000000 1.0
C      1  0.5579820000000  0.4688070000000  0.5554280000000 1.0
C      1  0.4929960000000  0.5118000000000  0.4238350000000 1.0
C      1  0.4527810000000  0.4398720000000  0.4424310000000 1.0
C      1  0.4617600000000  0.5544070000000  0.4728760000000 1.0
C      1  0.5142040000000  0.4736950000000  0.4478730000000 1.0
C      1  0.4523250000000  0.5386440000000  0.5549600000000 1.0
C      1  0.5613260000000  0.5186990000000  0.4822580000000 1.0
C      1  0.4815840000000  0.5591000000000  0.4919770000000 1.0
C      1  0.5169970000000  0.5217360000000  0.4966120000000 1.0
C      1  0.4900630000000  0.5345880000000  0.5080280000000 1.0
C      1  0.3974770000000  0.5306930000000  0.4788680000000 1.0
C      1  0.5131330000000  0.4698780000000  0.4809310000000 1.0
C      1  0.4911020000000  0.4843190000000  0.4370350000000 1.0
C      1  0.5412720000000  0.5383050000000  0.4885540000000 1.0
C      1  0.5213090000000  0.5047600000000  0.5451070000000 1.0
C      1  0.4983350000000  0.5811560000000  0.4963780000000 1.0
C      1  0.5517240000000  0.5006970000000  0.5553500000000 1.0
C      1  0.5442280000000  0.4784800000000  0.4556950000000 1.0
C      1  0.4882220000000  0.4239980000000  0.5706080000000 1.0
C      1  0.4511320000000  0.5168760000000  0.4432120000000 1.0
C      1  0.5568600000000  0.5132330000000  0.5800600000000 1.0
C      1  0.4238070000000  0.5264800000000  0.4824000000000 1.0
C      1  0.5670880000000  0.5030250000000  0.5053270000000 1.0
C      1  0.5552940000000  0.5056310000000  0.4565880000000 1.0
C      1  0.4213810000000  0.5002290000000  0.5240520000000 1.0
C      1  0.4932050000000  0.4209030000000  0.5022130000000 1.0
C      1  0.4989530000000  0.4857020000000  0.5539250000000 1.0
C      1  0.5436750000000  0.5653340000000  0.4930760000000 1.0
C      1  0.4916990000000  0.4533120000000  0.5015070000000 1.0
C      1  0.5367450000000  0.4314510000000  0.5165360000000 1.0
C      1  0.4768910000000  0.4964560000000  0.4814350000000 1.0
C      1  0.5230130000000  0.5761170000000  0.5095100000000 1.0
C      1  0.5229430000000  0.4684480000000  0.5211830000000 1.0
C      1  0.5094220000000  0.5328750000000  0.5356990000000 1.0
C      1  0.4664170000000  0.5130930000000  0.5040130000000 1.0
C      1  0.4616540000000  0.4892220000000  0.4529070000000 1.0
C      1  0.5713210000000  0.5102850000000  0.5312790000000 1.0
C      1  0.4348510000000  0.5137000000000  0.5043350000000 1.0
C      1  0.4836680000000  0.4894970000000  0.5747110000000 1.0
C      1  0.4086310000000  0.4852580000000  0.5413880000000 1.0
C      1  0.4217650000000  0.4611010000000  0.4712680000000 1.0
C      1  0.4675650000000  0.5241700000000  0.4211430000000 1.0
C      1  0.5203870000000  0.5645490000000  0.5343630000000 1.0
C      1  0.5055990000000  0.5560020000000  0.5605660000000 1.0
C      1  0.5116780000000  0.5173050000000  0.4462150000000 1.0
C      1  0.4589780000000  0.5287860000000  0.5323540000000 1.0
END
