TITL C-26732-6566-20 -0.00120546658612561 125000 -327.99801153638 0 0 60 (C1) n - 1
REM
REM in /home/nfs/bkarasulu/CARBON/AIRSS/Generating-Clusters/AIREBO/Higher-Symm/Only-C60
REM
REM
REM
REM
REM
REM ./C.cell (28575a23ae977d3b5fae324c64b13b57)
REM
REM compiler GCC version 9.2.1 20190827 (Red Hat 9.2.1-1)
REM options -cpp -mtune=generic -march=x86-64 -g -O0 -fpre-include=/usr/include/finclude/math-vector-fortran.h
REM seed 1989109552 1280675066 1868601958 -1119162213 -828533435 1854561870 -1419326449 722413496 477330743 1939155262 -1893498770 -1004709823 1730049671 1004814650 1718361886 -1427327199 2094236570 -1015325597 1092686612 856651671 1966159139 -1496243680 -284500347 1638811232 1108831513 470491615 511517889 -216997418 -13111681 -1935614761 -492691273 -2134633988 1038508244
REM
CELL 1.54180   50.00000   50.00000   50.00000   90.00000   90.00000   90.00000
LATT -1
SFAC C  
C      1  0.5330590000000  0.4659550000000  0.5494720000000 1.0
C      1  0.4721170000000  0.4664490000000  0.4710370000000 1.0
C      1  0.4878420000000  0.4777900000000  0.5239160000000 1.0
C      1  0.5175730000000  0.4737220000000  0.4655970000000 1.0
C      1  0.4640150000000  0.5444610000000  0.4872850000000 1.0
C      1  0.5355670000000  0.5460760000000  0.5203780000000 1.0
C      1  0.5284110000000  0.5528010000000  0.4899830000000 1.0
C      1  0.4624760000000  0.5486450000000  0.5209970000000 1.0
C      1  0.5451580000000  0.5361850000000  0.4673710000000 1.0
C      1  0.4772930000000  0.5187350000000  0.5208810000000 1.0
C      1  0.4665620000000  0.5177760000000  0.4663580000000 1.0
C      1  0.5283840000000  0.5140550000000  0.5172240000000 1.0
C      1  0.4442960000000  0.4707920000000  0.4837740000000 1.0
C      1  0.5563690000000  0.4715690000000  0.5303770000000 1.0
C      1  0.5487060000000  0.4709370000000  0.4775360000000 1.0
C      1  0.4539280000000  0.4761340000000  0.5220740000000 1.0
C      1  0.4692140000000  0.4310760000000  0.5245200000000 1.0
C      1  0.5315740000000  0.4301330000000  0.4877850000000 1.0
C      1  0.5348020000000  0.4280740000000  0.5189080000000 1.0
C      1  0.4655990000000  0.4257580000000  0.4941340000000 1.0
C      1  0.5287160000000  0.5303720000000  0.4453710000000 1.0
C      1  0.4857440000000  0.5091150000000  0.5486400000000 1.0
C      1  0.4836110000000  0.5205580000000  0.4452440000000 1.0
C      1  0.5243880000000  0.5192550000000  0.5493250000000 1.0
C      1  0.4406780000000  0.5029460000000  0.5205660000000 1.0
C      1  0.5612070000000  0.4955750000000  0.4839470000000 1.0
C      1  0.5724870000000  0.5010840000000  0.5370810000000 1.0
C      1  0.4325960000000  0.4991650000000  0.4816050000000 1.0
C      1  0.4742740000000  0.4710150000000  0.4402500000000 1.0
C      1  0.5148530000000  0.4576560000000  0.5756030000000 1.0
C      1  0.5215090000000  0.4593260000000  0.4350310000000 1.0
C      1  0.4761090000000  0.4785390000000  0.5559810000000 1.0
C      1  0.5166650000000  0.5576550000000  0.5412140000000 1.0
C      1  0.4700150000000  0.5640620000000  0.4601500000000 1.0
C      1  0.4850850000000  0.5578890000000  0.5403140000000 1.0
C      1  0.5197610000000  0.5722550000000  0.4629920000000 1.0
C      1  0.5108720000000  0.4414450000000  0.4739430000000 1.0
C      1  0.4918190000000  0.4451320000000  0.5318010000000 1.0
C      1  0.4835100000000  0.4385820000000  0.4771020000000 1.0
C      1  0.5184620000000  0.4401120000000  0.5378680000000 1.0
C      1  0.4904030000000  0.5361850000000  0.5616520000000 1.0
C      1  0.5140440000000  0.5546200000000  0.4397830000000 1.0
C      1  0.5208140000000  0.5418540000000  0.5699220000000 1.0
C      1  0.4858020000000  0.5484070000000  0.4390280000000 1.0
C      1  0.5667310000000  0.5194240000000  0.4715050000000 1.0
C      1  0.4385790000000  0.5280340000000  0.5312360000000 1.0
C      1  0.4336630000000  0.5291550000000  0.4859540000000 1.0
C      1  0.5625200000000  0.5299920000000  0.5335020000000 1.0
C      1  0.5127800000000  0.4889900000000  0.5441410000000 1.0
C      1  0.5115900000000  0.5030210000000  0.4467250000000 1.0
C      1  0.4987260000000  0.4782360000000  0.4307480000000 1.0
C      1  0.4877950000000  0.4627940000000  0.5744900000000 1.0
C      1  0.5536410000000  0.4513100000000  0.5031610000000 1.0
C      1  0.4444330000000  0.4484150000000  0.5080920000000 1.0
C      1  0.5522020000000  0.4982530000000  0.5116270000000 1.0
C      1  0.4632540000000  0.5040200000000  0.4951650000000 1.0
C      1  0.4959940000000  0.4808160000000  0.4909340000000 1.0
C      1  0.4976520000000  0.5383120000000  0.4902220000000 1.0
C      1  0.5020160000000  0.5099220000000  0.5027050000000 1.0
C      1  0.4938480000000  0.5698790000000  0.4796180000000 1.0
END
