TITL C-26741-8371-131 -0.001533750230657 125000 -318.246498945627 0 0 60 (C1) n - 1
REM
REM in /home/nfs/bkarasulu/CARBON/AIRSS/Generating-Clusters/AIREBO/Higher-Symm/Only-C60
REM
REM
REM
REM
REM
REM ./C.cell (28575a23ae977d3b5fae324c64b13b57)
REM
REM compiler GCC version 9.2.1 20190827 (Red Hat 9.2.1-1)
REM options -cpp -mtune=generic -march=x86-64 -g -O0 -fpre-include=/usr/include/finclude/math-vector-fortran.h
REM seed -1293709283 1680576807 -315928589 228427739 460842983 -1317936896 -1665402104 -135477807 1178010207 1569540334 -1731521219 1913001314 -949933502 84757966 535432947 -1291763653 -993460287 -564250480 2137541227 -1338560548 203495283 787319841 1988970229 -1697647073 -780553271 1975030047 -841101550 1692978727 788380621 -1204853900 -1280476623 -1615848012 1362639623
REM
CELL 1.54180   50.00000   50.00000   50.00000   90.00000   90.00000   90.00000
LATT -1
SFAC C  
C      1  0.5627350000000  0.4608630000000  0.5042350000000 1.0
C      1  0.4405180000000  0.5515570000000  0.4986180000000 1.0
C      1  0.5682900000000  0.5075190000000  0.4390990000000 1.0
C      1  0.4265520000000  0.4969550000000  0.5486490000000 1.0
C      1  0.4290740000000  0.4917350000000  0.5178540000000 1.0
C      1  0.5673890000000  0.5051780000000  0.4692320000000 1.0
C      1  0.4394810000000  0.5618490000000  0.5249880000000 1.0
C      1  0.5630560000000  0.4487300000000  0.4791650000000 1.0
C      1  0.5710110000000  0.5283150000000  0.4846180000000 1.0
C      1  0.4254090000000  0.4659790000000  0.5079870000000 1.0
C      1  0.4813200000000  0.5320040000000  0.5347240000000 1.0
C      1  0.5143850000000  0.4647980000000  0.4677290000000 1.0
C      1  0.5555150000000  0.4867320000000  0.5375900000000 1.0
C      1  0.4441970000000  0.5097060000000  0.4670980000000 1.0
C      1  0.5532640000000  0.5383780000000  0.5277820000000 1.0
C      1  0.4501530000000  0.4595430000000  0.4688360000000 1.0
C      1  0.4969900000000  0.4488940000000  0.4927170000000 1.0
C      1  0.4997200000000  0.5476500000000  0.5107780000000 1.0
C      1  0.4767850000000  0.5614790000000  0.4508170000000 1.0
C      1  0.5259990000000  0.4332480000000  0.5590910000000 1.0
C      1  0.5048500000000  0.4184600000000  0.4866170000000 1.0
C      1  0.5023880000000  0.5771480000000  0.5212820000000 1.0
C      1  0.5272490000000  0.4162540000000  0.4706870000000 1.0
C      1  0.4816350000000  0.5824970000000  0.5390180000000 1.0
C      1  0.5636080000000  0.4488170000000  0.5285290000000 1.0
C      1  0.4612850000000  0.5651300000000  0.4808590000000 1.0
C      1  0.5407680000000  0.4582440000000  0.5488830000000 1.0
C      1  0.4614750000000  0.5344580000000  0.4597580000000 1.0
C      1  0.5355740000000  0.5127080000000  0.4467830000000 1.0
C      1  0.4572270000000  0.4834310000000  0.5448190000000 1.0
C      1  0.5031890000000  0.5120230000000  0.4867840000000 1.0
C      1  0.5145760000000  0.4947870000000  0.5113240000000 1.0
C      1  0.5044080000000  0.4553150000000  0.4374680000000 1.0
C      1  0.4834460000000  0.5306050000000  0.5686300000000 1.0
C      1  0.4634470000000  0.5604800000000  0.5398510000000 1.0
C      1  0.5391760000000  0.4415490000000  0.4666610000000 1.0
C      1  0.5372590000000  0.4896200000000  0.4719480000000 1.0
C      1  0.4557280000000  0.5114990000000  0.5256850000000 1.0
C      1  0.5093790000000  0.5132440000000  0.5372560000000 1.0
C      1  0.4934840000000  0.4911340000000  0.4655140000000 1.0
C      1  0.5419840000000  0.5165940000000  0.5385080000000 1.0
C      1  0.4624550000000  0.4832180000000  0.4682460000000 1.0
C      1  0.5515990000000  0.5412430000000  0.5001730000000 1.0
C      1  0.4450310000000  0.4506710000000  0.4946840000000 1.0
C      1  0.5199370000000  0.5352750000000  0.4265490000000 1.0
C      1  0.4890040000000  0.4784690000000  0.5479490000000 1.0
C      1  0.4547190000000  0.5039760000000  0.4352620000000 1.0
C      1  0.5405900000000  0.4897150000000  0.5679990000000 1.0
C      1  0.5236150000000  0.5407450000000  0.4598100000000 1.0
C      1  0.4699360000000  0.4526240000000  0.5372420000000 1.0
C      1  0.5462190000000  0.4878020000000  0.5047250000000 1.0
C      1  0.4419060000000  0.5229660000000  0.4973340000000 1.0
C      1  0.4844090000000  0.5399690000000  0.4835480000000 1.0
C      1  0.5025620000000  0.4665590000000  0.5190240000000 1.0
C      1  0.4685480000000  0.4468010000000  0.5083730000000 1.0
C      1  0.5237980000000  0.5391050000000  0.4895950000000 1.0
C      1  0.5176600000000  0.5033790000000  0.5672400000000 1.0
C      1  0.4796050000000  0.4967980000000  0.4349400000000 1.0
C      1  0.5023650000000  0.4472190000000  0.5469960000000 1.0
C      1  0.5020630000000  0.5583590000000  0.4418440000000 1.0
END
