TITL C-26740-8352-137 0.000293938718587733 125000 -339.534636591141 0 0 60 (C1) n - 1
REM
REM in /home/nfs/bkarasulu/CARBON/AIRSS/Generating-Clusters/AIREBO/Higher-Symm/Only-C60
REM
REM
REM
REM
REM
REM ./C.cell (28575a23ae977d3b5fae324c64b13b57)
REM
REM compiler GCC version 9.2.1 20190827 (Red Hat 9.2.1-1)
REM options -cpp -mtune=generic -march=x86-64 -g -O0 -fpre-include=/usr/include/finclude/math-vector-fortran.h
REM seed 847476889 -480255763 446524959 62621345 -42743313 1513330788 1327571942 1323226476 2065492260 291450296 1932766552 1580162752 -1901098510 -368260412 474027848 2028931002 798164294 435099913 -166355456 -248627290 -1174590641 516760777 1961072304 836879705 -2057257135 -1402133509 -434650962 -1290661468 -1575256404 -1404958643 -1979290940 -1988165552 -1886778728
REM
CELL 1.54180   50.00000   50.00000   50.00000   90.00000   90.00000   90.00000
LATT -1
SFAC C  
C      1  0.5642860000000  0.4626660000000  0.4737230000000 1.0
C      1  0.4838180000000  0.5542590000000  0.4624890000000 1.0
C      1  0.4533810000000  0.4798960000000  0.5629480000000 1.0
C      1  0.5572000000000  0.5332590000000  0.5220520000000 1.0
C      1  0.4431910000000  0.5378250000000  0.4794050000000 1.0
C      1  0.4353350000000  0.4563940000000  0.5272830000000 1.0
C      1  0.4803830000000  0.4452680000000  0.5379290000000 1.0
C      1  0.5325950000000  0.4369830000000  0.4533370000000 1.0
C      1  0.5192380000000  0.5574040000000  0.5399530000000 1.0
C      1  0.4545680000000  0.5307960000000  0.4344690000000 1.0
C      1  0.5342760000000  0.5170040000000  0.5624050000000 1.0
C      1  0.5361940000000  0.4839840000000  0.4403060000000 1.0
C      1  0.5534490000000  0.4873450000000  0.4631670000000 1.0
C      1  0.4769930000000  0.4645060000000  0.5613670000000 1.0
C      1  0.4565640000000  0.5615750000000  0.4699780000000 1.0
C      1  0.5536220000000  0.5134350000000  0.5404880000000 1.0
C      1  0.4402800000000  0.4827390000000  0.5377580000000 1.0
C      1  0.4442140000000  0.5186740000000  0.4586160000000 1.0
C      1  0.4828050000000  0.5361330000000  0.4396890000000 1.0
C      1  0.5200190000000  0.4600980000000  0.4419550000000 1.0
C      1  0.5144730000000  0.5351420000000  0.5585950000000 1.0
C      1  0.4602070000000  0.4450550000000  0.5183970000000 1.0
C      1  0.5361950000000  0.5533460000000  0.5190890000000 1.0
C      1  0.5430480000000  0.4438330000000  0.4793010000000 1.0
C      1  0.4976760000000  0.5493360000000  0.4867600000000 1.0
C      1  0.4841570000000  0.5004520000000  0.5353440000000 1.0
C      1  0.5339050000000  0.4843270000000  0.5051160000000 1.0
C      1  0.5107630000000  0.4478870000000  0.5276510000000 1.0
C      1  0.4932410000000  0.4496930000000  0.4806090000000 1.0
C      1  0.4870530000000  0.5540750000000  0.5368230000000 1.0
C      1  0.4787210000000  0.4869190000000  0.4433950000000 1.0
C      1  0.5312100000000  0.4849180000000  0.5569950000000 1.0
C      1  0.5233840000000  0.5069840000000  0.4291080000000 1.0
C      1  0.5508050000000  0.5308710000000  0.4896090000000 1.0
C      1  0.4517780000000  0.5307080000000  0.5084990000000 1.0
C      1  0.4516200000000  0.4821640000000  0.4903070000000 1.0
C      1  0.5041740000000  0.4760760000000  0.5457130000000 1.0
C      1  0.4803710000000  0.5447820000000  0.5087030000000 1.0
C      1  0.5426710000000  0.5020300000000  0.4848230000000 1.0
C      1  0.4973590000000  0.5118220000000  0.4377940000000 1.0
C      1  0.4955140000000  0.4647420000000  0.4543460000000 1.0
C      1  0.4850750000000  0.5250750000000  0.5544740000000 1.0
C      1  0.4677010000000  0.4569420000000  0.4942810000000 1.0
C      1  0.5269690000000  0.5552390000000  0.4891420000000 1.0
C      1  0.5194050000000  0.4564920000000  0.4987450000000 1.0
C      1  0.5510180000000  0.4841040000000  0.5302080000000 1.0
C      1  0.4572210000000  0.5006830000000  0.5161450000000 1.0
C      1  0.4581070000000  0.4952330000000  0.4644710000000 1.0
C      1  0.5362760000000  0.5232430000000  0.4119080000000 1.0
C      1  0.4236220000000  0.4754810000000  0.4901440000000 1.0
C      1  0.4931920000000  0.4214590000000  0.4752560000000 1.0
C      1  0.4680680000000  0.5245330000000  0.5765510000000 1.0
C      1  0.5412260000000  0.4677860000000  0.5801050000000 1.0
C      1  0.4336500000000  0.5426370000000  0.5269630000000 1.0
C      1  0.5729810000000  0.5383300000000  0.4735380000000 1.0
C      1  0.5734860000000  0.4677330000000  0.5303850000000 1.0
C      1  0.4719770000000  0.5755930000000  0.5464860000000 1.0
C      1  0.5348100000000  0.5785280000000  0.4754690000000 1.0
C      1  0.5288760000000  0.4267670000000  0.5399950000000 1.0
C      1  0.4656050000000  0.4787410000000  0.4194380000000 1.0
END
