TITL C-26726-4881-111 -0.00259861090264003 125000 -333.611498295105 0 0 60 (C1) n - 1
REM
REM in /home/nfs/bkarasulu/CARBON/AIRSS/Generating-Clusters/AIREBO/Higher-Symm/Only-C60
REM
REM
REM
REM
REM
REM ./C.cell (28575a23ae977d3b5fae324c64b13b57)
REM
REM compiler GCC version 9.2.1 20190827 (Red Hat 9.2.1-1)
REM options -cpp -mtune=generic -march=x86-64 -g -O0 -fpre-include=/usr/include/finclude/math-vector-fortran.h
REM seed 469279900 1237869725 -1399078893 1757012917 1358603977 1467302933 -102466814 -683246237 2089735560 1213412213 -892838324 -102615217 -764421101 -1688502431 -1083186852 1018656311 890638519 -709208725 1222447104 -2082260645 138614063 1181882938 -1152300011 -1561967273 -901709699 1902913970 -1722349773 2142458966 -1257240447 1420679485 -1559443206 -2071901523 -1688005889
REM
CELL 1.54180   50.00000   50.00000   50.00000   90.00000   90.00000   90.00000
LATT -1
SFAC C  
C      1  0.5481710000000  0.5500060000000  0.4834120000000 1.0
C      1  0.5484610000000  0.5157950000000  0.5741420000000 1.0
C      1  0.5435270000000  0.4521680000000  0.5187750000000 1.0
C      1  0.5445630000000  0.4840530000000  0.4295420000000 1.0
C      1  0.4945740000000  0.4682720000000  0.4331940000000 1.0
C      1  0.4988320000000  0.5645820000000  0.4636860000000 1.0
C      1  0.5028020000000  0.5332460000000  0.5623220000000 1.0
C      1  0.4972640000000  0.4366170000000  0.5377400000000 1.0
C      1  0.4355400000000  0.5422130000000  0.4834540000000 1.0
C      1  0.4490460000000  0.4958250000000  0.5463910000000 1.0
C      1  0.4477390000000  0.4329630000000  0.5024510000000 1.0
C      1  0.4287550000000  0.4919730000000  0.4599440000000 1.0
C      1  0.4787370000000  0.4569760000000  0.4950050000000 1.0
C      1  0.4690460000000  0.4892780000000  0.4390800000000 1.0
C      1  0.4731350000000  0.5535900000000  0.4806780000000 1.0
C      1  0.4849810000000  0.5129930000000  0.5464000000000 1.0
C      1  0.5118280000000  0.5619790000000  0.5465690000000 1.0
C      1  0.5039590000000  0.4579630000000  0.5635520000000 1.0
C      1  0.5031470000000  0.4459400000000  0.4580160000000 1.0
C      1  0.5050820000000  0.5453800000000  0.4361280000000 1.0
C      1  0.4577660000000  0.5313830000000  0.4600190000000 1.0
C      1  0.4586320000000  0.5225580000000  0.5309000000000 1.0
C      1  0.4619200000000  0.4522260000000  0.5241870000000 1.0
C      1  0.4414330000000  0.4776850000000  0.4808100000000 1.0
C      1  0.5094990000000  0.5216190000000  0.4217390000000 1.0
C      1  0.5146320000000  0.5729510000000  0.5165110000000 1.0
C      1  0.5066570000000  0.4812730000000  0.5798460000000 1.0
C      1  0.5087540000000  0.4332090000000  0.4834240000000 1.0
C      1  0.4907040000000  0.5052970000000  0.5778520000000 1.0
C      1  0.4932600000000  0.4321030000000  0.5103950000000 1.0
C      1  0.4919780000000  0.5002370000000  0.4212620000000 1.0
C      1  0.4958140000000  0.5729180000000  0.4965670000000 1.0
C      1  0.5510020000000  0.5091490000000  0.4479610000000 1.0
C      1  0.5559000000000  0.5441180000000  0.5148790000000 1.0
C      1  0.5481040000000  0.4893100000000  0.5568470000000 1.0
C      1  0.5464470000000  0.4613700000000  0.4878190000000 1.0
C      1  0.5035800000000  0.4896310000000  0.5303890000000 1.0
C      1  0.4995380000000  0.4786700000000  0.4868210000000 1.0
C      1  0.5108220000000  0.5107100000000  0.4849740000000 1.0
C      1  0.5117790000000  0.5176790000000  0.5171810000000 1.0
C      1  0.5369470000000  0.5135430000000  0.4194890000000 1.0
C      1  0.5411200000000  0.5718110000000  0.5074390000000 1.0
C      1  0.5345240000000  0.4886190000000  0.5857380000000 1.0
C      1  0.5370560000000  0.4321040000000  0.4921140000000 1.0
C      1  0.5349050000000  0.5226280000000  0.4694970000000 1.0
C      1  0.5294230000000  0.5373420000000  0.5304360000000 1.0
C      1  0.5297640000000  0.4749570000000  0.5381720000000 1.0
C      1  0.5265360000000  0.4742220000000  0.4738060000000 1.0
C      1  0.4497950000000  0.4499630000000  0.4784550000000 1.0
C      1  0.4483730000000  0.5059210000000  0.4450400000000 1.0
C      1  0.4547170000000  0.5464130000000  0.5083480000000 1.0
C      1  0.4411720000000  0.4676960000000  0.5435750000000 1.0
C      1  0.4706980000000  0.4845480000000  0.5227030000000 1.0
C      1  0.4606800000000  0.4926530000000  0.4951860000000 1.0
C      1  0.4773740000000  0.5137710000000  0.4795790000000 1.0
C      1  0.4829840000000  0.5269210000000  0.5085340000000 1.0
C      1  0.5286280000000  0.5531430000000  0.4580020000000 1.0
C      1  0.5343990000000  0.5381920000000  0.5632820000000 1.0
C      1  0.5283790000000  0.4420560000000  0.5460390000000 1.0
C      1  0.5251190000000  0.4675910000000  0.4437050000000 1.0
END
