TITL C-26739-6686-47 -2.97311414211988e-05 125000 -325.027441162638 0 0 60 (C1) n - 1
REM
REM in /home/nfs/bkarasulu/CARBON/AIRSS/Generating-Clusters/AIREBO/Higher-Symm/Only-C60
REM
REM
REM
REM
REM
REM ./C.cell (28575a23ae977d3b5fae324c64b13b57)
REM
REM compiler GCC version 9.2.1 20190827 (Red Hat 9.2.1-1)
REM options -cpp -mtune=generic -march=x86-64 -g -O0 -fpre-include=/usr/include/finclude/math-vector-fortran.h
REM seed -1877906103 1483276073 334359853 2089358691 1766960886 -1097452573 1516881533 1339879106 -1116181326 -1122771973 -744203163 705190812 1026344480 1150376910 878396734 -880614840 588048449 578069411 866375755 1922130869 651970447 -1594419632 396668538 -1289716747 -2096634062 1090764021 285793539 381827031 -600117141 -678227281 488730025 1913174400 489809069
REM
CELL 1.54180   50.00000   50.00000   50.00000   90.00000   90.00000   90.00000
LATT -1
SFAC C  
C      1  0.4426070000000  0.5507280000000  0.4912880000000 1.0
C      1  0.4751990000000  0.5485920000000  0.5516000000000 1.0
C      1  0.5418670000000  0.5499240000000  0.5400360000000 1.0
C      1  0.5512020000000  0.5488560000000  0.4729940000000 1.0
C      1  0.4904740000000  0.5497970000000  0.4424120000000 1.0
C      1  0.4621330000000  0.5155010000000  0.5161140000000 1.0
C      1  0.5050300000000  0.5135080000000  0.5430560000000 1.0
C      1  0.5442100000000  0.5129870000000  0.5096920000000 1.0
C      1  0.5210350000000  0.5129420000000  0.4627150000000 1.0
C      1  0.4689390000000  0.5142420000000  0.4661510000000 1.0
C      1  0.5281100000000  0.5635330000000  0.4932670000000 1.0
C      1  0.5023650000000  0.5633200000000  0.4713050000000 1.0
C      1  0.4735820000000  0.5645350000000  0.4885940000000 1.0
C      1  0.4809910000000  0.5643320000000  0.5219820000000 1.0
C      1  0.5149950000000  0.5641100000000  0.5246320000000 1.0
C      1  0.5189540000000  0.4647080000000  0.4350810000000 1.0
C      1  0.4471960000000  0.4605730000000  0.4525390000000 1.0
C      1  0.4363740000000  0.4642630000000  0.5315540000000 1.0
C      1  0.5144700000000  0.4652350000000  0.5724820000000 1.0
C      1  0.5564880000000  0.4590200000000  0.4992340000000 1.0
C      1  0.4526040000000  0.5029700000000  0.4902570000000 1.0
C      1  0.4744430000000  0.4988320000000  0.5407230000000 1.0
C      1  0.5345920000000  0.5002300000000  0.5397280000000 1.0
C      1  0.5441200000000  0.5013430000000  0.4801980000000 1.0
C      1  0.4936600000000  0.5020020000000  0.4518990000000 1.0
C      1  0.5358880000000  0.4818130000000  0.5681050000000 1.0
C      1  0.5510080000000  0.4728870000000  0.4769830000000 1.0
C      1  0.4943730000000  0.4739280000000  0.4425560000000 1.0
C      1  0.4490350000000  0.4745080000000  0.4950220000000 1.0
C      1  0.4476270000000  0.4800780000000  0.5472440000000 1.0
C      1  0.4737800000000  0.4518080000000  0.4514160000000 1.0
C      1  0.4482890000000  0.4437420000000  0.5095250000000 1.0
C      1  0.4956590000000  0.4538040000000  0.5550630000000 1.0
C      1  0.5392940000000  0.4520050000000  0.5200120000000 1.0
C      1  0.5451260000000  0.4566340000000  0.4512560000000 1.0
C      1  0.5419840000000  0.4282470000000  0.5324420000000 1.0
C      1  0.5659670000000  0.4450860000000  0.4376610000000 1.0
C      1  0.4765240000000  0.4272100000000  0.4378750000000 1.0
C      1  0.4425930000000  0.4172950000000  0.5088030000000 1.0
C      1  0.4804920000000  0.4317560000000  0.5607100000000 1.0
C      1  0.4132550000000  0.5224170000000  0.4614730000000 1.0
C      1  0.4477910000000  0.5193840000000  0.5820830000000 1.0
C      1  0.5649470000000  0.5246130000000  0.5762040000000 1.0
C      1  0.5925500000000  0.5211400000000  0.4806010000000 1.0
C      1  0.5095660000000  0.5209290000000  0.4057760000000 1.0
C      1  0.4988800000000  0.5258070000000  0.4303760000000 1.0
C      1  0.4333490000000  0.5268310000000  0.4793510000000 1.0
C      1  0.4636310000000  0.5243430000000  0.5604430000000 1.0
C      1  0.5470540000000  0.5274790000000  0.5558040000000 1.0
C      1  0.5657710000000  0.5253130000000  0.4777450000000 1.0
C      1  0.5032540000000  0.5412590000000  0.5451960000000 1.0
C      1  0.5445800000000  0.5412380000000  0.5115910000000 1.0
C      1  0.5247580000000  0.5410440000000  0.4608500000000 1.0
C      1  0.4696460000000  0.5425740000000  0.4631000000000 1.0
C      1  0.4564220000000  0.5428770000000  0.5168880000000 1.0
C      1  0.4926820000000  0.4539770000000  0.4771540000000 1.0
C      1  0.4776000000000  0.4592020000000  0.5030730000000 1.0
C      1  0.4902680000000  0.4711130000000  0.5288720000000 1.0
C      1  0.5215450000000  0.4723360000000  0.5272700000000 1.0
C      1  0.5191750000000  0.4492400000000  0.4719450000000 1.0
END
