TITL C-26740-8352-193 0.00281916989641353 125000 -303.494290042108 0 0 60 (C1) n - 1
REM
REM in /home/nfs/bkarasulu/CARBON/AIRSS/Generating-Clusters/AIREBO/Higher-Symm/Only-C60
REM
REM
REM
REM
REM
REM ./C.cell (28575a23ae977d3b5fae324c64b13b57)
REM
REM compiler GCC version 9.2.1 20190827 (Red Hat 9.2.1-1)
REM options -cpp -mtune=generic -march=x86-64 -g -O0 -fpre-include=/usr/include/finclude/math-vector-fortran.h
REM seed -1331555526 -1313280859 191211433 -236088904 -1185162124 1354149936 -285440267 1096929273 -2022361856 -1093401253 1693274655 -1101070302 -754262400 -883314241 1998345299 -1341343085 157278123 418949893 -1535855424 1249067085 1640011553 -526628266 1976086514 -1004564184 -606547500 742190378 -588521238 -1088967357 -967907558 -161793041 660822821 2079372590 1480980985
REM
CELL 1.54180   50.00000   50.00000   50.00000   90.00000   90.00000   90.00000
LATT -1
SFAC C  
C      1  0.4250240000000  0.4980780000000  0.5053340000000 1.0
C      1  0.5351440000000  0.5681310000000  0.5043520000000 1.0
C      1  0.5562830000000  0.4347060000000  0.5007080000000 1.0
C      1  0.4275050000000  0.5156920000000  0.4599120000000 1.0
C      1  0.5469350000000  0.5444810000000  0.4629100000000 1.0
C      1  0.5272720000000  0.4351390000000  0.4621920000000 1.0
C      1  0.5422450000000  0.4949220000000  0.5088140000000 1.0
C      1  0.4680760000000  0.4718110000000  0.5093130000000 1.0
C      1  0.4754720000000  0.5475620000000  0.5119400000000 1.0
C      1  0.4453900000000  0.4709660000000  0.4618650000000 1.0
C      1  0.4897020000000  0.5582000000000  0.4384890000000 1.0
C      1  0.5600880000000  0.4780810000000  0.4507410000000 1.0
C      1  0.4890360000000  0.4771180000000  0.5550090000000 1.0
C      1  0.4941440000000  0.5109700000000  0.5346820000000 1.0
C      1  0.5146200000000  0.4880260000000  0.5448790000000 1.0
C      1  0.5476950000000  0.5652400000000  0.4794030000000 1.0
C      1  0.5499240000000  0.4271450000000  0.4739920000000 1.0
C      1  0.4131410000000  0.5076970000000  0.4810870000000 1.0
C      1  0.4428490000000  0.4519150000000  0.5598110000000 1.0
C      1  0.4800160000000  0.5742700000000  0.5677630000000 1.0
C      1  0.5794580000000  0.4773990000000  0.5652720000000 1.0
C      1  0.4800640000000  0.4448320000000  0.4979790000000 1.0
C      1  0.4516830000000  0.5695050000000  0.5225880000000 1.0
C      1  0.5747360000000  0.5034630000000  0.5151600000000 1.0
C      1  0.4440970000000  0.4792770000000  0.5582210000000 1.0
C      1  0.4964360000000  0.5527790000000  0.5631020000000 1.0
C      1  0.5536240000000  0.4687160000000  0.5621710000000 1.0
C      1  0.4927150000000  0.4784390000000  0.4445980000000 1.0
C      1  0.4842280000000  0.5104170000000  0.4359020000000 1.0
C      1  0.5166530000000  0.5003640000000  0.4344710000000 1.0
C      1  0.5519150000000  0.5244980000000  0.5194750000000 1.0
C      1  0.5083830000000  0.4424550000000  0.5047210000000 1.0
C      1  0.4461080000000  0.5385540000000  0.5235590000000 1.0
C      1  0.5401750000000  0.4715250000000  0.5325770000000 1.0
C      1  0.4649720000000  0.4922560000000  0.5363500000000 1.0
C      1  0.5008410000000  0.5438110000000  0.5335090000000 1.0
C      1  0.5685280000000  0.4568650000000  0.5195310000000 1.0
C      1  0.4364090000000  0.4718940000000  0.5039340000000 1.0
C      1  0.5085780000000  0.5738000000000  0.5194540000000 1.0
C      1  0.4301450000000  0.4965730000000  0.5743100000000 1.0
C      1  0.5096500000000  0.5391950000000  0.5829410000000 1.0
C      1  0.5383360000000  0.4575250000000  0.5820110000000 1.0
C      1  0.5334560000000  0.5430560000000  0.5225450000000 1.0
C      1  0.5316110000000  0.4420490000000  0.5180610000000 1.0
C      1  0.4409570000000  0.5124000000000  0.5238960000000 1.0
C      1  0.4977620000000  0.5321050000000  0.4583430000000 1.0
C      1  0.5302500000000  0.4811210000000  0.4586270000000 1.0
C      1  0.4698070000000  0.4893350000000  0.4664800000000 1.0
C      1  0.5681750000000  0.4999750000000  0.4397250000000 1.0
C      1  0.4752070000000  0.4371240000000  0.4718350000000 1.0
C      1  0.4634200000000  0.5458810000000  0.4432980000000 1.0
C      1  0.5443930000000  0.5198610000000  0.4395930000000 1.0
C      1  0.4976420000000  0.4458790000000  0.4479330000000 1.0
C      1  0.4504080000000  0.5156310000000  0.4338690000000 1.0
C      1  0.5242850000000  0.5220120000000  0.4670330000000 1.0
C      1  0.5095860000000  0.4605950000000  0.4761690000000 1.0
C      1  0.4603210000000  0.5207400000000  0.4659980000000 1.0
C      1  0.4805680000000  0.5367930000000  0.4856640000000 1.0
C      1  0.5227240000000  0.4968280000000  0.4865210000000 1.0
C      1  0.4911370000000  0.4843230000000  0.4893790000000 1.0
END
