TITL C-26736-6558-124 0.00162722630024056 125000 -315.45531947339 0 0 60 (C1) n - 1
REM
REM in /home/nfs/bkarasulu/CARBON/AIRSS/Generating-Clusters/AIREBO/Higher-Symm/Only-C60
REM
REM
REM
REM
REM
REM ./C.cell (28575a23ae977d3b5fae324c64b13b57)
REM
REM compiler GCC version 9.2.1 20190827 (Red Hat 9.2.1-1)
REM options -cpp -mtune=generic -march=x86-64 -g -O0 -fpre-include=/usr/include/finclude/math-vector-fortran.h
REM seed -2076599407 -255191447 -224221841 1523277672 -2139044047 -1115596636 1959968984 -2047184054 -975327628 -1378859503 1472197634 -237087143 -13674190 1239225910 -2106946784 -1818338872 86101474 -705495399 1508711169 -185423393 -1916867715 658199112 135184984 -430322203 -1517112391 -1729628457 1259161150 -450681501 642698566 -1347953060 -1518859737 -1614097023 -946540615
REM
CELL 1.54180   50.00000   50.00000   50.00000   90.00000   90.00000   90.00000
LATT -1
SFAC C  
C      1  0.5323390000000  0.4467260000000  0.5371600000000 1.0
C      1  0.4839640000000  0.4425000000000  0.5478730000000 1.0
C      1  0.4313800000000  0.4678100000000  0.5443690000000 1.0
C      1  0.4433360000000  0.5271250000000  0.5423010000000 1.0
C      1  0.4914980000000  0.5616860000000  0.5263170000000 1.0
C      1  0.5400620000000  0.5481380000000  0.5275850000000 1.0
C      1  0.5589650000000  0.4969210000000  0.5349840000000 1.0
C      1  0.5186980000000  0.4720660000000  0.5480560000000 1.0
C      1  0.4712610000000  0.4582770000000  0.5675570000000 1.0
C      1  0.4527640000000  0.4780160000000  0.5598110000000 1.0
C      1  0.4638630000000  0.5028220000000  0.5475140000000 1.0
C      1  0.5075920000000  0.5573030000000  0.5485620000000 1.0
C      1  0.5217460000000  0.5271710000000  0.5472060000000 1.0
C      1  0.5341450000000  0.4961170000000  0.5505400000000 1.0
C      1  0.5851360000000  0.4978380000000  0.5415800000000 1.0
C      1  0.5417600000000  0.4444260000000  0.5091510000000 1.0
C      1  0.4873610000000  0.4153970000000  0.5478950000000 1.0
C      1  0.4398540000000  0.4633370000000  0.5184560000000 1.0
C      1  0.4340540000000  0.5328890000000  0.5197160000000 1.0
C      1  0.4832670000000  0.5795790000000  0.5072610000000 1.0
C      1  0.5443710000000  0.5630210000000  0.5007450000000 1.0
C      1  0.5296730000000  0.5181640000000  0.4755100000000 1.0
C      1  0.5438970000000  0.4873020000000  0.4767550000000 1.0
C      1  0.5272950000000  0.4570590000000  0.4791550000000 1.0
C      1  0.4967640000000  0.4497820000000  0.4922530000000 1.0
C      1  0.4676510000000  0.4633140000000  0.4815020000000 1.0
C      1  0.4460220000000  0.5243160000000  0.4914540000000 1.0
C      1  0.4765420000000  0.5344000000000  0.4840080000000 1.0
C      1  0.5446600000000  0.5008280000000  0.5079430000000 1.0
C      1  0.5242990000000  0.4736070000000  0.5087110000000 1.0
C      1  0.4969940000000  0.4605260000000  0.5245170000000 1.0
C      1  0.4690930000000  0.4765310000000  0.5128030000000 1.0
C      1  0.4668960000000  0.5106540000000  0.5145580000000 1.0
C      1  0.4916770000000  0.5341310000000  0.5133990000000 1.0
C      1  0.5249600000000  0.5289580000000  0.5074140000000 1.0
C      1  0.5569430000000  0.4959220000000  0.4502660000000 1.0
C      1  0.5288460000000  0.4419460000000  0.4527100000000 1.0
C      1  0.4916660000000  0.4553530000000  0.4587850000000 1.0
C      1  0.4489130000000  0.4684080000000  0.4572600000000 1.0
C      1  0.4459500000000  0.5230220000000  0.4609490000000 1.0
C      1  0.4791750000000  0.5667520000000  0.4793180000000 1.0
C      1  0.5346240000000  0.5515720000000  0.4760230000000 1.0
C      1  0.5363850000000  0.4558470000000  0.4292910000000 1.0
C      1  0.5046230000000  0.4252640000000  0.4496830000000 1.0
C      1  0.4628870000000  0.4621140000000  0.4320630000000 1.0
C      1  0.4491210000000  0.4963290000000  0.4474560000000 1.0
C      1  0.4758600000000  0.5831550000000  0.4497200000000 1.0
C      1  0.5189170000000  0.5472730000000  0.4503280000000 1.0
C      1  0.5839200000000  0.4954840000000  0.4463410000000 1.0
C      1  0.5296990000000  0.5298830000000  0.4311030000000 1.0
C      1  0.5368260000000  0.5027200000000  0.4313360000000 1.0
C      1  0.5220970000000  0.4799420000000  0.4241890000000 1.0
C      1  0.4938160000000  0.4762340000000  0.4325610000000 1.0
C      1  0.4743750000000  0.5011680000000  0.4302000000000 1.0
C      1  0.4705270000000  0.5294790000000  0.4426760000000 1.0
C      1  0.4891240000000  0.5518540000000  0.4503440000000 1.0
C      1  0.4995930000000  0.5107390000000  0.4826110000000 1.0
C      1  0.4929340000000  0.5152680000000  0.5718150000000 1.0
C      1  0.5030490000000  0.4962490000000  0.5081850000000 1.0
C      1  0.4969120000000  0.5051060000000  0.5398570000000 1.0
END
