TITL C-26738-6379-79 -0.000927152563939338 125000 -297.977961847012 0 0 60 (C1) n - 1
REM
REM in /home/nfs/bkarasulu/CARBON/AIRSS/Generating-Clusters/AIREBO/Higher-Symm/Only-C60
REM
REM
REM
REM
REM
REM ./C.cell (28575a23ae977d3b5fae324c64b13b57)
REM
REM compiler GCC version 9.2.1 20190827 (Red Hat 9.2.1-1)
REM options -cpp -mtune=generic -march=x86-64 -g -O0 -fpre-include=/usr/include/finclude/math-vector-fortran.h
REM seed -2039563064 -1564071991 -309600942 1677791840 -350636981 1003090437 1726582321 -37924156 1150540771 -1424897361 -1414890606 170650305 -1858369786 934959655 -1990700277 -600290011 826133060 577872452 1532315338 -1152319662 -1582201667 969030155 2038107885 -452427549 -1734760663 -1027264239 749612345 -1625599203 -2013939290 1467515069 -1171530171 -1053669554 -1839932661
REM
CELL 1.54180   50.00000   50.00000   50.00000   90.00000   90.00000   90.00000
LATT -1
SFAC C  
C      1  0.4669690000000  0.5219290000000  0.4495830000000 1.0
C      1  0.5311130000000  0.5189540000000  0.5567000000000 1.0
C      1  0.5311880000000  0.4797620000000  0.4453250000000 1.0
C      1  0.4654950000000  0.4812860000000  0.5567890000000 1.0
C      1  0.4994090000000  0.4619390000000  0.4817960000000 1.0
C      1  0.5005460000000  0.4614110000000  0.5159800000000 1.0
C      1  0.4990410000000  0.5408490000000  0.4847540000000 1.0
C      1  0.4998510000000  0.5388330000000  0.5187220000000 1.0
C      1  0.4768000000000  0.4240460000000  0.4831820000000 1.0
C      1  0.5313850000000  0.4356460000000  0.5136850000000 1.0
C      1  0.5343520000000  0.5656010000000  0.4882540000000 1.0
C      1  0.4712080000000  0.5753120000000  0.5133020000000 1.0
C      1  0.5154340000000  0.4893280000000  0.5626150000000 1.0
C      1  0.4802700000000  0.4892880000000  0.4396380000000 1.0
C      1  0.4813260000000  0.5092840000000  0.5678460000000 1.0
C      1  0.5154190000000  0.5082080000000  0.4360080000000 1.0
C      1  0.5790470000000  0.4747930000000  0.4992450000000 1.0
C      1  0.4249100000000  0.4627680000000  0.5066950000000 1.0
C      1  0.4240960000000  0.5292290000000  0.5025110000000 1.0
C      1  0.5789520000000  0.5261030000000  0.4968650000000 1.0
C      1  0.5312400000000  0.4554010000000  0.4911360000000 1.0
C      1  0.4741770000000  0.4418860000000  0.5070010000000 1.0
C      1  0.4689190000000  0.5540870000000  0.4919340000000 1.0
C      1  0.5323110000000  0.5428030000000  0.5088610000000 1.0
C      1  0.4994080000000  0.4724380000000  0.4494280000000 1.0
C      1  0.4959420000000  0.4767960000000  0.5460130000000 1.0
C      1  0.4984430000000  0.5253860000000  0.4544600000000 1.0
C      1  0.5006500000000  0.5239970000000  0.5493220000000 1.0
C      1  0.4632890000000  0.5616150000000  0.5413250000000 1.0
C      1  0.5463580000000  0.5562680000000  0.4583820000000 1.0
C      1  0.5318730000000  0.4496410000000  0.5431280000000 1.0
C      1  0.4667680000000  0.4398020000000  0.4555900000000 1.0
C      1  0.5488190000000  0.5169600000000  0.4941350000000 1.0
C      1  0.4497530000000  0.5314270000000  0.5012680000000 1.0
C      1  0.4496350000000  0.4608690000000  0.5000860000000 1.0
C      1  0.5494190000000  0.4830940000000  0.4982820000000 1.0
C      1  0.4735910000000  0.5103860000000  0.5086970000000 1.0
C      1  0.5126250000000  0.5034310000000  0.4845410000000 1.0
C      1  0.5055530000000  0.4998850000000  0.5138320000000 1.0
C      1  0.4825760000000  0.4980970000000  0.4814360000000 1.0
C      1  0.4928760000000  0.4206270000000  0.4558060000000 1.0
C      1  0.5098030000000  0.4264540000000  0.5371540000000 1.0
C      1  0.5159250000000  0.5680700000000  0.4608020000000 1.0
C      1  0.4911750000000  0.5771290000000  0.5394920000000 1.0
C      1  0.5493430000000  0.4961380000000  0.5435480000000 1.0
C      1  0.4520350000000  0.4920830000000  0.4533220000000 1.0
C      1  0.4487080000000  0.5080010000000  0.5457210000000 1.0
C      1  0.5463030000000  0.5033220000000  0.4607290000000 1.0
C      1  0.5168360000000  0.5698910000000  0.5476370000000 1.0
C      1  0.4902110000000  0.5686610000000  0.4507990000000 1.0
C      1  0.4818510000000  0.4332260000000  0.5368150000000 1.0
C      1  0.5191220000000  0.4286930000000  0.4504990000000 1.0
C      1  0.5281380000000  0.5303120000000  0.4706460000000 1.0
C      1  0.4707270000000  0.5316310000000  0.5350920000000 1.0
C      1  0.4673110000000  0.4689160000000  0.4729840000000 1.0
C      1  0.5292170000000  0.4777620000000  0.5241920000000 1.0
C      1  0.5314520000000  0.4510170000000  0.4596060000000 1.0
C      1  0.4692460000000  0.4486640000000  0.5556340000000 1.0
C      1  0.4699530000000  0.5527050000000  0.4601160000000 1.0
C      1  0.5316070000000  0.5478590000000  0.5410520000000 1.0
END
