TITL C-26726-4881-131 1.09501569806947e-06 125000 -303.026875321407 0 0 60 (C1) n - 1
REM
REM in /home/nfs/bkarasulu/CARBON/AIRSS/Generating-Clusters/AIREBO/Higher-Symm/Only-C60
REM
REM
REM
REM
REM
REM ./C.cell (28575a23ae977d3b5fae324c64b13b57)
REM
REM compiler GCC version 9.2.1 20190827 (Red Hat 9.2.1-1)
REM options -cpp -mtune=generic -march=x86-64 -g -O0 -fpre-include=/usr/include/finclude/math-vector-fortran.h
REM seed -713352514 -1238185950 -1435471749 1356674429 -1342333445 -1180285056 1633617192 -1640009953 -714296334 385144318 -936976431 897143474 655029572 -678157249 1660682750 -1786070116 974368033 689102102 47809956 -906458901 238956211 1441130470 1243948299 -87546144 2139209963 -1032651981 -1025987764 1341281384 1296697808 1991694269 4065257 -986702619 -1741251397
REM
CELL 1.54180   50.00000   50.00000   50.00000   90.00000   90.00000   90.00000
LATT -1
SFAC C  
C      1  0.5544770000000  0.5391900000000  0.4668450000000 1.0
C      1  0.5015290000000  0.5382980000000  0.5653380000000 1.0
C      1  0.4446750000000  0.5383030000000  0.4688440000000 1.0
C      1  0.4453430000000  0.4615910000000  0.4664510000000 1.0
C      1  0.4986060000000  0.4616550000000  0.5640680000000 1.0
C      1  0.5536420000000  0.4642900000000  0.4668680000000 1.0
C      1  0.4706010000000  0.5227780000000  0.5594610000000 1.0
C      1  0.4640420000000  0.5227780000000  0.4440460000000 1.0
C      1  0.5653170000000  0.5236020000000  0.4964590000000 1.0
C      1  0.5298600000000  0.4769310000000  0.5592670000000 1.0
C      1  0.5373480000000  0.4749460000000  0.4390630000000 1.0
C      1  0.4341130000000  0.4775000000000  0.4956080000000 1.0
C      1  0.5295650000000  0.5423660000000  0.4576750000000 1.0
C      1  0.5211580000000  0.5428290000000  0.5478210000000 1.0
C      1  0.4501380000000  0.5424410000000  0.4946420000000 1.0
C      1  0.4706150000000  0.4569360000000  0.4590480000000 1.0
C      1  0.4792240000000  0.4577970000000  0.5461410000000 1.0
C      1  0.5492150000000  0.4596660000000  0.4928040000000 1.0
C      1  0.5150470000000  0.5315900000000  0.4320520000000 1.0
C      1  0.5520860000000  0.5361230000000  0.5457340000000 1.0
C      1  0.4357790000000  0.5363010000000  0.5224800000000 1.0
C      1  0.4875490000000  0.4636640000000  0.4333380000000 1.0
C      1  0.4481110000000  0.4641280000000  0.5441860000000 1.0
C      1  0.5646140000000  0.4637340000000  0.5212040000000 1.0
C      1  0.4875850000000  0.5367040000000  0.4270600000000 1.0
C      1  0.5692630000000  0.5397190000000  0.5236370000000 1.0
C      1  0.4458240000000  0.5396350000000  0.5486160000000 1.0
C      1  0.5142090000000  0.4596850000000  0.4257210000000 1.0
C      1  0.4306570000000  0.4606980000000  0.5223640000000 1.0
C      1  0.5544850000000  0.4603090000000  0.5474250000000 1.0
C      1  0.5247070000000  0.5261490000000  0.5184040000000 1.0
C      1  0.4732450000000  0.5258740000000  0.5133020000000 1.0
C      1  0.5015320000000  0.5270810000000  0.4693680000000 1.0
C      1  0.4753230000000  0.4746640000000  0.5168700000000 1.0
C      1  0.5268740000000  0.4744470000000  0.5137570000000 1.0
C      1  0.4974730000000  0.4743150000000  0.4705840000000 1.0
C      1  0.4578280000000  0.4901830000000  0.5550550000000 1.0
C      1  0.4734660000000  0.4896510000000  0.4364520000000 1.0
C      1  0.5686640000000  0.4905610000000  0.5085680000000 1.0
C      1  0.5421220000000  0.5098200000000  0.5556390000000 1.0
C      1  0.5271630000000  0.5058560000000  0.4416440000000 1.0
C      1  0.4314810000000  0.5101720000000  0.5086570000000 1.0
C      1  0.4844910000000  0.4453300000000  0.5091420000000 1.0
C      1  0.5004770000000  0.4450540000000  0.4818720000000 1.0
C      1  0.5160960000000  0.4453560000000  0.5092460000000 1.0
C      1  0.5159140000000  0.5548670000000  0.5103000000000 1.0
C      1  0.5011150000000  0.5553000000000  0.4824040000000 1.0
C      1  0.4845080000000  0.5550410000000  0.5092990000000 1.0
C      1  0.4830150000000  0.5020470000000  0.5355070000000 1.0
C      1  0.4780200000000  0.5025790000000  0.4675880000000 1.0
C      1  0.5385490000000  0.5026890000000  0.4984090000000 1.0
C      1  0.5169040000000  0.4981330000000  0.5360230000000 1.0
C      1  0.5184550000000  0.4989140000000  0.4721190000000 1.0
C      1  0.4610770000000  0.4982100000000  0.4968980000000 1.0
C      1  0.4330100000000  0.5119540000000  0.4528030000000 1.0
C      1  0.5723990000000  0.5120440000000  0.4652640000000 1.0
C      1  0.4931670000000  0.5112090000000  0.5821260000000 1.0
C      1  0.5650790000000  0.4898350000000  0.4520970000000 1.0
C      1  0.4261640000000  0.4885130000000  0.4644270000000 1.0
C      1  0.5070070000000  0.4879630000000  0.5819130000000 1.0
END
