TITL C-26740-8352-21 0.000168997755108202 125000 -323.579210897792 0 0 60 (C1) n - 1
REM
REM in /home/nfs/bkarasulu/CARBON/AIRSS/Generating-Clusters/AIREBO/Higher-Symm/Only-C60
REM
REM
REM
REM
REM
REM ./C.cell (28575a23ae977d3b5fae324c64b13b57)
REM
REM compiler GCC version 9.2.1 20190827 (Red Hat 9.2.1-1)
REM options -cpp -mtune=generic -march=x86-64 -g -O0 -fpre-include=/usr/include/finclude/math-vector-fortran.h
REM seed -746530344 -44985807 1935411226 1550416608 1753504436 -727335429 807583082 2091523690 -757400712 1052152577 -579761783 -1727919088 1860968489 -16931036 136940319 1015057816 703716705 -1134563067 -1950155357 404904096 -1097216276 1308293337 -457990260 1734489255 660225848 -900753153 -488540431 -1870771457 -481106945 -956165852 109820099 98050172 1064329196
REM
CELL 1.54180   50.00000   50.00000   50.00000   90.00000   90.00000   90.00000
LATT -1
SFAC C  
C      1  0.5152010000000  0.4696090000000  0.5123850000000 1.0
C      1  0.4831550000000  0.4684160000000  0.5047240000000 1.0
C      1  0.5056730000000  0.4684900000000  0.4812970000000 1.0
C      1  0.4768840000000  0.4779660000000  0.4435330000000 1.0
C      1  0.5613250000000  0.4867030000000  0.5118260000000 1.0
C      1  0.4627330000000  0.4784380000000  0.5475300000000 1.0
C      1  0.5210520000000  0.4871980000000  0.5779400000000 1.0
C      1  0.4223160000000  0.4869600000000  0.4825810000000 1.0
C      1  0.5520110000000  0.4872570000000  0.4405690000000 1.0
C      1  0.4444030000000  0.5355300000000  0.4895300000000 1.0
C      1  0.5338570000000  0.5361510000000  0.4559700000000 1.0
C      1  0.5182760000000  0.5367850000000  0.5518660000000 1.0
C      1  0.5712140000000  0.5005540000000  0.5358850000000 1.0
C      1  0.4401000000000  0.4986240000000  0.5469390000000 1.0
C      1  0.4871570000000  0.4987950000000  0.4239740000000 1.0
C      1  0.5173680000000  0.5255970000000  0.5135830000000 1.0
C      1  0.4777690000000  0.5245000000000  0.5083830000000 1.0
C      1  0.5020020000000  0.5240730000000  0.4767360000000 1.0
C      1  0.3980740000000  0.4196170000000  0.5154530000000 1.0
C      1  0.5366990000000  0.4213800000000  0.3998500000000 1.0
C      1  0.5636340000000  0.4193450000000  0.5794410000000 1.0
C      1  0.4623580000000  0.4612220000000  0.5264350000000 1.0
C      1  0.4964220000000  0.4613960000000  0.4526900000000 1.0
C      1  0.5453830000000  0.4653830000000  0.5192870000000 1.0
C      1  0.5263700000000  0.4399680000000  0.4151710000000 1.0
C      1  0.5580810000000  0.4396110000000  0.5637770000000 1.0
C      1  0.4158940000000  0.4387490000000  0.5172800000000 1.0
C      1  0.5288380000000  0.5250480000000  0.4338960000000 1.0
C      1  0.5399010000000  0.5259660000000  0.5592820000000 1.0
C      1  0.4287220000000  0.5244010000000  0.5058690000000 1.0
C      1  0.5432660000000  0.4927220000000  0.5536010000000 1.0
C      1  0.4338300000000  0.4918360000000  0.5142030000000 1.0
C      1  0.5190780000000  0.4925490000000  0.4339530000000 1.0
C      1  0.4348590000000  0.4579300000000  0.5166190000000 1.0
C      1  0.5177330000000  0.4585920000000  0.4326350000000 1.0
C      1  0.5498040000000  0.4598240000000  0.5479860000000 1.0
C      1  0.4576580000000  0.5403860000000  0.4079560000000 1.0
C      1  0.5847620000000  0.5252750000000  0.4994880000000 1.0
C      1  0.4386710000000  0.5412940000000  0.5791410000000 1.0
C      1  0.4654090000000  0.5758030000000  0.5068440000000 1.0
C      1  0.5184820000000  0.5735710000000  0.4617330000000 1.0
C      1  0.5358040000000  0.5713250000000  0.5360780000000 1.0
C      1  0.5662110000000  0.4944910000000  0.4596830000000 1.0
C      1  0.4981730000000  0.4971540000000  0.5797880000000 1.0
C      1  0.4309460000000  0.4955150000000  0.4607590000000 1.0
C      1  0.5218530000000  0.4964220000000  0.5277990000000 1.0
C      1  0.4660400000000  0.4949350000000  0.5053580000000 1.0
C      1  0.5119950000000  0.4954570000000  0.4665490000000 1.0
C      1  0.5877500000000  0.5215950000000  0.5270650000000 1.0
C      1  0.4479220000000  0.5201470000000  0.5656010000000 1.0
C      1  0.4660770000000  0.5194010000000  0.4222680000000 1.0
C      1  0.5171840000000  0.5593270000000  0.5167010000000 1.0
C      1  0.4861150000000  0.5541930000000  0.5052200000000 1.0
C      1  0.5116350000000  0.5545990000000  0.4836310000000 1.0
C      1  0.4929460000000  0.5218660000000  0.5369670000000 1.0
C      1  0.4701730000000  0.5208760000000  0.4754280000000 1.0
C      1  0.5347860000000  0.5220490000000  0.4855550000000 1.0
C      1  0.4593670000000  0.5045830000000  0.4520410000000 1.0
C      1  0.5608530000000  0.5066840000000  0.4875830000000 1.0
C      1  0.4777450000000  0.5058720000000  0.5580830000000 1.0
END
