TITL C-26735-8354-96 -0.00239103454820909 125000 -386.365036961197 0 0 60 (D3) n - 1
REM
REM in /home/nfs/bkarasulu/CARBON/AIRSS/Generating-Clusters/AIREBO/Higher-Symm/Only-C60
REM
REM
REM
REM
REM
REM ./C.cell (28575a23ae977d3b5fae324c64b13b57)
REM
REM compiler GCC version 9.2.1 20190827 (Red Hat 9.2.1-1)
REM options -cpp -mtune=generic -march=x86-64 -g -O0 -fpre-include=/usr/include/finclude/math-vector-fortran.h
REM seed 139047947 1680082691 -1734517315 -1337629656 -1152278269 284074167 866590273 989046168 703962098 1637754581 -655116798 2051201427 -197807252 388322618 766196870 -761000575 -1369649478 1376741731 680481815 -1697090106 -654831635 -658233292 273788740 -160948922 1702237258 525172795 -1579429117 1047069422 -836941980 869518816 -1367229127 -2074148222 -1639356149
REM
CELL 1.54180   50.00000   50.00000   50.00000   90.00000   90.00000   90.00000
LATT -1
SFAC C  
C      1  0.5041860000000  0.5271660000000  0.6190890000000 1.0
C      1  0.4900750000000  0.5255780000000  0.3809000000000 1.0
C      1  0.4783890000000  0.5173840000000  0.6103610000000 1.0
C      1  0.4726200000000  0.5042130000000  0.3896300000000 1.0
C      1  0.4743890000000  0.4900890000000  0.6190940000000 1.0
C      1  0.4828030000000  0.4785700000000  0.3809090000000 1.0
C      1  0.4957580000000  0.4726350000000  0.6103720000000 1.0
C      1  0.5100340000000  0.4741390000000  0.3896400000000 1.0
C      1  0.5213970000000  0.4828220000000  0.6190990000000 1.0
C      1  0.5271490000000  0.4957760000000  0.3809090000000 1.0
C      1  0.5258270000000  0.5100520000000  0.6103670000000 1.0
C      1  0.5173720000000  0.5215770000000  0.3896300000000 1.0
C      1  0.5175170000000  0.4545550000000  0.5067620000000 1.0
C      1  0.5378010000000  0.4694730000000  0.4933970000000 1.0
C      1  0.5480330000000  0.4926870000000  0.5066180000000 1.0
C      1  0.5453660000000  0.5177230000000  0.4932490000000 1.0
C      1  0.5305980000000  0.5378950000000  0.5067450000000 1.0
C      1  0.5075360000000  0.5479980000000  0.4933780000000 1.0
C      1  0.4823170000000  0.5452570000000  0.5066010000000 1.0
C      1  0.4619680000000  0.5304240000000  0.4932400000000 1.0
C      1  0.4518830000000  0.5075540000000  0.5067450000000 1.0
C      1  0.4546640000000  0.4825250000000  0.4933880000000 1.0
C      1  0.4696490000000  0.4620600000000  0.5066180000000 1.0
C      1  0.4926670000000  0.4518490000000  0.4932590000000 1.0
C      1  0.4810030000000  0.4763550000000  0.4282690000000 1.0
C      1  0.4951780000000  0.4688740000000  0.5795990000000 1.0
C      1  0.5114070000000  0.4706050000000  0.4204150000000 1.0
C      1  0.5236340000000  0.4810250000000  0.5717400000000 1.0
C      1  0.5299710000000  0.4953430000000  0.4282690000000 1.0
C      1  0.5293720000000  0.5114180000000  0.5795920000000 1.0
C      1  0.5197480000000  0.5245450000000  0.4204040000000 1.0
C      1  0.5046210000000  0.5299830000000  0.5717280000000 1.0
C      1  0.4890430000000  0.5282560000000  0.4282590000000 1.0
C      1  0.4754310000000  0.5197590000000  0.5795860000000 1.0
C      1  0.4688640000000  0.5047990000000  0.4204040000000 1.0
C      1  0.4717290000000  0.4890380000000  0.5717340000000 1.0
C      1  0.4535750000000  0.5071700000000  0.4507870000000 1.0
C      1  0.4579780000000  0.4837000000000  0.5482070000000 1.0
C      1  0.4717640000000  0.4648600000000  0.4517990000000 1.0
C      1  0.4928170000000  0.4535810000000  0.5492170000000 1.0
C      1  0.5170000000000  0.4561900000000  0.4508030000000 1.0
C      1  0.5351300000000  0.4717760000000  0.5482150000000 1.0
C      1  0.5445470000000  0.4930980000000  0.4517990000000 1.0
C      1  0.5437950000000  0.5170080000000  0.5492080000000 1.0
C      1  0.5294370000000  0.5366080000000  0.4507870000000 1.0
C      1  0.5068810000000  0.5445540000000  0.5481970000000 1.0
C      1  0.4837010000000  0.5420110000000  0.4517830000000 1.0
C      1  0.4633770000000  0.5294430000000  0.5491990000000 1.0
C      1  0.4821070000000  0.5451880000000  0.5348000000000 1.0
C      1  0.4618730000000  0.5302220000000  0.4651030000000 1.0
C      1  0.4519610000000  0.5077650000000  0.5348830000000 1.0
C      1  0.4545820000000  0.4827230000000  0.4651890000000 1.0
C      1  0.4698150000000  0.4619240000000  0.5348170000000 1.0
C      1  0.4928880000000  0.4518570000000  0.4651220000000 1.0
C      1  0.5172980000000  0.4545280000000  0.5348990000000 1.0
C      1  0.5376690000000  0.4692920000000  0.4651990000000 1.0
C      1  0.5480690000000  0.4929100000000  0.5348160000000 1.0
C      1  0.5452470000000  0.5178990000000  0.4651120000000 1.0
C      1  0.5307330000000  0.5377300000000  0.5348820000000 1.0
C      1  0.5077570000000  0.5479630000000  0.4651790000000 1.0
END
