TITL C-26726-4881-76 -0.000485378175018989 125000 -326.379013569175 0 0 60 (C1) n - 1
REM
REM in /home/nfs/bkarasulu/CARBON/AIRSS/Generating-Clusters/AIREBO/Higher-Symm/Only-C60
REM
REM
REM
REM
REM
REM ./C.cell (28575a23ae977d3b5fae324c64b13b57)
REM
REM compiler GCC version 9.2.1 20190827 (Red Hat 9.2.1-1)
REM options -cpp -mtune=generic -march=x86-64 -g -O0 -fpre-include=/usr/include/finclude/math-vector-fortran.h
REM seed 246902694 1484953433 -232320007 -198732882 -1283985798 1670067427 559142086 -74805898 96591492 923151493 936775042 877350897 2124271052 -2115729761 -430485907 268076088 -80520596 -1163973363 -560774805 -354730951 54558080 158125112 -1451135186 -1333801502 1794784358 1041119895 1768791807 863768043 332085650 1201967724 -1613474793 99603017 -1871753653
REM
CELL 1.54180   50.00000   50.00000   50.00000   90.00000   90.00000   90.00000
LATT -1
SFAC C  
C      1  0.4654030000000  0.5129790000000  0.4563160000000 1.0
C      1  0.4686760000000  0.5418120000000  0.4742340000000 1.0
C      1  0.4583870000000  0.5447630000000  0.5263950000000 1.0
C      1  0.4618320000000  0.4855760000000  0.5599280000000 1.0
C      1  0.4594510000000  0.4651260000000  0.5328020000000 1.0
C      1  0.4649260000000  0.4688120000000  0.4987260000000 1.0
C      1  0.4712480000000  0.4814220000000  0.4675760000000 1.0
C      1  0.5769930000000  0.4836440000000  0.4745990000000 1.0
C      1  0.5686190000000  0.5098020000000  0.4694170000000 1.0
C      1  0.5577080000000  0.5252630000000  0.4919200000000 1.0
C      1  0.5793960000000  0.5274600000000  0.5123410000000 1.0
C      1  0.5785820000000  0.5041530000000  0.5283460000000 1.0
C      1  0.5566020000000  0.4872910000000  0.5180760000000 1.0
C      1  0.5659770000000  0.4703310000000  0.4965670000000 1.0
C      1  0.5315860000000  0.4595590000000  0.5437950000000 1.0
C      1  0.5302250000000  0.4413740000000  0.4929760000000 1.0
C      1  0.5322520000000  0.4641920000000  0.4446700000000 1.0
C      1  0.5362960000000  0.5170370000000  0.4358530000000 1.0
C      1  0.5327180000000  0.5549820000000  0.4731320000000 1.0
C      1  0.5304250000000  0.5588460000000  0.5300240000000 1.0
C      1  0.5314590000000  0.5116890000000  0.5635040000000 1.0
C      1  0.5399740000000  0.4848330000000  0.5550310000000 1.0
C      1  0.5406650000000  0.4488490000000  0.5188150000000 1.0
C      1  0.5401460000000  0.4485350000000  0.4672400000000 1.0
C      1  0.5435290000000  0.4892400000000  0.4360850000000 1.0
C      1  0.5449750000000  0.5379430000000  0.4537510000000 1.0
C      1  0.5397670000000  0.5600980000000  0.5012110000000 1.0
C      1  0.5371510000000  0.5377460000000  0.5502660000000 1.0
C      1  0.4800720000000  0.4611920000000  0.4451680000000 1.0
C      1  0.4850400000000  0.5172460000000  0.4318630000000 1.0
C      1  0.4836820000000  0.5653170000000  0.4603300000000 1.0
C      1  0.4785730000000  0.5654940000000  0.5357210000000 1.0
C      1  0.4851790000000  0.4956940000000  0.5801410000000 1.0
C      1  0.4811530000000  0.4460060000000  0.5472320000000 1.0
C      1  0.4775140000000  0.4383890000000  0.4902040000000 1.0
C      1  0.5057040000000  0.4587450000000  0.4357330000000 1.0
C      1  0.5106930000000  0.5219070000000  0.4239420000000 1.0
C      1  0.5104970000000  0.5700780000000  0.4636170000000 1.0
C      1  0.5054460000000  0.5721790000000  0.5355990000000 1.0
C      1  0.5083870000000  0.5100480000000  0.5804890000000 1.0
C      1  0.5076790000000  0.4475330000000  0.5536500000000 1.0
C      1  0.5036850000000  0.4309020000000  0.4933870000000 1.0
C      1  0.4224340000000  0.4836990000000  0.4692490000000 1.0
C      1  0.4325630000000  0.5092250000000  0.4642800000000 1.0
C      1  0.4418370000000  0.5291400000000  0.4842080000000 1.0
C      1  0.4383340000000  0.5307410000000  0.5120340000000 1.0
C      1  0.4331170000000  0.4901820000000  0.5492480000000 1.0
C      1  0.4310720000000  0.4765710000000  0.5185290000000 1.0
C      1  0.4324000000000  0.4681070000000  0.4888330000000 1.0
C      1  0.4985730000000  0.4720560000000  0.4949540000000 1.0
C      1  0.4992330000000  0.4978770000000  0.4728440000000 1.0
C      1  0.5048600000000  0.5253470000000  0.4734550000000 1.0
C      1  0.4873800000000  0.5378380000000  0.4998100000000 1.0
C      1  0.4846230000000  0.5262400000000  0.5316580000000 1.0
C      1  0.4847520000000  0.4950990000000  0.5402670000000 1.0
C      1  0.4973550000000  0.4753720000000  0.5255850000000 1.0
C      1  0.5373020000000  0.5075890000000  0.5062450000000 1.0
C      1  0.4250880000000  0.5095410000000  0.5246600000000 1.0
C      1  0.5056290000000  0.5109380000000  0.5100770000000 1.0
C      1  0.4737670000000  0.5013850000000  0.5028740000000 1.0
END
