TITL C-26731-8310-149 -0.000192948390376677 125000 -354.366891961893 0 0 60 (C1) n - 1
REM
REM in /home/nfs/bkarasulu/CARBON/AIRSS/Generating-Clusters/AIREBO/Higher-Symm/Only-C60
REM
REM
REM
REM
REM
REM ./C.cell (28575a23ae977d3b5fae324c64b13b57)
REM
REM compiler GCC version 9.2.1 20190827 (Red Hat 9.2.1-1)
REM options -cpp -mtune=generic -march=x86-64 -g -O0 -fpre-include=/usr/include/finclude/math-vector-fortran.h
REM seed 640994709 -886649579 -851692503 77949224 -947338364 1707680308 -1566367011 1459399524 -484481255 1784463125 -398688287 -216525683 843409829 1925615957 -860606894 -491602244 -1920373689 2114384318 615160003 -1372575234 -89874967 198743761 541921943 47242269 -392225870 1308057879 -1383274277 823168764 895949361 -208869541 -367944572 474253590 1954703820
REM
CELL 1.54180   50.00000   50.00000   50.00000   90.00000   90.00000   90.00000
LATT -1
SFAC C  
C      1  0.4305070000000  0.4575730000000  0.5272760000000 1.0
C      1  0.4292630000000  0.5404250000000  0.5253220000000 1.0
C      1  0.4980730000000  0.5817200000000  0.5259460000000 1.0
C      1  0.5695910000000  0.5425630000000  0.5260260000000 1.0
C      1  0.5715380000000  0.4610280000000  0.5273830000000 1.0
C      1  0.5000790000000  0.4181120000000  0.5251110000000 1.0
C      1  0.4742670000000  0.4876460000000  0.4498710000000 1.0
C      1  0.4762980000000  0.5162190000000  0.4494470000000 1.0
C      1  0.5021290000000  0.5286270000000  0.4497860000000 1.0
C      1  0.5258240000000  0.5125490000000  0.4500190000000 1.0
C      1  0.5236810000000  0.4840290000000  0.4500100000000 1.0
C      1  0.4979040000000  0.4714870000000  0.4495620000000 1.0
C      1  0.5795430000000  0.4927820000000  0.5284660000000 1.0
C      1  0.5319620000000  0.4286310000000  0.5305070000000 1.0
C      1  0.4535720000000  0.4343910000000  0.5280480000000 1.0
C      1  0.4227340000000  0.5078620000000  0.5327580000000 1.0
C      1  0.4664490000000  0.5730690000000  0.5275190000000 1.0
C      1  0.5460820000000  0.5654250000000  0.5280930000000 1.0
C      1  0.5255500000000  0.5840980000000  0.5300800000000 1.0
C      1  0.5854140000000  0.5199390000000  0.5298220000000 1.0
C      1  0.5616820000000  0.4366770000000  0.5328440000000 1.0
C      1  0.4738340000000  0.4153860000000  0.5290780000000 1.0
C      1  0.4149690000000  0.4785450000000  0.5333180000000 1.0
C      1  0.4399290000000  0.5648420000000  0.5290410000000 1.0
C      1  0.4715010000000  0.5091780000000  0.5158810000000 1.0
C      1  0.4934780000000  0.5294140000000  0.5160530000000 1.0
C      1  0.5221650000000  0.5203260000000  0.5154700000000 1.0
C      1  0.5285860000000  0.4908680000000  0.5154310000000 1.0
C      1  0.5063400000000  0.4704920000000  0.5153270000000 1.0
C      1  0.4779260000000  0.4796030000000  0.5158920000000 1.0
C      1  0.4581190000000  0.5585780000000  0.4647540000000 1.0
C      1  0.5295540000000  0.5655380000000  0.4652420000000 1.0
C      1  0.5714460000000  0.5070790000000  0.4658040000000 1.0
C      1  0.5420300000000  0.4414210000000  0.4637470000000 1.0
C      1  0.4702710000000  0.4346550000000  0.4651190000000 1.0
C      1  0.4284240000000  0.4930500000000  0.4647680000000 1.0
C      1  0.5039390000000  0.5555480000000  0.4599890000000 1.0
C      1  0.5500910000000  0.5243780000000  0.4602900000000 1.0
C      1  0.5460840000000  0.4688690000000  0.4600650000000 1.0
C      1  0.4959320000000  0.4441680000000  0.4588140000000 1.0
C      1  0.4500820000000  0.4758900000000  0.4603070000000 1.0
C      1  0.4536370000000  0.5315120000000  0.4588860000000 1.0
C      1  0.4358670000000  0.5176400000000  0.4754560000000 1.0
C      1  0.4829140000000  0.5634860000000  0.4765100000000 1.0
C      1  0.5465500000000  0.5466780000000  0.4766910000000 1.0
C      1  0.5635190000000  0.4827620000000  0.4769470000000 1.0
C      1  0.5171380000000  0.4353540000000  0.4746890000000 1.0
C      1  0.4536180000000  0.4537090000000  0.4768810000000 1.0
C      1  0.5116610000000  0.4529660000000  0.5406430000000 1.0
C      1  0.4652220000000  0.4688930000000  0.5435860000000 1.0
C      1  0.4537080000000  0.5130590000000  0.5410850000000 1.0
C      1  0.4910490000000  0.5464180000000  0.5433610000000 1.0
C      1  0.5356070000000  0.5303530000000  0.5431850000000 1.0
C      1  0.5437550000000  0.4849290000000  0.5433990000000 1.0
C      1  0.4863180000000  0.5585870000000  0.5055580000000 1.0
C      1  0.5438230000000  0.5413340000000  0.5056260000000 1.0
C      1  0.5576660000000  0.4821540000000  0.5060050000000 1.0
C      1  0.5136780000000  0.4394900000000  0.5033870000000 1.0
C      1  0.4558680000000  0.4589060000000  0.5060020000000 1.0
C      1  0.4415570000000  0.5190860000000  0.5038150000000 1.0
END
