TITL C-26741-8371-114 -0.00185016074460495 125000 -383.334989000117 0 0 60 (C1) n - 1
REM
REM in /home/nfs/bkarasulu/CARBON/AIRSS/Generating-Clusters/AIREBO/Higher-Symm/Only-C60
REM
REM
REM
REM
REM
REM ./C.cell (28575a23ae977d3b5fae324c64b13b57)
REM
REM compiler GCC version 9.2.1 20190827 (Red Hat 9.2.1-1)
REM options -cpp -mtune=generic -march=x86-64 -g -O0 -fpre-include=/usr/include/finclude/math-vector-fortran.h
REM seed -959213282 -2047716347 -911886534 928576751 -1168182918 1797226938 169168905 2117032624 148304622 -702656752 1347571720 2060609284 -2031632676 1378180493 -1233212880 -1744449531 1315517027 -746261079 1265003758 1703986975 -1662082335 -1095469574 110241309 220494470 -2088564343 -1256810521 -96727692 1921085184 -1006504985 1803636139 -894665420 890720816 -774627753
REM
CELL 1.54180   50.00000   50.00000   50.00000   90.00000   90.00000   90.00000
LATT -1
SFAC C  
C      1  0.5623210000000  0.4894090000000  0.4275460000000 1.0
C      1  0.5589070000000  0.5652500000000  0.4700980000000 1.0
C      1  0.5610190000000  0.5490610000000  0.5523110000000 1.0
C      1  0.5628130000000  0.4642260000000  0.5642590000000 1.0
C      1  0.5588970000000  0.4298270000000  0.4849850000000 1.0
C      1  0.5637490000000  0.4905450000000  0.5728900000000 1.0
C      1  0.5580250000000  0.5656940000000  0.5303550000000 1.0
C      1  0.5621640000000  0.5485460000000  0.4482350000000 1.0
C      1  0.5589330000000  0.4630800000000  0.4354960000000 1.0
C      1  0.5618190000000  0.4311620000000  0.5124960000000 1.0
C      1  0.4903900000000  0.4562090000000  0.5525560000000 1.0
C      1  0.4874430000000  0.4465910000000  0.4769940000000 1.0
C      1  0.4926910000000  0.5090710000000  0.4204850000000 1.0
C      1  0.4868720000000  0.5567230000000  0.4852570000000 1.0
C      1  0.4910220000000  0.5320170000000  0.5638620000000 1.0
C      1  0.4874730000000  0.4634730000000  0.4545730000000 1.0
C      1  0.4921750000000  0.4334110000000  0.5325030000000 1.0
C      1  0.4922120000000  0.5050600000000  0.5752550000000 1.0
C      1  0.4866950000000  0.5560820000000  0.5132730000000 1.0
C      1  0.4919480000000  0.5357060000000  0.4330850000000 1.0
C      1  0.5396270000000  0.4386050000000  0.5282970000000 1.0
C      1  0.5354350000000  0.4550850000000  0.4491100000000 1.0
C      1  0.5401460000000  0.5331870000000  0.4394500000000 1.0
C      1  0.5351430000000  0.5641480000000  0.5138120000000 1.0
C      1  0.5405450000000  0.5065190000000  0.5704670000000 1.0
C      1  0.5355420000000  0.4395030000000  0.4723120000000 1.0
C      1  0.5395450000000  0.4542210000000  0.5516200000000 1.0
C      1  0.5394260000000  0.5325930000000  0.5601030000000 1.0
C      1  0.5354640000000  0.5643470000000  0.4858980000000 1.0
C      1  0.5402490000000  0.5069430000000  0.4294750000000 1.0
C      1  0.4618800000000  0.4729100000000  0.5444610000000 1.0
C      1  0.4639600000000  0.4443020000000  0.4913930000000 1.0
C      1  0.4644180000000  0.5071150000000  0.4377340000000 1.0
C      1  0.4632780000000  0.5495560000000  0.4716980000000 1.0
C      1  0.4652810000000  0.5367020000000  0.5511780000000 1.0
C      1  0.4643110000000  0.4773240000000  0.4489450000000 1.0
C      1  0.4655570000000  0.4465680000000  0.5232020000000 1.0
C      1  0.4639980000000  0.5032310000000  0.5576310000000 1.0
C      1  0.4630440000000  0.5481240000000  0.5261060000000 1.0
C      1  0.4660910000000  0.5400940000000  0.4458840000000 1.0
C      1  0.4239020000000  0.5242940000000  0.4679870000000 1.0
C      1  0.4398790000000  0.5398960000000  0.5125400000000 1.0
C      1  0.4340110000000  0.5014340000000  0.5438600000000 1.0
C      1  0.4359130000000  0.4584830000000  0.5155050000000 1.0
C      1  0.4376450000000  0.4738950000000  0.4626090000000 1.0
C      1  0.4241910000000  0.5231820000000  0.5290300000000 1.0
C      1  0.4399590000000  0.5405610000000  0.4847150000000 1.0
C      1  0.4342770000000  0.5029860000000  0.4530270000000 1.0
C      1  0.4370110000000  0.4572470000000  0.4847000000000 1.0
C      1  0.4263860000000  0.4740000000000  0.5379080000000 1.0
C      1  0.5118250000000  0.5570850000000  0.4719510000000 1.0
C      1  0.5139920000000  0.5421780000000  0.5515970000000 1.0
C      1  0.5150930000000  0.4661560000000  0.5604090000000 1.0
C      1  0.5118890000000  0.4377800000000  0.4878430000000 1.0
C      1  0.5148680000000  0.4936780000000  0.4277260000000 1.0
C      1  0.5113720000000  0.5560150000000  0.5269800000000 1.0
C      1  0.5148440000000  0.5441440000000  0.4468350000000 1.0
C      1  0.5118630000000  0.4691740000000  0.4418320000000 1.0
C      1  0.5144670000000  0.4338150000000  0.5158770000000 1.0
C      1  0.5161060000000  0.4917740000000  0.5717800000000 1.0
END
