TITL C-26741-8371-42 0.00181838670631102 125000 -340.931496572552 0 0 60 (C1) n - 1
REM
REM in /home/nfs/bkarasulu/CARBON/AIRSS/Generating-Clusters/AIREBO/Higher-Symm/Only-C60
REM
REM
REM
REM
REM
REM ./C.cell (28575a23ae977d3b5fae324c64b13b57)
REM
REM compiler GCC version 9.2.1 20190827 (Red Hat 9.2.1-1)
REM options -cpp -mtune=generic -march=x86-64 -g -O0 -fpre-include=/usr/include/finclude/math-vector-fortran.h
REM seed -1506161616 1647677194 -1729431230 -944819343 1713009562 1083469034 441151246 -1546459233 1300561845 -1088127595 1158152738 380670217 52347878 119820661 1884319891 -95004651 -874418805 957349873 -147229822 -802835306 847377471 -2095065679 1612729888 -1219287395 -839374540 -1014901455 -680506564 447879539 -1588142240 -628690448 -1645975224 -16856357 -514815891
REM
CELL 1.54180   50.00000   50.00000   50.00000   90.00000   90.00000   90.00000
LATT -1
SFAC C  
C      1  0.4860680000000  0.4878810000000  0.5644660000000 1.0
C      1  0.5247710000000  0.4872600000000  0.4306990000000 1.0
C      1  0.4732380000000  0.5122490000000  0.5699120000000 1.0
C      1  0.5171290000000  0.5142940000000  0.4205970000000 1.0
C      1  0.5142460000000  0.4881020000000  0.5635690000000 1.0
C      1  0.4896040000000  0.4925170000000  0.4395770000000 1.0
C      1  0.5268710000000  0.5126210000000  0.5686840000000 1.0
C      1  0.4863430000000  0.5194410000000  0.4240840000000 1.0
C      1  0.5142240000000  0.4457270000000  0.5432510000000 1.0
C      1  0.4821780000000  0.4607090000000  0.4466460000000 1.0
C      1  0.5128870000000  0.5548000000000  0.5462060000000 1.0
C      1  0.4838970000000  0.5450230000000  0.4388870000000 1.0
C      1  0.4857400000000  0.4453460000000  0.5440970000000 1.0
C      1  0.5134820000000  0.4610210000000  0.4456180000000 1.0
C      1  0.4844250000000  0.5543260000000  0.5458840000000 1.0
C      1  0.5156350000000  0.5352720000000  0.4459430000000 1.0
C      1  0.5266560000000  0.5763530000000  0.5340870000000 1.0
C      1  0.4688800000000  0.5606520000000  0.4541350000000 1.0
C      1  0.5282890000000  0.4238690000000  0.5325950000000 1.0
C      1  0.4671410000000  0.4378680000000  0.4551570000000 1.0
C      1  0.4708550000000  0.5752060000000  0.5324740000000 1.0
C      1  0.5341140000000  0.5591080000000  0.4541160000000 1.0
C      1  0.4719280000000  0.4231090000000  0.5337610000000 1.0
C      1  0.5270620000000  0.4372310000000  0.4549550000000 1.0
C      1  0.4668800000000  0.5282920000000  0.4941740000000 1.0
C      1  0.5348670000000  0.5181350000000  0.5220570000000 1.0
C      1  0.4604250000000  0.4706520000000  0.4922430000000 1.0
C      1  0.5410110000000  0.4847110000000  0.5209380000000 1.0
C      1  0.5375020000000  0.5288810000000  0.4913590000000 1.0
C      1  0.4596470000000  0.5171860000000  0.5241300000000 1.0
C      1  0.5388500000000  0.4716550000000  0.4895610000000 1.0
C      1  0.4568110000000  0.4831950000000  0.5240780000000 1.0
C      1  0.5238140000000  0.4178770000000  0.5055400000000 1.0
C      1  0.4653420000000  0.4398390000000  0.4875360000000 1.0
C      1  0.5238000000000  0.5821570000000  0.5067440000000 1.0
C      1  0.4701290000000  0.5570140000000  0.4858490000000 1.0
C      1  0.4754440000000  0.4169760000000  0.5065460000000 1.0
C      1  0.5309340000000  0.4418060000000  0.4866130000000 1.0
C      1  0.4759490000000  0.5805970000000  0.5053920000000 1.0
C      1  0.5333930000000  0.5599520000000  0.4868870000000 1.0
C      1  0.4361130000000  0.5161150000000  0.4921890000000 1.0
C      1  0.5660900000000  0.5153910000000  0.5158660000000 1.0
C      1  0.4322130000000  0.4854310000000  0.4929680000000 1.0
C      1  0.5754620000000  0.4851860000000  0.5233740000000 1.0
C      1  0.5674110000000  0.5152010000000  0.4840450000000 1.0
C      1  0.4271820000000  0.5100510000000  0.5235030000000 1.0
C      1  0.5679160000000  0.4844070000000  0.4915170000000 1.0
C      1  0.4231460000000  0.4783820000000  0.5237920000000 1.0
C      1  0.5256510000000  0.4711820000000  0.5441660000000 1.0
C      1  0.4778450000000  0.4840290000000  0.4704910000000 1.0
C      1  0.5267940000000  0.5306320000000  0.5474150000000 1.0
C      1  0.4877680000000  0.5112900000000  0.4807620000000 1.0
C      1  0.4737290000000  0.4704950000000  0.5462020000000 1.0
C      1  0.5257920000000  0.4864140000000  0.4646760000000 1.0
C      1  0.4709750000000  0.5299680000000  0.5484560000000 1.0
C      1  0.5163440000000  0.5158290000000  0.4716840000000 1.0
C      1  0.4997560000000  0.4036920000000  0.5001810000000 1.0
C      1  0.4981660000000  0.4394000000000  0.4824640000000 1.0
C      1  0.4995840000000  0.5952240000000  0.5001940000000 1.0
C      1  0.5016060000000  0.5627740000000  0.4770070000000 1.0
END
