TITL C-26732-6566-49 -0.0031995521833031 125000 -350.524495972996 0 0 60 (C1) n - 1
REM
REM in /home/nfs/bkarasulu/CARBON/AIRSS/Generating-Clusters/AIREBO/Higher-Symm/Only-C60
REM
REM
REM
REM
REM
REM ./C.cell (28575a23ae977d3b5fae324c64b13b57)
REM
REM compiler GCC version 9.2.1 20190827 (Red Hat 9.2.1-1)
REM options -cpp -mtune=generic -march=x86-64 -g -O0 -fpre-include=/usr/include/finclude/math-vector-fortran.h
REM seed 1139283665 315734704 1630099123 1586019234 1478873509 -968629793 1331518958 616746788 -1544628661 -58992643 1849857037 -448343663 1528212342 138707079 -1693621159 1207405830 -1103381893 1139617573 -1343105932 117509515 600784782 863477176 -251573796 339574124 269445605 -335886279 207206179 -438788955 -2135412168 1643953505 639046304 -2091028920 -1278630424
REM
CELL 1.54180   50.00000   50.00000   50.00000   90.00000   90.00000   90.00000
LATT -1
SFAC C  
C      1  0.4695350000000  0.5300530000000  0.5597120000000 1.0
C      1  0.4637560000000  0.5544950000000  0.4862100000000 1.0
C      1  0.4759770000000  0.4774060000000  0.4448410000000 1.0
C      1  0.4624600000000  0.4381780000000  0.5258650000000 1.0
C      1  0.5297530000000  0.5211070000000  0.5634190000000 1.0
C      1  0.5347320000000  0.5606110000000  0.4768500000000 1.0
C      1  0.5438990000000  0.4758540000000  0.4330150000000 1.0
C      1  0.5299480000000  0.4359910000000  0.5234960000000 1.0
C      1  0.4559980000000  0.4514740000000  0.5495460000000 1.0
C      1  0.4635490000000  0.5563660000000  0.5530570000000 1.0
C      1  0.4570380000000  0.5469640000000  0.4607650000000 1.0
C      1  0.4658700000000  0.4515090000000  0.4484010000000 1.0
C      1  0.5309100000000  0.4385600000000  0.5518310000000 1.0
C      1  0.5277190000000  0.5494680000000  0.5613620000000 1.0
C      1  0.5404720000000  0.5561390000000  0.4495690000000 1.0
C      1  0.5490810000000  0.4540910000000  0.4500070000000 1.0
C      1  0.4832140000000  0.4188160000000  0.5241690000000 1.0
C      1  0.4854060000000  0.5206390000000  0.5806920000000 1.0
C      1  0.4819710000000  0.5759200000000  0.4875800000000 1.0
C      1  0.4971240000000  0.4881450000000  0.4299200000000 1.0
C      1  0.5069090000000  0.4273620000000  0.5113390000000 1.0
C      1  0.5089690000000  0.5067470000000  0.5743460000000 1.0
C      1  0.5119610000000  0.5731070000000  0.4882710000000 1.0
C      1  0.5193910000000  0.4750160000000  0.4182310000000 1.0
C      1  0.4799680000000  0.5720170000000  0.5304130000000 1.0
C      1  0.4765030000000  0.5339430000000  0.4386450000000 1.0
C      1  0.4795710000000  0.4318200000000  0.4689230000000 1.0
C      1  0.4764090000000  0.4687720000000  0.5664640000000 1.0
C      1  0.5280220000000  0.5562190000000  0.5338980000000 1.0
C      1  0.5240050000000  0.5386950000000  0.4281220000000 1.0
C      1  0.5266590000000  0.4439180000000  0.4699820000000 1.0
C      1  0.5305050000000  0.4663310000000  0.5574560000000 1.0
C      1  0.5412950000000  0.5381200000000  0.4931940000000 1.0
C      1  0.5461420000000  0.5012190000000  0.4459610000000 1.0
C      1  0.5428280000000  0.4630030000000  0.5104090000000 1.0
C      1  0.5409100000000  0.5103860000000  0.5355610000000 1.0
C      1  0.4601650000000  0.5313290000000  0.5108630000000 1.0
C      1  0.4647050000000  0.4962250000000  0.4636950000000 1.0
C      1  0.4620520000000  0.4550170000000  0.5030700000000 1.0
C      1  0.4659140000000  0.5100270000000  0.5358700000000 1.0
C      1  0.5536380000000  0.4551320000000  0.4819600000000 1.0
C      1  0.5460070000000  0.4796210000000  0.5368370000000 1.0
C      1  0.5465350000000  0.5387330000000  0.5206790000000 1.0
C      1  0.5523620000000  0.5276010000000  0.4370580000000 1.0
C      1  0.4518500000000  0.4452590000000  0.4774670000000 1.0
C      1  0.4547800000000  0.4834930000000  0.5482290000000 1.0
C      1  0.4509690000000  0.5599830000000  0.5235610000000 1.0
C      1  0.4518020000000  0.5178530000000  0.4507610000000 1.0
C      1  0.5223610000000  0.4790890000000  0.4885050000000 1.0
C      1  0.5176230000000  0.4985570000000  0.5159760000000 1.0
C      1  0.5192270000000  0.5185150000000  0.4897740000000 1.0
C      1  0.5198000000000  0.5025360000000  0.4635390000000 1.0
C      1  0.4910210000000  0.4725850000000  0.5000000000000 1.0
C      1  0.4915550000000  0.4881480000000  0.5306830000000 1.0
C      1  0.4917840000000  0.5300510000000  0.5006870000000 1.0
C      1  0.4792580000000  0.5012560000000  0.4874580000000 1.0
C      1  0.5016370000000  0.4434500000000  0.4859810000000 1.0
C      1  0.5029280000000  0.5185750000000  0.4385260000000 1.0
C      1  0.5041960000000  0.4802900000000  0.5607350000000 1.0
C      1  0.5028910000000  0.5582140000000  0.5165640000000 1.0
END
