TITL C-26730-8313-9 -0.00071937775748693 125000 -329.869183282906 0 0 60 (C1) n - 1
REM
REM in /home/nfs/bkarasulu/CARBON/AIRSS/Generating-Clusters/AIREBO/Higher-Symm/Only-C60
REM
REM
REM
REM
REM
REM ./C.cell (28575a23ae977d3b5fae324c64b13b57)
REM
REM compiler GCC version 9.2.1 20190827 (Red Hat 9.2.1-1)
REM options -cpp -mtune=generic -march=x86-64 -g -O0 -fpre-include=/usr/include/finclude/math-vector-fortran.h
REM seed -155150039 1990575924 1898967364 -2081804794 -269959409 -327277624 -662974265 -851010348 1591027850 1339394833 -302230694 779090210 2082252643 -25908997 2014077819 -1334121838 -514019654 1328166398 -679761629 1285762194 1697572855 -320107529 948337149 -1329601289 1038459757 735577150 -1286729507 -874216931 -842617863 -459557047 146981928 -1957447224 1735990771
REM
CELL 1.54180   50.00000   50.00000   50.00000   90.00000   90.00000   90.00000
LATT -1
SFAC C  
C      1  0.4484860000000  0.4697470000000  0.4630460000000 1.0
C      1  0.5374260000000  0.5296850000000  0.5487430000000 1.0
C      1  0.5634280000000  0.5336300000000  0.4817090000000 1.0
C      1  0.4515170000000  0.4737360000000  0.5232420000000 1.0
C      1  0.4905790000000  0.4905280000000  0.4900620000000 1.0
C      1  0.5203970000000  0.5046450000000  0.5181670000000 1.0
C      1  0.5149110000000  0.4237070000000  0.5328120000000 1.0
C      1  0.4777480000000  0.5759390000000  0.4676480000000 1.0
C      1  0.5019330000000  0.4762630000000  0.4545220000000 1.0
C      1  0.5034930000000  0.5280170000000  0.5472170000000 1.0
C      1  0.5202420000000  0.4714420000000  0.5107940000000 1.0
C      1  0.4888410000000  0.5368190000000  0.4865440000000 1.0
C      1  0.4962140000000  0.5769270000000  0.5263130000000 1.0
C      1  0.5160400000000  0.4246690000000  0.4675980000000 1.0
C      1  0.5425050000000  0.4861790000000  0.5674620000000 1.0
C      1  0.4490380000000  0.5079740000000  0.4348600000000 1.0
C      1  0.5580000000000  0.4916460000000  0.5218230000000 1.0
C      1  0.4355610000000  0.5120380000000  0.4828920000000 1.0
C      1  0.5274580000000  0.5603040000000  0.4945240000000 1.0
C      1  0.4737130000000  0.4381820000000  0.4960120000000 1.0
C      1  0.5444440000000  0.5530640000000  0.4737150000000 1.0
C      1  0.4636920000000  0.4488730000000  0.5223030000000 1.0
C      1  0.4323540000000  0.5410630000000  0.4872440000000 1.0
C      1  0.5619800000000  0.4634770000000  0.5152080000000 1.0
C      1  0.5290100000000  0.5376970000000  0.5187630000000 1.0
C      1  0.4769390000000  0.4638670000000  0.4739560000000 1.0
C      1  0.5494540000000  0.5485000000000  0.5652990000000 1.0
C      1  0.4321990000000  0.4487610000000  0.4562620000000 1.0
C      1  0.5039470000000  0.5274030000000  0.4593400000000 1.0
C      1  0.5058080000000  0.4627800000000  0.5403360000000 1.0
C      1  0.5185820000000  0.5668410000000  0.5328800000000 1.0
C      1  0.4905550000000  0.4337750000000  0.4658590000000 1.0
C      1  0.4291260000000  0.5270690000000  0.5328690000000 1.0
C      1  0.5702450000000  0.4837360000000  0.4739230000000 1.0
C      1  0.5167110000000  0.4632630000000  0.4779600000000 1.0
C      1  0.4882530000000  0.5281380000000  0.5194290000000 1.0
C      1  0.4966890000000  0.4180020000000  0.5090170000000 1.0
C      1  0.5041700000000  0.5734790000000  0.4872990000000 1.0
C      1  0.5764520000000  0.4618320000000  0.4905430000000 1.0
C      1  0.4206710000000  0.5448550000000  0.5136620000000 1.0
C      1  0.4819250000000  0.4442830000000  0.5420170000000 1.0
C      1  0.5283080000000  0.5483400000000  0.4505050000000 1.0
C      1  0.4441970000000  0.5136450000000  0.5515340000000 1.0
C      1  0.5559740000000  0.4971000000000  0.4515040000000 1.0
C      1  0.4748980000000  0.5047010000000  0.4256850000000 1.0
C      1  0.5160760000000  0.4806160000000  0.5663950000000 1.0
C      1  0.4460260000000  0.5009390000000  0.5077230000000 1.0
C      1  0.5531930000000  0.5056600000000  0.4921190000000 1.0
C      1  0.4634340000000  0.4942100000000  0.5430980000000 1.0
C      1  0.5330360000000  0.5099240000000  0.4571010000000 1.0
C      1  0.5249990000000  0.4228300000000  0.4947000000000 1.0
C      1  0.4768110000000  0.5630250000000  0.5045790000000 1.0
C      1  0.4966660000000  0.5010780000000  0.4431600000000 1.0
C      1  0.4967510000000  0.4955530000000  0.5409580000000 1.0
C      1  0.4411640000000  0.4970540000000  0.4596820000000 1.0
C      1  0.5514980000000  0.5027540000000  0.5464710000000 1.0
C      1  0.5375220000000  0.4441510000000  0.5181300000000 1.0
C      1  0.4535310000000  0.5584270000000  0.4807170000000 1.0
C      1  0.5199930000000  0.5021810000000  0.4855810000000 1.0
C      1  0.4751880000000  0.5049770000000  0.5064810000000 1.0
END
