TITL C-26733-8285-98 -0.000717000800113225 125000 -338.222948481511 0 0 60 (C1) n - 1
REM
REM in /home/nfs/bkarasulu/CARBON/AIRSS/Generating-Clusters/AIREBO/Higher-Symm/Only-C60
REM
REM
REM
REM
REM
REM ./C.cell (28575a23ae977d3b5fae324c64b13b57)
REM
REM compiler GCC version 9.2.1 20190827 (Red Hat 9.2.1-1)
REM options -cpp -mtune=generic -march=x86-64 -g -O0 -fpre-include=/usr/include/finclude/math-vector-fortran.h
REM seed -1902231006 1342678545 828656365 1120823171 -1636097049 -1298244 -2057127030 1814711983 -1993650054 -1028926901 1204288333 -1868798879 1399915420 -1609560542 -98439118 -1521564161 361985344 -1531982475 -645655115 -1215958120 1684100902 -289146283 1627734461 1655982082 139463536 688241393 1798939240 47428674 -1419897058 2100207914 1957246665 -344534102 1632318287
REM
CELL 1.54180   50.00000   50.00000   50.00000   90.00000   90.00000   90.00000
LATT -1
SFAC C  
C      1  0.5163830000000  0.4805810000000  0.5677300000000 1.0
C      1  0.5523630000000  0.4820100000000  0.4525690000000 1.0
C      1  0.4346990000000  0.4881350000000  0.4801540000000 1.0
C      1  0.5142840000000  0.5135730000000  0.5690700000000 1.0
C      1  0.5522920000000  0.5143160000000  0.4545230000000 1.0
C      1  0.4313860000000  0.5219380000000  0.4782600000000 1.0
C      1  0.4862080000000  0.4857070000000  0.5654060000000 1.0
C      1  0.4467580000000  0.4843590000000  0.4518220000000 1.0
C      1  0.5657730000000  0.4875400000000  0.4801890000000 1.0
C      1  0.4836680000000  0.5168580000000  0.5708400000000 1.0
C      1  0.4468350000000  0.5149530000000  0.4534290000000 1.0
C      1  0.5686550000000  0.5202510000000  0.4797750000000 1.0
C      1  0.4539090000000  0.5144490000000  0.5446670000000 1.0
C      1  0.5616590000000  0.5165770000000  0.5186510000000 1.0
C      1  0.4883740000000  0.5125870000000  0.4307250000000 1.0
C      1  0.4500090000000  0.4824220000000  0.5490200000000 1.0
C      1  0.5685670000000  0.4834680000000  0.5196780000000 1.0
C      1  0.4834070000000  0.4820560000000  0.4305470000000 1.0
C      1  0.5503180000000  0.5184850000000  0.5492770000000 1.0
C      1  0.4347980000000  0.5188890000000  0.5175950000000 1.0
C      1  0.5178600000000  0.5177400000000  0.4285100000000 1.0
C      1  0.5430210000000  0.4879600000000  0.5392490000000 1.0
C      1  0.4367500000000  0.4860560000000  0.5226100000000 1.0
C      1  0.5161300000000  0.4845920000000  0.4365930000000 1.0
C      1  0.4691680000000  0.4827690000000  0.4996320000000 1.0
C      1  0.5127010000000  0.4865490000000  0.5239160000000 1.0
C      1  0.5111610000000  0.4868590000000  0.4686320000000 1.0
C      1  0.4665740000000  0.5131190000000  0.5068770000000 1.0
C      1  0.5143780000000  0.5181900000000  0.5295170000000 1.0
C      1  0.5167810000000  0.5167510000000  0.4780310000000 1.0
C      1  0.5289350000000  0.4828940000000  0.4949910000000 1.0
C      1  0.4848780000000  0.4793880000000  0.5255580000000 1.0
C      1  0.4812920000000  0.4818440000000  0.4716430000000 1.0
C      1  0.5325160000000  0.5147140000000  0.5043900000000 1.0
C      1  0.4847400000000  0.5189380000000  0.5310520000000 1.0
C      1  0.4839440000000  0.5138110000000  0.4794460000000 1.0
C      1  0.4708970000000  0.5543170000000  0.4989380000000 1.0
C      1  0.5146500000000  0.5576380000000  0.5244400000000 1.0
C      1  0.5148400000000  0.5562480000000  0.4744310000000 1.0
C      1  0.4718000000000  0.4430190000000  0.4996920000000 1.0
C      1  0.5151460000000  0.4443370000000  0.5250360000000 1.0
C      1  0.5152870000000  0.4453460000000  0.4738710000000 1.0
C      1  0.5301160000000  0.5554610000000  0.4996600000000 1.0
C      1  0.4855020000000  0.5580900000000  0.5241180000000 1.0
C      1  0.4861460000000  0.5532320000000  0.4743340000000 1.0
C      1  0.5290710000000  0.4434280000000  0.4996520000000 1.0
C      1  0.4860380000000  0.4398220000000  0.5248380000000 1.0
C      1  0.4860790000000  0.4424780000000  0.4744780000000 1.0
C      1  0.5312510000000  0.4577370000000  0.4509930000000 1.0
C      1  0.4436670000000  0.4622270000000  0.5002800000000 1.0
C      1  0.5277270000000  0.4588610000000  0.5479870000000 1.0
C      1  0.5279220000000  0.5347760000000  0.4529780000000 1.0
C      1  0.4437850000000  0.5441300000000  0.4968700000000 1.0
C      1  0.5262210000000  0.5398170000000  0.5510170000000 1.0
C      1  0.4694700000000  0.4601340000000  0.4506230000000 1.0
C      1  0.5554170000000  0.4625980000000  0.4986970000000 1.0
C      1  0.4723970000000  0.4591550000000  0.5492670000000 1.0
C      1  0.4744780000000  0.5293720000000  0.4530540000000 1.0
C      1  0.5584070000000  0.5439530000000  0.4987190000000 1.0
C      1  0.4725100000000  0.5424980000000  0.5514540000000 1.0
END
