TITL C-26730-8313-40 -0.0449829792922729 125000 -320.720027125863 0 0 60 (C1) n - 1
REM
REM in /home/nfs/bkarasulu/CARBON/AIRSS/Generating-Clusters/AIREBO/Higher-Symm/Only-C60
REM
REM
REM
REM
REM
REM ./C.cell (28575a23ae977d3b5fae324c64b13b57)
REM
REM compiler GCC version 9.2.1 20190827 (Red Hat 9.2.1-1)
REM options -cpp -mtune=generic -march=x86-64 -g -O0 -fpre-include=/usr/include/finclude/math-vector-fortran.h
REM seed -1580903651 18627230 1596476955 -1546090348 -61838137 933467315 212032085 -1373403928 519281686 -1391671155 1520582822 -1495587815 828717750 -1031938278 235578244 -792954722 1579465825 -977501667 679638329 -549323532 1831945680 1569143317 -1356876679 643003873 -2146593414 -222575554 -1077643174 -1635865487 1987693243 -977150976 -729161046 -711170267 -1914772717
REM
CELL 1.54180   50.00000   50.00000   50.00000   90.00000   90.00000   90.00000
LATT -1
SFAC C  
C      1  0.5220490000000  0.5047150000000  0.5046180000000 1.0
C      1  0.5061010000000  0.5296890000000  0.4936520000000 1.0
C      1  0.4745050000000  0.5171030000000  0.4921640000000 1.0
C      1  0.4768980000000  0.4835200000000  0.4944070000000 1.0
C      1  0.5098750000000  0.4785450000000  0.4901610000000 1.0
C      1  0.4513140000000  0.5264360000000  0.5363020000000 1.0
C      1  0.4690680000000  0.4736290000000  0.5223780000000 1.0
C      1  0.5247290000000  0.4588110000000  0.5319930000000 1.0
C      1  0.5528260000000  0.5092270000000  0.5108490000000 1.0
C      1  0.5106350000000  0.5653110000000  0.5296540000000 1.0
C      1  0.5209350000000  0.6001460000000  0.4734850000000 1.0
C      1  0.4040310000000  0.5664100000000  0.4879880000000 1.0
C      1  0.4147950000000  0.4566000000000  0.4514990000000 1.0
C      1  0.5308800000000  0.4214710000000  0.4569710000000 1.0
C      1  0.6220050000000  0.4113660000000  0.4973750000000 1.0
C      1  0.5443830000000  0.4145840000000  0.4364390000000 1.0
C      1  0.6477920000000  0.4066700000000  0.4973930000000 1.0
C      1  0.5132440000000  0.6224170000000  0.4620040000000 1.0
C      1  0.3836690000000  0.5802320000000  0.4812270000000 1.0
C      1  0.4013610000000  0.4441450000000  0.4327550000000 1.0
C      1  0.4730310000000  0.5122850000000  0.4594230000000 1.0
C      1  0.4774040000000  0.4842980000000  0.4544320000000 1.0
C      1  0.5057950000000  0.4818780000000  0.4594120000000 1.0
C      1  0.5201320000000  0.5062560000000  0.4492400000000 1.0
C      1  0.5004270000000  0.5245280000000  0.4627030000000 1.0
C      1  0.4869210000000  0.4932980000000  0.5431410000000 1.0
C      1  0.5152190000000  0.4881270000000  0.5335010000000 1.0
C      1  0.5331710000000  0.5135220000000  0.5414560000000 1.0
C      1  0.5131650000000  0.5359160000000  0.5458090000000 1.0
C      1  0.4855250000000  0.5236500000000  0.5488920000000 1.0
C      1  0.5588750000000  0.5060270000000  0.5594920000000 1.0
C      1  0.5313980000000  0.5613850000000  0.5563140000000 1.0
C      1  0.4647840000000  0.5450160000000  0.5592940000000 1.0
C      1  0.4622350000000  0.4772090000000  0.5557790000000 1.0
C      1  0.5073500000000  0.4400780000000  0.5490070000000 1.0
C      1  0.5703260000000  0.4238540000000  0.4952130000000 1.0
C      1  0.5535970000000  0.5652430000000  0.4810490000000 1.0
C      1  0.4558750000000  0.5656030000000  0.4956460000000 1.0
C      1  0.4194520000000  0.4928750000000  0.4835700000000 1.0
C      1  0.4847920000000  0.4223010000000  0.4814490000000 1.0
C      1  0.4297160000000  0.5097140000000  0.5479950000000 1.0
C      1  0.4618350000000  0.4434050000000  0.5206240000000 1.0
C      1  0.5540970000000  0.4566440000000  0.5410080000000 1.0
C      1  0.5694430000000  0.4984900000000  0.5350630000000 1.0
C      1  0.4933980000000  0.5895710000000  0.5374820000000 1.0
C      1  0.5694850000000  0.5439190000000  0.4764830000000 1.0
C      1  0.4795710000000  0.5694120000000  0.4918780000000 1.0
C      1  0.4237700000000  0.5173730000000  0.4910220000000 1.0
C      1  0.4662200000000  0.4365190000000  0.4734670000000 1.0
C      1  0.5459870000000  0.4315060000000  0.4932640000000 1.0
C      1  0.4504690000000  0.5276490000000  0.5067300000000 1.0
C      1  0.4588690000000  0.4662220000000  0.4719270000000 1.0
C      1  0.5220370000000  0.4536100000000  0.5015710000000 1.0
C      1  0.5695730000000  0.5200870000000  0.4892910000000 1.0
C      1  0.5082840000000  0.5601430000000  0.5000060000000 1.0
C      1  0.5961310000000  0.4172480000000  0.4950280000000 1.0
C      1  0.5282100000000  0.5755040000000  0.4832700000000 1.0
C      1  0.4284860000000  0.5500870000000  0.4930110000000 1.0
C      1  0.4295570000000  0.4714690000000  0.4692550000000 1.0
C      1  0.5142950000000  0.4270520000000  0.4834930000000 1.0
END
