TITL C-26731-8310-143 0.000722749640191782 125000 -365.950424129771 0 0 60 (C1) n - 1
REM
REM in /home/nfs/bkarasulu/CARBON/AIRSS/Generating-Clusters/AIREBO/Higher-Symm/Only-C60
REM
REM
REM
REM
REM
REM ./C.cell (28575a23ae977d3b5fae324c64b13b57)
REM
REM compiler GCC version 9.2.1 20190827 (Red Hat 9.2.1-1)
REM options -cpp -mtune=generic -march=x86-64 -g -O0 -fpre-include=/usr/include/finclude/math-vector-fortran.h
REM seed 1538946215 -904093826 161376695 335655965 874036647 1643834009 377262333 617025216 -2001536898 1616003471 924823102 2026156905 -1363880287 -46133133 850189772 -884053589 39623567 -1190429164 -2105262013 1753648812 1367790926 -1332472953 -1880992001 -647278167 1172677453 -179762941 1349603847 752480200 -1204729466 -1666584000 -726184961 834906241 802136648
REM
CELL 1.54180   50.00000   50.00000   50.00000   90.00000   90.00000   90.00000
LATT -1
SFAC C  
C      1  0.4995370000000  0.4282440000000  0.4749960000000 1.0
C      1  0.5261610000000  0.4306430000000  0.5169140000000 1.0
C      1  0.4776620000000  0.4180770000000  0.5189180000000 1.0
C      1  0.4954350000000  0.5915830000000  0.4754250000000 1.0
C      1  0.5178220000000  0.5936840000000  0.5174980000000 1.0
C      1  0.4762520000000  0.5684500000000  0.5175230000000 1.0
C      1  0.5011670000000  0.4289880000000  0.5313160000000 1.0
C      1  0.5252320000000  0.4278700000000  0.4878570000000 1.0
C      1  0.4757590000000  0.4250700000000  0.4897550000000 1.0
C      1  0.5023590000000  0.5730830000000  0.5302280000000 1.0
C      1  0.5216240000000  0.5867670000000  0.4899750000000 1.0
C      1  0.4728250000000  0.5762620000000  0.4901140000000 1.0
C      1  0.4544220000000  0.4397780000000  0.5198580000000 1.0
C      1  0.4974730000000  0.4484450000000  0.4559630000000 1.0
C      1  0.5408890000000  0.4552600000000  0.5222650000000 1.0
C      1  0.4653160000000  0.5428730000000  0.5230140000000 1.0
C      1  0.5020420000000  0.5587360000000  0.4696460000000 1.0
C      1  0.5415270000000  0.5517690000000  0.5150350000000 1.0
C      1  0.4548830000000  0.4502740000000  0.4873600000000 1.0
C      1  0.4934540000000  0.4541970000000  0.5419180000000 1.0
C      1  0.5434000000000  0.4497870000000  0.4757510000000 1.0
C      1  0.4685690000000  0.5504690000000  0.4706140000000 1.0
C      1  0.5195160000000  0.5503250000000  0.5329450000000 1.0
C      1  0.5304410000000  0.5541380000000  0.4851490000000 1.0
C      1  0.5299690000000  0.5068370000000  0.5144950000000 1.0
C      1  0.4839800000000  0.5208560000000  0.5113910000000 1.0
C      1  0.5062030000000  0.5093370000000  0.4628960000000 1.0
C      1  0.5220210000000  0.4778880000000  0.5116330000000 1.0
C      1  0.4732800000000  0.4922360000000  0.5117320000000 1.0
C      1  0.4959110000000  0.4799250000000  0.4684850000000 1.0
C      1  0.5313050000000  0.5201950000000  0.4831870000000 1.0
C      1  0.4914270000000  0.5296020000000  0.4833790000000 1.0
C      1  0.5070330000000  0.5218790000000  0.5341170000000 1.0
C      1  0.5202730000000  0.4672300000000  0.4828490000000 1.0
C      1  0.4691170000000  0.4806830000000  0.4844720000000 1.0
C      1  0.4958780000000  0.4751610000000  0.5238740000000 1.0
C      1  0.5776820000000  0.5329380000000  0.4906090000000 1.0
C      1  0.4701170000000  0.5318780000000  0.5676830000000 1.0
C      1  0.4544360000000  0.5355390000000  0.4497280000000 1.0
C      1  0.5673540000000  0.4632740000000  0.4845600000000 1.0
C      1  0.4757770000000  0.4629710000000  0.5636480000000 1.0
C      1  0.4509710000000  0.4607070000000  0.4552790000000 1.0
C      1  0.5652300000000  0.5363270000000  0.5163900000000 1.0
C      1  0.4723700000000  0.5285240000000  0.4290400000000 1.0
C      1  0.4520160000000  0.5332840000000  0.5457850000000 1.0
C      1  0.5670570000000  0.4637500000000  0.5137640000000 1.0
C      1  0.4753710000000  0.4602550000000  0.4403740000000 1.0
C      1  0.4539680000000  0.4604150000000  0.5406600000000 1.0
C      1  0.4365930000000  0.5098430000000  0.5406010000000 1.0
C      1  0.4906610000000  0.5077310000000  0.4345890000000 1.0
C      1  0.5588550000000  0.5102380000000  0.5265900000000 1.0
C      1  0.4495190000000  0.4870430000000  0.5304020000000 1.0
C      1  0.4841290000000  0.4821360000000  0.4247100000000 1.0
C      1  0.5753270000000  0.4873570000000  0.5274460000000 1.0
C      1  0.4366920000000  0.5151640000000  0.4577740000000 1.0
C      1  0.4921210000000  0.5141380000000  0.5629270000000 1.0
C      1  0.5619800000000  0.5143800000000  0.4749700000000 1.0
C      1  0.4430450000000  0.4893410000000  0.4652520000000 1.0
C      1  0.4867510000000  0.4879620000000  0.5732170000000 1.0
C      1  0.5718140000000  0.4882040000000  0.4714550000000 1.0
END
