TITL C-26736-6558-67 0.00440123580328687 125000 -329.41033244191 0 0 60 (C1) n - 1
REM
REM in /home/nfs/bkarasulu/CARBON/AIRSS/Generating-Clusters/AIREBO/Higher-Symm/Only-C60
REM
REM
REM
REM
REM
REM ./C.cell (28575a23ae977d3b5fae324c64b13b57)
REM
REM compiler GCC version 9.2.1 20190827 (Red Hat 9.2.1-1)
REM options -cpp -mtune=generic -march=x86-64 -g -O0 -fpre-include=/usr/include/finclude/math-vector-fortran.h
REM seed 490607015 1010940488 1972747890 736181074 1813616318 22011898 975626471 -1603450028 -349540166 1920654311 -1056842487 -929841525 -616189542 -5246894 -1966709177 1528992867 1650234736 -1662443749 229055220 1886997566 1739184049 -1341370878 -2123279493 1264718936 -1582689864 315580137 -1783020049 -779739814 -1010073534 2080220251 346486727 -70402105 -2076646808
REM
CELL 1.54180   50.00000   50.00000   50.00000   90.00000   90.00000   90.00000
LATT -1
SFAC C  
C      1  0.4692060000000  0.4805920000000  0.4928890000000 1.0
C      1  0.4611990000000  0.5189850000000  0.4646640000000 1.0
C      1  0.4716970000000  0.5098710000000  0.5195050000000 1.0
C      1  0.5237530000000  0.5291260000000  0.4930680000000 1.0
C      1  0.5340920000000  0.4835380000000  0.4784020000000 1.0
C      1  0.5370900000000  0.4815860000000  0.5266840000000 1.0
C      1  0.4686480000000  0.5460320000000  0.4783020000000 1.0
C      1  0.4632380000000  0.5049000000000  0.5784260000000 1.0
C      1  0.4604520000000  0.4366710000000  0.4567430000000 1.0
C      1  0.5231860000000  0.4551320000000  0.4816950000000 1.0
C      1  0.5288100000000  0.5064260000000  0.5431560000000 1.0
C      1  0.5262270000000  0.5514830000000  0.4705590000000 1.0
C      1  0.4949130000000  0.5386480000000  0.4303870000000 1.0
C      1  0.5025410000000  0.5428320000000  0.5768970000000 1.0
C      1  0.4855660000000  0.4178840000000  0.5010240000000 1.0
C      1  0.5065850000000  0.4543850000000  0.4327890000000 1.0
C      1  0.5014390000000  0.4653610000000  0.5699680000000 1.0
C      1  0.5008440000000  0.5861510000000  0.4997400000000 1.0
C      1  0.5553610000000  0.5341220000000  0.4916670000000 1.0
C      1  0.5609570000000  0.4705570000000  0.5296760000000 1.0
C      1  0.5597680000000  0.4879550000000  0.4734430000000 1.0
C      1  0.4455030000000  0.4688320000000  0.4885800000000 1.0
C      1  0.4489750000000  0.5126330000000  0.5335270000000 1.0
C      1  0.4384710000000  0.5152830000000  0.4517350000000 1.0
C      1  0.5325540000000  0.4331820000000  0.4267970000000 1.0
C      1  0.5234260000000  0.6074340000000  0.4865710000000 1.0
C      1  0.5298360000000  0.4630380000000  0.5882820000000 1.0
C      1  0.4732080000000  0.5619370000000  0.4182140000000 1.0
C      1  0.4853940000000  0.3897720000000  0.4821550000000 1.0
C      1  0.4977260000000  0.5401590000000  0.6102440000000 1.0
C      1  0.4434940000000  0.5137850000000  0.5603340000000 1.0
C      1  0.4391520000000  0.4498810000000  0.4698050000000 1.0
C      1  0.4171850000000  0.5122420000000  0.4367420000000 1.0
C      1  0.5836020000000  0.4583120000000  0.5346180000000 1.0
C      1  0.5801030000000  0.5403880000000  0.4914320000000 1.0
C      1  0.5854340000000  0.4927010000000  0.4710800000000 1.0
C      1  0.4927050000000  0.5634290000000  0.5216650000000 1.0
C      1  0.4801590000000  0.4629810000000  0.5449890000000 1.0
C      1  0.4911560000000  0.4817360000000  0.4437230000000 1.0
C      1  0.4843110000000  0.4412570000000  0.5241020000000 1.0
C      1  0.5059240000000  0.5529890000000  0.5464380000000 1.0
C      1  0.5061930000000  0.5107580000000  0.4433490000000 1.0
C      1  0.5274390000000  0.4849990000000  0.5652620000000 1.0
C      1  0.5246980000000  0.4412020000000  0.4565640000000 1.0
C      1  0.5246690000000  0.5770220000000  0.4781930000000 1.0
C      1  0.4790230000000  0.5235180000000  0.5909860000000 1.0
C      1  0.4724160000000  0.5537490000000  0.4488020000000 1.0
C      1  0.4715260000000  0.4155810000000  0.4704580000000 1.0
C      1  0.4846580000000  0.5340990000000  0.5054340000000 1.0
C      1  0.4867600000000  0.4807710000000  0.5186710000000 1.0
C      1  0.4808050000000  0.4973390000000  0.4709990000000 1.0
C      1  0.5148020000000  0.4696170000000  0.5113800000000 1.0
C      1  0.5132670000000  0.5292910000000  0.5231830000000 1.0
C      1  0.5136970000000  0.5051200000000  0.4757680000000 1.0
C      1  0.5127840000000  0.4364290000000  0.5067840000000 1.0
C      1  0.5242170000000  0.5396700000000  0.4450100000000 1.0
C      1  0.5299840000000  0.5339610000000  0.5589390000000 1.0
C      1  0.4714140000000  0.5707030000000  0.4968720000000 1.0
C      1  0.4749720000000  0.4521380000000  0.4391760000000 1.0
C      1  0.4727850000000  0.4798290000000  0.5734510000000 1.0
END
