TITL C-26732-6566-89 -0.00371873669829809 125000 -320.236783282611 0 0 60 (C3) n - 1
REM
REM in /home/nfs/bkarasulu/CARBON/AIRSS/Generating-Clusters/AIREBO/Higher-Symm/Only-C60
REM
REM
REM
REM
REM
REM ./C.cell (28575a23ae977d3b5fae324c64b13b57)
REM
REM compiler GCC version 9.2.1 20190827 (Red Hat 9.2.1-1)
REM options -cpp -mtune=generic -march=x86-64 -g -O0 -fpre-include=/usr/include/finclude/math-vector-fortran.h
REM seed 629226979 759559685 1535175682 784611120 644256061 504031668 -209117467 1778253027 -1720050316 501584141 -408783512 -278217585 -775739759 1368378547 -851350622 -387512966 1704588842 39375337 -1432809605 -156281799 224944848 820822284 -1075683987 786664168 -818905364 322696451 -1007595104 257002928 -1311200007 2084309408 -110464535 -887878901 -1187924057
REM
CELL 1.54180   50.00000   50.00000   50.00000   90.00000   90.00000   90.00000
LATT -1
SFAC C  
C      1  0.5055700000000  0.4524820000000  0.4565900000000 1.0
C      1  0.4596530000000  0.4524730000000  0.5168450000000 1.0
C      1  0.5348120000000  0.4524780000000  0.5265510000000 1.0
C      1  0.4639520000000  0.4360480000000  0.4781380000000 1.0
C      1  0.4991200000000  0.4360470000000  0.5421300000000 1.0
C      1  0.5369460000000  0.4360280000000  0.4797260000000 1.0
C      1  0.4840660000000  0.5461320000000  0.4507120000000 1.0
C      1  0.4652660000000  0.5461130000000  0.5384510000000 1.0
C      1  0.5506500000000  0.5461270000000  0.5108500000000 1.0
C      1  0.4956990000000  0.5277260000000  0.4768310000000 1.0
C      1  0.4820830000000  0.5277250000000  0.5153130000000 1.0
C      1  0.5222110000000  0.5277270000000  0.5078600000000 1.0
C      1  0.5205000000000  0.4877080000000  0.4274340000000 1.0
C      1  0.4269160000000  0.4876860000000  0.5185270000000 1.0
C      1  0.5526040000000  0.4877200000000  0.5540370000000 1.0
C      1  0.4625480000000  0.4806820000000  0.5352830000000 1.0
C      1  0.5492940000000  0.4806960000000  0.5148040000000 1.0
C      1  0.4881680000000  0.4807050000000  0.4499090000000 1.0
C      1  0.5459400000000  0.5591650000000  0.4501350000000 1.0
C      1  0.4338410000000  0.5591650000000  0.4851530000000 1.0
C      1  0.5202070000000  0.5591710000000  0.5647140000000 1.0
C      1  0.5727000000000  0.5254990000000  0.5177500000000 1.0
C      1  0.4790260000000  0.5255050000000  0.4281630000000 1.0
C      1  0.4482750000000  0.5254710000000  0.5540910000000 1.0
C      1  0.4857300000000  0.4381610000000  0.5134410000000 1.0
C      1  0.5188380000000  0.4381430000000  0.5056910000000 1.0
C      1  0.4954910000000  0.4381540000000  0.4808690000000 1.0
C      1  0.4604100000000  0.5517570000000  0.4686060000000 1.0
C      1  0.4925920000000  0.5517510000000  0.5499840000000 1.0
C      1  0.5469840000000  0.5517550000000  0.4814170000000 1.0
C      1  0.4591380000000  0.5446330000000  0.4990810000000 1.0
C      1  0.5196210000000  0.5446370000000  0.5358430000000 1.0
C      1  0.5212290000000  0.5446310000000  0.4650770000000 1.0
C      1  0.5166170000000  0.4602270000000  0.4307320000000 1.0
C      1  0.4317290000000  0.4602070000000  0.5202030000000 1.0
C      1  0.5516820000000  0.4602380000000  0.5490430000000 1.0
C      1  0.4514930000000  0.5689500000000  0.5298540000000 1.0
C      1  0.5500800000000  0.5689690000000  0.5270690000000 1.0
C      1  0.4983990000000  0.5689760000000  0.4431030000000 1.0
C      1  0.4900920000000  0.4866170000000  0.5454200000000 1.0
C      1  0.5442760000000  0.4866110000000  0.4858820000000 1.0
C      1  0.4656200000000  0.4866290000000  0.4687000000000 1.0
C      1  0.5132700000000  0.5029320000000  0.4512620000000 1.0
C      1  0.4511600000000  0.5029240000000  0.5128810000000 1.0
C      1  0.5355790000000  0.5029350000000  0.5358590000000 1.0
C      1  0.4829100000000  0.5010290000000  0.4253440000000 1.0
C      1  0.4438990000000  0.5009950000000  0.5521320000000 1.0
C      1  0.5732000000000  0.5010220000000  0.5225150000000 1.0
C      1  0.4951050000000  0.4843920000000  0.6027180000000 1.0
C      1  0.5913670000000  0.4843970000000  0.4528560000000 1.0
C      1  0.4134810000000  0.4844160000000  0.4444160000000 1.0
C      1  0.4720260000000  0.5084240000000  0.4891730000000 1.0
C      1  0.5046110000000  0.5084210000000  0.5296430000000 1.0
C      1  0.5233620000000  0.5084200000000  0.4811900000000 1.0
C      1  0.5682540000000  0.4783630000000  0.4644750000000 1.0
C      1  0.4350960000000  0.4783810000000  0.4586280000000 1.0
C      1  0.4966200000000  0.4783650000000  0.5768920000000 1.0
C      1  0.4503590000000  0.4590950000000  0.4786350000000 1.0
C      1  0.5063350000000  0.4590900000000  0.5536710000000 1.0
C      1  0.5432990000000  0.4590750000000  0.4676970000000 1.0
END
