TITL C-26731-8310-185 0.000345414039820682 125000 -350.756301710814 0 0 60 (C1) n - 1
REM
REM in /home/nfs/bkarasulu/CARBON/AIRSS/Generating-Clusters/AIREBO/Higher-Symm/Only-C60
REM
REM
REM
REM
REM
REM ./C.cell (28575a23ae977d3b5fae324c64b13b57)
REM
REM compiler GCC version 9.2.1 20190827 (Red Hat 9.2.1-1)
REM options -cpp -mtune=generic -march=x86-64 -g -O0 -fpre-include=/usr/include/finclude/math-vector-fortran.h
REM seed -969869971 929970391 1338886163 -334197716 117837158 544729095 -126807222 1997690424 140360039 -1867068669 1977400980 1114202340 -158490416 1493584613 -1644959957 47417474 -1438632056 1281329838 1906920567 -972279581 -1376898059 291791879 -44528373 342678913 -520150291 1885890031 -1015531051 -946349450 1540809565 585068878 -22287647 583515623 -1657548830
REM
CELL 1.54180   50.00000   50.00000   50.00000   90.00000   90.00000   90.00000
LATT -1
SFAC C  
C      1  0.5017440000000  0.5764170000000  0.5171130000000 1.0
C      1  0.5028190000000  0.5099470000000  0.5776740000000 1.0
C      1  0.4999010000000  0.4282670000000  0.5316460000000 1.0
C      1  0.5033000000000  0.4506080000000  0.4447750000000 1.0
C      1  0.4965920000000  0.5364980000000  0.4342050000000 1.0
C      1  0.5053760000000  0.5753320000000  0.4848830000000 1.0
C      1  0.4998080000000  0.5045570000000  0.4262470000000 1.0
C      1  0.5059060000000  0.4285050000000  0.4669360000000 1.0
C      1  0.5082930000000  0.4502460000000  0.5542880000000 1.0
C      1  0.5014060000000  0.5382880000000  0.5643130000000 1.0
C      1  0.4787160000000  0.5617960000000  0.5595780000000 1.0
C      1  0.4838850000000  0.4602720000000  0.5678930000000 1.0
C      1  0.4814790000000  0.4244930000000  0.4831070000000 1.0
C      1  0.4787960000000  0.4829990000000  0.4153890000000 1.0
C      1  0.4814020000000  0.5701220000000  0.4680640000000 1.0
C      1  0.4736260000000  0.5479590000000  0.4480190000000 1.0
C      1  0.4734970000000  0.4635460000000  0.4347440000000 1.0
C      1  0.4720310000000  0.4283210000000  0.5127640000000 1.0
C      1  0.4758140000000  0.4921370000000  0.5710160000000 1.0
C      1  0.4727660000000  0.5680890000000  0.5329340000000 1.0
C      1  0.5304150000000  0.4641780000000  0.4370570000000 1.0
C      1  0.5227290000000  0.5382960000000  0.4546860000000 1.0
C      1  0.5292760000000  0.5619740000000  0.5288860000000 1.0
C      1  0.5265320000000  0.4953520000000  0.5727770000000 1.0
C      1  0.5232930000000  0.4435670000000  0.5123680000000 1.0
C      1  0.5311200000000  0.4665450000000  0.5588470000000 1.0
C      1  0.5287970000000  0.5487290000000  0.5564350000000 1.0
C      1  0.5284760000000  0.5643720000000  0.4740510000000 1.0
C      1  0.5281820000000  0.4931240000000  0.4261600000000 1.0
C      1  0.5286940000000  0.4305080000000  0.4826530000000 1.0
C      1  0.4878040000000  0.5311240000000  0.5355770000000 1.0
C      1  0.4805420000000  0.4728310000000  0.5364720000000 1.0
C      1  0.4820010000000  0.4581190000000  0.4881440000000 1.0
C      1  0.4885670000000  0.4992320000000  0.4564980000000 1.0
C      1  0.4843300000000  0.5413360000000  0.4859350000000 1.0
C      1  0.5007190000000  0.5221860000000  0.4710000000000 1.0
C      1  0.4955970000000  0.4724630000000  0.4665380000000 1.0
C      1  0.4956830000000  0.4603790000000  0.5142640000000 1.0
C      1  0.4899040000000  0.5016610000000  0.5411590000000 1.0
C      1  0.4973090000000  0.5450930000000  0.5120330000000 1.0
C      1  0.5464190000000  0.5020820000000  0.5495450000000 1.0
C      1  0.5492490000000  0.4625600000000  0.5127940000000 1.0
C      1  0.5518540000000  0.4677870000000  0.4601790000000 1.0
C      1  0.5504220000000  0.5223280000000  0.4609940000000 1.0
C      1  0.5492600000000  0.5432600000000  0.5130320000000 1.0
C      1  0.5487720000000  0.4970010000000  0.4498720000000 1.0
C      1  0.5493920000000  0.4529780000000  0.4838070000000 1.0
C      1  0.5528600000000  0.4745200000000  0.5370640000000 1.0
C      1  0.5472400000000  0.5286300000000  0.5410070000000 1.0
C      1  0.5476680000000  0.5428160000000  0.4852380000000 1.0
C      1  0.4539230000000  0.5313240000000  0.4620350000000 1.0
C      1  0.4548960000000  0.5478250000000  0.5203940000000 1.0
C      1  0.4512790000000  0.4968650000000  0.5491680000000 1.0
C      1  0.4510490000000  0.4494420000000  0.5117580000000 1.0
C      1  0.4558530000000  0.4734740000000  0.4560130000000 1.0
C      1  0.4553470000000  0.5216130000000  0.5366800000000 1.0
C      1  0.4517600000000  0.5412150000000  0.4913970000000 1.0
C      1  0.4575750000000  0.5036290000000  0.4580180000000 1.0
C      1  0.4494730000000  0.4598340000000  0.4823210000000 1.0
C      1  0.4485850000000  0.4713560000000  0.5315560000000 1.0
END
