TITL C-26726-4881-9 -0.00159068556364363 125000 -322.543430094241 0 0 60 (C1) n - 1
REM
REM in /home/nfs/bkarasulu/CARBON/AIRSS/Generating-Clusters/AIREBO/Higher-Symm/Only-C60
REM
REM
REM
REM
REM
REM ./C.cell (28575a23ae977d3b5fae324c64b13b57)
REM
REM compiler GCC version 9.2.1 20190827 (Red Hat 9.2.1-1)
REM options -cpp -mtune=generic -march=x86-64 -g -O0 -fpre-include=/usr/include/finclude/math-vector-fortran.h
REM seed -802566119 803040732 508275251 1367754616 -1774375628 -1311352816 1677458217 -860608029 -1577092467 1152729091 1393294371 1605170838 615994368 998050599 408996103 1118623753 1882995730 -1230080643 -2088418769 959584111 235334608 1685801128 -637614748 1113511570 439860362 -1590288068 -358139374 1758686760 -1565226681 893592474 -1590880711 1425892321 1459603992
REM
CELL 1.54180   50.00000   50.00000   50.00000   90.00000   90.00000   90.00000
LATT -1
SFAC C  
C      1  0.4344320000000  0.5114570000000  0.5147850000000 1.0
C      1  0.4293240000000  0.4790190000000  0.5239290000000 1.0
C      1  0.4607630000000  0.4442710000000  0.5186870000000 1.0
C      1  0.4600400000000  0.5535990000000  0.5176990000000 1.0
C      1  0.5058190000000  0.5566950000000  0.4543980000000 1.0
C      1  0.5197360000000  0.4360780000000  0.4476400000000 1.0
C      1  0.4880240000000  0.4410760000000  0.4552680000000 1.0
C      1  0.4823160000000  0.5490040000000  0.4724000000000 1.0
C      1  0.5154180000000  0.4879450000000  0.5561470000000 1.0
C      1  0.5132980000000  0.5154850000000  0.5459980000000 1.0
C      1  0.5095290000000  0.4567550000000  0.5439470000000 1.0
C      1  0.5110670000000  0.5578690000000  0.5403180000000 1.0
C      1  0.5542330000000  0.5303720000000  0.4789690000000 1.0
C      1  0.5449100000000  0.4686840000000  0.4835080000000 1.0
C      1  0.5264680000000  0.4836880000000  0.5043180000000 1.0
C      1  0.5285550000000  0.5151590000000  0.4952750000000 1.0
C      1  0.4934000000000  0.4869070000000  0.4221880000000 1.0
C      1  0.4937950000000  0.5158590000000  0.4380210000000 1.0
C      1  0.4364190000000  0.5421170000000  0.5077280000000 1.0
C      1  0.4391760000000  0.4585000000000  0.5071330000000 1.0
C      1  0.4759520000000  0.4516470000000  0.5456160000000 1.0
C      1  0.4779430000000  0.5504510000000  0.5423670000000 1.0
C      1  0.5326860000000  0.4609950000000  0.4462360000000 1.0
C      1  0.5254710000000  0.5369290000000  0.4529200000000 1.0
C      1  0.4323260000000  0.5460790000000  0.4808490000000 1.0
C      1  0.4472340000000  0.4678980000000  0.4814940000000 1.0
C      1  0.4913580000000  0.4703510000000  0.5701470000000 1.0
C      1  0.4986150000000  0.5373810000000  0.5648280000000 1.0
C      1  0.4453250000000  0.5087320000000  0.5447730000000 1.0
C      1  0.4450540000000  0.4785270000000  0.5501970000000 1.0
C      1  0.5087970000000  0.4365140000000  0.5014550000000 1.0
C      1  0.5100540000000  0.5660390000000  0.5013130000000 1.0
C      1  0.4870380000000  0.4525050000000  0.5074030000000 1.0
C      1  0.4874220000000  0.5450630000000  0.5039460000000 1.0
C      1  0.5396050000000  0.5282720000000  0.5470660000000 1.0
C      1  0.5427430000000  0.4762490000000  0.5545860000000 1.0
C      1  0.5490890000000  0.4694340000000  0.5247060000000 1.0
C      1  0.5513510000000  0.5251970000000  0.5184380000000 1.0
C      1  0.5501890000000  0.5131720000000  0.4524510000000 1.0
C      1  0.5503770000000  0.4843850000000  0.4576290000000 1.0
C      1  0.4637390000000  0.4899440000000  0.4346500000000 1.0
C      1  0.4634580000000  0.5199560000000  0.4399860000000 1.0
C      1  0.5311680000000  0.4405470000000  0.5239960000000 1.0
C      1  0.5351740000000  0.5551270000000  0.5179130000000 1.0
C      1  0.4525350000000  0.5116290000000  0.4875880000000 1.0
C      1  0.4732140000000  0.4880330000000  0.4854610000000 1.0
C      1  0.5579470000000  0.5546360000000  0.4925980000000 1.0
C      1  0.5478110000000  0.4434270000000  0.4944830000000 1.0
C      1  0.5112350000000  0.4824380000000  0.4499160000000 1.0
C      1  0.5128330000000  0.5097510000000  0.4656050000000 1.0
C      1  0.5767890000000  0.5081980000000  0.5173460000000 1.0
C      1  0.5760930000000  0.4828940000000  0.5181960000000 1.0
C      1  0.4935470000000  0.4853560000000  0.5126980000000 1.0
C      1  0.5008100000000  0.5190440000000  0.5145470000000 1.0
C      1  0.5080380000000  0.4260310000000  0.4759390000000 1.0
C      1  0.5105700000000  0.5770450000000  0.4762610000000 1.0
C      1  0.4810260000000  0.4717690000000  0.4570330000000 1.0
C      1  0.4569950000000  0.5340660000000  0.4647600000000 1.0
C      1  0.4738990000000  0.5182350000000  0.5513560000000 1.0
C      1  0.4777660000000  0.4855200000000  0.5428930000000 1.0
END
