TITL C-26736-6558-73 0.000782774316420458 125000 -322.041289841546 0 0 60 (C1) n - 1
REM
REM in /home/nfs/bkarasulu/CARBON/AIRSS/Generating-Clusters/AIREBO/Higher-Symm/Only-C60
REM
REM
REM
REM
REM
REM ./C.cell (28575a23ae977d3b5fae324c64b13b57)
REM
REM compiler GCC version 9.2.1 20190827 (Red Hat 9.2.1-1)
REM options -cpp -mtune=generic -march=x86-64 -g -O0 -fpre-include=/usr/include/finclude/math-vector-fortran.h
REM seed 1942346387 1252211458 2130862597 2089893391 1205953292 -1726106624 1424112251 1231716660 1055895267 38246781 2049221266 -1515057183 -2004329608 -501978815 -584696280 -30692866 -1849487721 -673449309 -828577013 -2102108835 -109934327 -312548880 1070267392 101907042 290652442 1509694520 -1453977379 22343209 -1232721988 1930192209 -873690318 -2022907382 1001009459
REM
CELL 1.54180   50.00000   50.00000   50.00000   90.00000   90.00000   90.00000
LATT -1
SFAC C  
C      1  0.5168620000000  0.4836170000000  0.4761540000000 1.0
C      1  0.5130930000000  0.5110480000000  0.5267480000000 1.0
C      1  0.4952390000000  0.5019990000000  0.4661220000000 1.0
C      1  0.4858110000000  0.4958090000000  0.5293990000000 1.0
C      1  0.5045230000000  0.4643890000000  0.4953420000000 1.0
C      1  0.5118160000000  0.5317420000000  0.5023170000000 1.0
C      1  0.4788030000000  0.4754420000000  0.5069410000000 1.0
C      1  0.4869510000000  0.5239490000000  0.4854380000000 1.0
C      1  0.4838080000000  0.5293180000000  0.5729170000000 1.0
C      1  0.4819280000000  0.4697470000000  0.4227970000000 1.0
C      1  0.5161270000000  0.4735890000000  0.5676590000000 1.0
C      1  0.5139130000000  0.5267740000000  0.4323580000000 1.0
C      1  0.4841070000000  0.5681000000000  0.5253880000000 1.0
C      1  0.4848480000000  0.4332440000000  0.4697310000000 1.0
C      1  0.5205030000000  0.5725660000000  0.4701810000000 1.0
C      1  0.5174450000000  0.4250750000000  0.5286190000000 1.0
C      1  0.4677800000000  0.4733510000000  0.5475610000000 1.0
C      1  0.4589400000000  0.5325400000000  0.4470360000000 1.0
C      1  0.5314830000000  0.5287410000000  0.5493210000000 1.0
C      1  0.5352080000000  0.4722100000000  0.4506610000000 1.0
C      1  0.4674600000000  0.5471320000000  0.4723240000000 1.0
C      1  0.4634310000000  0.4481000000000  0.5317260000000 1.0
C      1  0.5390090000000  0.5549930000000  0.5363330000000 1.0
C      1  0.5401860000000  0.4478600000000  0.4691770000000 1.0
C      1  0.4665330000000  0.5474380000000  0.5275490000000 1.0
C      1  0.4647360000000  0.4512570000000  0.4636390000000 1.0
C      1  0.5366060000000  0.4404530000000  0.5410360000000 1.0
C      1  0.5394340000000  0.5530810000000  0.4648950000000 1.0
C      1  0.4652690000000  0.5339460000000  0.5539330000000 1.0
C      1  0.4614910000000  0.4569970000000  0.4363930000000 1.0
C      1  0.5338920000000  0.5271230000000  0.4513130000000 1.0
C      1  0.5332790000000  0.4673240000000  0.5476420000000 1.0
C      1  0.4404160000000  0.5504230000000  0.4911250000000 1.0
C      1  0.4454510000000  0.4519130000000  0.5114640000000 1.0
C      1  0.5570230000000  0.4574230000000  0.4906960000000 1.0
C      1  0.5561230000000  0.5504130000000  0.5150380000000 1.0
C      1  0.4378470000000  0.4884500000000  0.5505580000000 1.0
C      1  0.4410660000000  0.5117890000000  0.4565320000000 1.0
C      1  0.5630520000000  0.4903140000000  0.4511210000000 1.0
C      1  0.5589480000000  0.5101940000000  0.5481350000000 1.0
C      1  0.5428630000000  0.5344890000000  0.4915180000000 1.0
C      1  0.5524140000000  0.4830190000000  0.5005130000000 1.0
C      1  0.4543100000000  0.4705430000000  0.4866780000000 1.0
C      1  0.4582190000000  0.5240110000000  0.5036270000000 1.0
C      1  0.5404410000000  0.4907460000000  0.5285780000000 1.0
C      1  0.5437220000000  0.5044620000000  0.4755860000000 1.0
C      1  0.4459680000000  0.5009410000000  0.4816830000000 1.0
C      1  0.4567630000000  0.5094040000000  0.5343040000000 1.0
C      1  0.5176900000000  0.5720520000000  0.5309010000000 1.0
C      1  0.5190360000000  0.4298760000000  0.4700450000000 1.0
C      1  0.4837670000000  0.4302770000000  0.5280970000000 1.0
C      1  0.4865810000000  0.5707010000000  0.4716540000000 1.0
C      1  0.5161070000000  0.5289390000000  0.5755690000000 1.0
C      1  0.5155050000000  0.4721130000000  0.4276540000000 1.0
C      1  0.4796960000000  0.5289480000000  0.4289450000000 1.0
C      1  0.4842230000000  0.4725840000000  0.5733850000000 1.0
C      1  0.5016920000000  0.4317380000000  0.4992300000000 1.0
C      1  0.5056760000000  0.5651020000000  0.4998590000000 1.0
C      1  0.5001460000000  0.5008450000000  0.5752750000000 1.0
C      1  0.4947440000000  0.4993380000000  0.4335800000000 1.0
END
