TITL C-26728-8286-23 -0.00059582302589182 125000 -322.397571548649 0 0 60 (C1) n - 1
REM
REM in /home/nfs/bkarasulu/CARBON/AIRSS/Generating-Clusters/AIREBO/Higher-Symm/Only-C60
REM
REM
REM
REM
REM
REM ./C.cell (28575a23ae977d3b5fae324c64b13b57)
REM
REM compiler GCC version 9.2.1 20190827 (Red Hat 9.2.1-1)
REM options -cpp -mtune=generic -march=x86-64 -g -O0 -fpre-include=/usr/include/finclude/math-vector-fortran.h
REM seed -1065717482 627308963 1512364775 137016737 1321074761 -950498260 2030047288 -1880912238 1295994549 -1805081873 1948758732 146590152 2101666689 2054008576 -1549824727 -202992459 720686324 1019246225 760627721 -956579709 -1191166889 -376540000 -76256075 -386714966 -1884071730 -1381599905 2093633124 54696143 2108892793 406099286 -1437764048 -1326962884 2133842811
REM
CELL 1.54180   50.00000   50.00000   50.00000   90.00000   90.00000   90.00000
LATT -1
SFAC C  
C      1  0.5377100000000  0.5480180000000  0.4551120000000 1.0
C      1  0.4392760000000  0.5138390000000  0.4561390000000 1.0
C      1  0.5234690000000  0.4394140000000  0.4456280000000 1.0
C      1  0.5392340000000  0.5495680000000  0.5479040000000 1.0
C      1  0.4348730000000  0.5226310000000  0.5500890000000 1.0
C      1  0.5220020000000  0.4370120000000  0.5419700000000 1.0
C      1  0.4983450000000  0.4535690000000  0.5143910000000 1.0
C      1  0.5331750000000  0.5235230000000  0.5182280000000 1.0
C      1  0.4610150000000  0.5182740000000  0.5179840000000 1.0
C      1  0.5024240000000  0.4494470000000  0.4811450000000 1.0
C      1  0.5312220000000  0.5130070000000  0.4862860000000 1.0
C      1  0.4627930000000  0.5253220000000  0.4863280000000 1.0
C      1  0.4648510000000  0.4572430000000  0.5191280000000 1.0
C      1  0.5487950000000  0.4952590000000  0.5168980000000 1.0
C      1  0.4810040000000  0.5456700000000  0.5152740000000 1.0
C      1  0.4718220000000  0.4603480000000  0.4857900000000 1.0
C      1  0.5559310000000  0.4898040000000  0.4835170000000 1.0
C      1  0.4756580000000  0.5535810000000  0.4821120000000 1.0
C      1  0.4771270000000  0.4605560000000  0.4521780000000 1.0
C      1  0.5485860000000  0.4989630000000  0.4515220000000 1.0
C      1  0.4832090000000  0.5450940000000  0.4500030000000 1.0
C      1  0.4780280000000  0.4551470000000  0.5489950000000 1.0
C      1  0.5448890000000  0.5009240000000  0.5490540000000 1.0
C      1  0.4791160000000  0.5439580000000  0.5483980000000 1.0
C      1  0.5352290000000  0.5448180000000  0.4847950000000 1.0
C      1  0.4362180000000  0.5042910000000  0.4888290000000 1.0
C      1  0.5325870000000  0.4343440000000  0.4768890000000 1.0
C      1  0.5402750000000  0.5561520000000  0.5164530000000 1.0
C      1  0.4273620000000  0.5127880000000  0.5190870000000 1.0
C      1  0.5299800000000  0.4420210000000  0.5090810000000 1.0
C      1  0.4478510000000  0.4956540000000  0.5481960000000 1.0
C      1  0.5366600000000  0.4658300000000  0.5402490000000 1.0
C      1  0.5105830000000  0.5511810000000  0.5570060000000 1.0
C      1  0.4519260000000  0.4824570000000  0.4594830000000 1.0
C      1  0.5436440000000  0.4654450000000  0.4544150000000 1.0
C      1  0.5135200000000  0.5603600000000  0.4478730000000 1.0
C      1  0.5161770000000  0.4924620000000  0.5609540000000 1.0
C      1  0.4922040000000  0.5164390000000  0.5635040000000 1.0
C      1  0.4827050000000  0.4837830000000  0.5637510000000 1.0
C      1  0.5200590000000  0.4920920000000  0.4361740000000 1.0
C      1  0.5011890000000  0.5199950000000  0.4433530000000 1.0
C      1  0.4865160000000  0.4894090000000  0.4410610000000 1.0
C      1  0.5545010000000  0.5290010000000  0.4446730000000 1.0
C      1  0.4527940000000  0.5349230000000  0.4449640000000 1.0
C      1  0.4963790000000  0.4393900000000  0.4404300000000 1.0
C      1  0.5536800000000  0.5276100000000  0.5569650000000 1.0
C      1  0.4493970000000  0.5442100000000  0.5574110000000 1.0
C      1  0.4970690000000  0.4359230000000  0.5527010000000 1.0
C      1  0.4413280000000  0.4799470000000  0.5200340000000 1.0
C      1  0.5558390000000  0.4636250000000  0.5136470000000 1.0
C      1  0.5094950000000  0.5590350000000  0.5022860000000 1.0
C      1  0.4394270000000  0.4704290000000  0.4880280000000 1.0
C      1  0.5584120000000  0.4558910000000  0.4826670000000 1.0
C      1  0.5005870000000  0.5728800000000  0.4726470000000 1.0
C      1  0.4779260000000  0.4959530000000  0.5323640000000 1.0
C      1  0.5059910000000  0.4780050000000  0.5320430000000 1.0
C      1  0.5109380000000  0.5236660000000  0.5369390000000 1.0
C      1  0.4756490000000  0.5043920000000  0.4695840000000 1.0
C      1  0.5136880000000  0.4728280000000  0.4650580000000 1.0
C      1  0.5076620000000  0.5025980000000  0.4723370000000 1.0
END
