TITL C-26727-7196-167 3.13538974312762e-05 125000 -314.186650342196 0 0 60 (C1) n - 1
REM
REM in /home/nfs/bkarasulu/CARBON/AIRSS/Generating-Clusters/AIREBO/Higher-Symm/Only-C60
REM
REM
REM
REM
REM
REM ./C.cell (28575a23ae977d3b5fae324c64b13b57)
REM
REM compiler GCC version 9.2.1 20190827 (Red Hat 9.2.1-1)
REM options -cpp -mtune=generic -march=x86-64 -g -O0 -fpre-include=/usr/include/finclude/math-vector-fortran.h
REM seed 1579080142 -1797642884 -202925334 -198728130 -1188348412 508852304 -116920216 -511348995 1309772588 -1870421055 390737632 -1508589182 2022331146 -1618913812 1690737222 -1964715374 1401206752 1916717351 1412778747 -1486145055 -293109213 -214495243 -43704398 -662759462 -832006258 1349572749 -312904573 674175396 -1431082068 1516280956 -269687344 -1652999286 1429181545
REM
CELL 1.54180   50.00000   50.00000   50.00000   90.00000   90.00000   90.00000
LATT -1
SFAC C  
C      1  0.4401640000000  0.4813660000000  0.5233470000000 1.0
C      1  0.5224290000000  0.4810130000000  0.5581350000000 1.0
C      1  0.5643170000000  0.4784070000000  0.4771950000000 1.0
C      1  0.4750670000000  0.4792490000000  0.4400950000000 1.0
C      1  0.5313960000000  0.4444020000000  0.4759920000000 1.0
C      1  0.4771250000000  0.4472040000000  0.4638680000000 1.0
C      1  0.4641900000000  0.4495570000000  0.5206180000000 1.0
C      1  0.5178760000000  0.4547160000000  0.5260690000000 1.0
C      1  0.5258720000000  0.5427710000000  0.4536180000000 1.0
C      1  0.4501990000000  0.5465560000000  0.4769860000000 1.0
C      1  0.4774960000000  0.5487470000000  0.5532010000000 1.0
C      1  0.5555170000000  0.5544870000000  0.5306860000000 1.0
C      1  0.4803130000000  0.5470290000000  0.4674120000000 1.0
C      1  0.4638580000000  0.5499810000000  0.5234990000000 1.0
C      1  0.5233500000000  0.5519900000000  0.5381320000000 1.0
C      1  0.5312120000000  0.5422350000000  0.4863530000000 1.0
C      1  0.5531770000000  0.4528910000000  0.4914920000000 1.0
C      1  0.4959210000000  0.4523680000000  0.4413080000000 1.0
C      1  0.4418570000000  0.4544450000000  0.5024850000000 1.0
C      1  0.5036400000000  0.4563280000000  0.5512190000000 1.0
C      1  0.5458280000000  0.4815730000000  0.5347430000000 1.0
C      1  0.5521960000000  0.4642330000000  0.4482470000000 1.0
C      1  0.4454890000000  0.4663060000000  0.4487840000000 1.0
C      1  0.4498650000000  0.4679210000000  0.5530400000000 1.0
C      1  0.4379150000000  0.5163150000000  0.4742390000000 1.0
C      1  0.4781750000000  0.5160350000000  0.5619780000000 1.0
C      1  0.5715590000000  0.5266510000000  0.5206170000000 1.0
C      1  0.5241790000000  0.5151230000000  0.4372790000000 1.0
C      1  0.5265890000000  0.4856620000000  0.4541040000000 1.0
C      1  0.4552800000000  0.4870770000000  0.4738590000000 1.0
C      1  0.4735410000000  0.4894430000000  0.5435600000000 1.0
C      1  0.5478200000000  0.5044060000000  0.5156460000000 1.0
C      1  0.5125250000000  0.4797760000000  0.5052760000000 1.0
C      1  0.5089080000000  0.4683630000000  0.4755650000000 1.0
C      1  0.4778580000000  0.4700370000000  0.4881680000000 1.0
C      1  0.4841500000000  0.4750390000000  0.5196210000000 1.0
C      1  0.4820880000000  0.5232240000000  0.5148200000000 1.0
C      1  0.5116800000000  0.5248660000000  0.5272020000000 1.0
C      1  0.5203430000000  0.5118250000000  0.4970180000000 1.0
C      1  0.4899930000000  0.5202060000000  0.4833910000000 1.0
C      1  0.4474350000000  0.5598140000000  0.5040210000000 1.0
C      1  0.5040010000000  0.5639130000000  0.5539270000000 1.0
C      1  0.5404330000000  0.5614000000000  0.5032360000000 1.0
C      1  0.4996030000000  0.5581440000000  0.4516000000000 1.0
C      1  0.5232660000000  0.4468400000000  0.4452310000000 1.0
C      1  0.4468400000000  0.4480810000000  0.4756870000000 1.0
C      1  0.4766170000000  0.4501420000000  0.5499950000000 1.0
C      1  0.5480270000000  0.4549580000000  0.5193980000000 1.0
C      1  0.5287040000000  0.5136270000000  0.5513870000000 1.0
C      1  0.5443180000000  0.5046290000000  0.4739870000000 1.0
C      1  0.4738260000000  0.5093960000000  0.4557820000000 1.0
C      1  0.4540010000000  0.5119140000000  0.5304110000000 1.0
C      1  0.5051030000000  0.5061230000000  0.5732140000000 1.0
C      1  0.5763180000000  0.5020930000000  0.4975200000000 1.0
C      1  0.5029500000000  0.4898110000000  0.4292190000000 1.0
C      1  0.4285880000000  0.4914280000000  0.4954520000000 1.0
C      1  0.5556210000000  0.5276020000000  0.4585390000000 1.0
C      1  0.4500450000000  0.5318090000000  0.4463460000000 1.0
C      1  0.4481420000000  0.5317870000000  0.5558080000000 1.0
C      1  0.5552050000000  0.5266670000000  0.5503720000000 1.0
END
