TITL C-26728-8286-175 -0.000712555371148706 125000 -337.916656353965 0 0 60 (C1) n - 1
REM
REM in /home/nfs/bkarasulu/CARBON/AIRSS/Generating-Clusters/AIREBO/Higher-Symm/Only-C60
REM
REM
REM
REM
REM
REM ./C.cell (28575a23ae977d3b5fae324c64b13b57)
REM
REM compiler GCC version 9.2.1 20190827 (Red Hat 9.2.1-1)
REM options -cpp -mtune=generic -march=x86-64 -g -O0 -fpre-include=/usr/include/finclude/math-vector-fortran.h
REM seed 420807052 -354058435 317753522 -258194518 909566843 -1801803225 174777444 650733251 -216827585 453139722 1683853832 401126945 755232192 -1430602558 -1157359895 598872123 -1859253648 -521374575 1453048770 2082903346 1760931862 -1289413554 934173507 -1117757600 -1124468154 -405568239 2119527566 1111888614 1729703907 1760407469 -822798938 -1791772879 -2064701873
REM
CELL 1.54180   50.00000   50.00000   50.00000   90.00000   90.00000   90.00000
LATT -1
SFAC C  
C      1  0.5078270000000  0.5443240000000  0.5368090000000 1.0
C      1  0.4740900000000  0.5463460000000  0.5329090000000 1.0
C      1  0.4739180000000  0.5542760000000  0.4854280000000 1.0
C      1  0.4800080000000  0.5544630000000  0.4544850000000 1.0
C      1  0.5086490000000  0.5603430000000  0.4402780000000 1.0
C      1  0.5368470000000  0.5561580000000  0.4804730000000 1.0
C      1  0.5307900000000  0.5550460000000  0.5140260000000 1.0
C      1  0.4790410000000  0.5007990000000  0.5437360000000 1.0
C      1  0.4541960000000  0.5062060000000  0.4936780000000 1.0
C      1  0.4776270000000  0.4977360000000  0.4704830000000 1.0
C      1  0.5101110000000  0.5021180000000  0.4613760000000 1.0
C      1  0.5331880000000  0.4961140000000  0.4857120000000 1.0
C      1  0.5383980000000  0.4955760000000  0.5193190000000 1.0
C      1  0.5098590000000  0.4936100000000  0.5327300000000 1.0
C      1  0.4632310000000  0.4483750000000  0.5022900000000 1.0
C      1  0.4762810000000  0.4453570000000  0.4775290000000 1.0
C      1  0.5030690000000  0.4460830000000  0.4656160000000 1.0
C      1  0.5273390000000  0.4446210000000  0.4851030000000 1.0
C      1  0.5330840000000  0.4399190000000  0.5165480000000 1.0
C      1  0.5055150000000  0.4468040000000  0.5323030000000 1.0
C      1  0.4742960000000  0.4469120000000  0.5279810000000 1.0
C      1  0.5505780000000  0.4983590000000  0.4369410000000 1.0
C      1  0.5814620000000  0.4947500000000  0.4960100000000 1.0
C      1  0.5555760000000  0.4950280000000  0.5621350000000 1.0
C      1  0.4910290000000  0.4917570000000  0.5916600000000 1.0
C      1  0.4283560000000  0.4851490000000  0.5463670000000 1.0
C      1  0.4232740000000  0.5002360000000  0.4614200000000 1.0
C      1  0.4721380000000  0.4905220000000  0.4192510000000 1.0
C      1  0.5418270000000  0.4740290000000  0.4461300000000 1.0
C      1  0.5709050000000  0.4693250000000  0.4979040000000 1.0
C      1  0.5449530000000  0.4708030000000  0.5544980000000 1.0
C      1  0.4890890000000  0.4725830000000  0.5724180000000 1.0
C      1  0.4384990000000  0.4645960000000  0.5290320000000 1.0
C      1  0.4356680000000  0.4766690000000  0.4676270000000 1.0
C      1  0.4808300000000  0.4672440000000  0.4313680000000 1.0
C      1  0.4494320000000  0.5475080000000  0.4661640000000 1.0
C      1  0.4961660000000  0.5285750000000  0.4451830000000 1.0
C      1  0.5319860000000  0.5479080000000  0.4542930000000 1.0
C      1  0.5565440000000  0.5397440000000  0.4979610000000 1.0
C      1  0.5402050000000  0.5411810000000  0.5432450000000 1.0
C      1  0.4949260000000  0.5234990000000  0.5577710000000 1.0
C      1  0.4532280000000  0.5231350000000  0.5232050000000 1.0
C      1  0.5129910000000  0.4688320000000  0.5532810000000 1.0
C      1  0.4652410000000  0.4700660000000  0.5493220000000 1.0
C      1  0.4434070000000  0.4739840000000  0.4989600000000 1.0
C      1  0.4658250000000  0.4678090000000  0.4594560000000 1.0
C      1  0.5095930000000  0.4715850000000  0.4463370000000 1.0
C      1  0.5471270000000  0.4665120000000  0.4764610000000 1.0
C      1  0.5519130000000  0.4643200000000  0.5233940000000 1.0
C      1  0.5352060000000  0.5203140000000  0.4473840000000 1.0
C      1  0.5608150000000  0.5139050000000  0.4918500000000 1.0
C      1  0.5503030000000  0.5153350000000  0.5422840000000 1.0
C      1  0.4963010000000  0.5181980000000  0.5844040000000 1.0
C      1  0.4461190000000  0.5062800000000  0.5463790000000 1.0
C      1  0.4372960000000  0.5235680000000  0.4719120000000 1.0
C      1  0.4719990000000  0.5098420000000  0.4383990000000 1.0
C      1  0.4849140000000  0.5385860000000  0.5048430000000 1.0
C      1  0.4957990000000  0.4864160000000  0.4960330000000 1.0
C      1  0.5036510000000  0.4609930000000  0.5025660000000 1.0
C      1  0.4951970000000  0.5130700000000  0.5092640000000 1.0
END
