TITL C-26741-8371-138 -0.000167437998954816 125000 -367.231236101036 0 0 60 (C1) n - 1
REM
REM in /home/nfs/bkarasulu/CARBON/AIRSS/Generating-Clusters/AIREBO/Higher-Symm/Only-C60
REM
REM
REM
REM
REM
REM ./C.cell (28575a23ae977d3b5fae324c64b13b57)
REM
REM compiler GCC version 9.2.1 20190827 (Red Hat 9.2.1-1)
REM options -cpp -mtune=generic -march=x86-64 -g -O0 -fpre-include=/usr/include/finclude/math-vector-fortran.h
REM seed -586324300 1738859602 1762624412 1800025231 1173762516 2043212517 92701137 -1109926110 12546747 1270376589 -1426086523 -991794788 2117624525 -272705255 1662024376 -937861427 996390299 -1590294760 -2132158085 -356167975 1439516511 1745750118 919947656 502926487 -1277916127 -1409244910 -839668686 -464027415 -1385297492 2114058950 -718652122 1533114443 1002126671
REM
CELL 1.54180   50.00000   50.00000   50.00000   90.00000   90.00000   90.00000
LATT -1
SFAC C  
C      1  0.5220680000000  0.4773410000000  0.4428010000000 1.0
C      1  0.5232130000000  0.4309790000000  0.4757630000000 1.0
C      1  0.5265820000000  0.4589860000000  0.5518260000000 1.0
C      1  0.5238620000000  0.5125550000000  0.5692630000000 1.0
C      1  0.5284760000000  0.5831310000000  0.5156940000000 1.0
C      1  0.5235610000000  0.5325070000000  0.4495110000000 1.0
C      1  0.5268180000000  0.5075030000000  0.4298160000000 1.0
C      1  0.5255300000000  0.5728040000000  0.4865260000000 1.0
C      1  0.5251870000000  0.5431630000000  0.5566210000000 1.0
C      1  0.5205600000000  0.4786330000000  0.5703920000000 1.0
C      1  0.5287910000000  0.4328700000000  0.5026260000000 1.0
C      1  0.5353440000000  0.4516640000000  0.4536000000000 1.0
C      1  0.5606260000000  0.4888510000000  0.5395410000000 1.0
C      1  0.5489310000000  0.5420170000000  0.5374310000000 1.0
C      1  0.5501190000000  0.5531090000000  0.4847120000000 1.0
C      1  0.5558280000000  0.5094850000000  0.4475430000000 1.0
C      1  0.5622590000000  0.4615920000000  0.4635140000000 1.0
C      1  0.5506170000000  0.4490120000000  0.5104900000000 1.0
C      1  0.5490230000000  0.5130700000000  0.5465970000000 1.0
C      1  0.5480280000000  0.4642010000000  0.5340800000000 1.0
C      1  0.5690640000000  0.4534780000000  0.4895410000000 1.0
C      1  0.5699380000000  0.4858020000000  0.4515470000000 1.0
C      1  0.5489540000000  0.5335670000000  0.4654650000000 1.0
C      1  0.5489240000000  0.5589180000000  0.5154700000000 1.0
C      1  0.4721900000000  0.4737570000000  0.5612760000000 1.0
C      1  0.4769810000000  0.5540280000000  0.5565110000000 1.0
C      1  0.4777040000000  0.5658120000000  0.4935070000000 1.0
C      1  0.4767850000000  0.5133400000000  0.4291780000000 1.0
C      1  0.4809710000000  0.4582020000000  0.4538910000000 1.0
C      1  0.4779160000000  0.4421380000000  0.5158470000000 1.0
C      1  0.4710360000000  0.5288110000000  0.5656530000000 1.0
C      1  0.4778570000000  0.4495790000000  0.5491800000000 1.0
C      1  0.4716910000000  0.4433510000000  0.4824420000000 1.0
C      1  0.4677150000000  0.4839280000000  0.4403320000000 1.0
C      1  0.4754290000000  0.5339840000000  0.4478160000000 1.0
C      1  0.4764260000000  0.5693140000000  0.5259760000000 1.0
C      1  0.4368270000000  0.4713150000000  0.5313610000000 1.0
C      1  0.4499740000000  0.5156410000000  0.5521660000000 1.0
C      1  0.4498040000000  0.5500800000000  0.5168740000000 1.0
C      1  0.4520810000000  0.5341580000000  0.4638660000000 1.0
C      1  0.4397120000000  0.4870100000000  0.4509420000000 1.0
C      1  0.4398340000000  0.4502180000000  0.4840580000000 1.0
C      1  0.4365730000000  0.5331550000000  0.5345040000000 1.0
C      1  0.4505370000000  0.4876680000000  0.5498730000000 1.0
C      1  0.4473160000000  0.4539070000000  0.5121450000000 1.0
C      1  0.4286830000000  0.4645220000000  0.4632300000000 1.0
C      1  0.4334740000000  0.5138790000000  0.4570610000000 1.0
C      1  0.4525150000000  0.5501800000000  0.4865150000000 1.0
C      1  0.5047550000000  0.4417040000000  0.4424500000000 1.0
C      1  0.5078490000000  0.4270620000000  0.5196080000000 1.0
C      1  0.4928040000000  0.4864780000000  0.5751180000000 1.0
C      1  0.5049920000000  0.5613950000000  0.5527870000000 1.0
C      1  0.5004040000000  0.5629930000000  0.4781340000000 1.0
C      1  0.5005040000000  0.5086220000000  0.4103760000000 1.0
C      1  0.4998810000000  0.5442610000000  0.4572570000000 1.0
C      1  0.5068360000000  0.5828840000000  0.5328640000000 1.0
C      1  0.4912300000000  0.5151710000000  0.5785550000000 1.0
C      1  0.5057440000000  0.4416850000000  0.5445690000000 1.0
C      1  0.4946560000000  0.4243280000000  0.4683850000000 1.0
C      1  0.4980100000000  0.4802030000000  0.4253220000000 1.0
END
