TITL C-26726-4881-122 -0.00282858129629389 125000 -336.505459886043 0 0 60 (C1) n - 1
REM
REM in /home/nfs/bkarasulu/CARBON/AIRSS/Generating-Clusters/AIREBO/Higher-Symm/Only-C60
REM
REM
REM
REM
REM
REM ./C.cell (28575a23ae977d3b5fae324c64b13b57)
REM
REM compiler GCC version 9.2.1 20190827 (Red Hat 9.2.1-1)
REM options -cpp -mtune=generic -march=x86-64 -g -O0 -fpre-include=/usr/include/finclude/math-vector-fortran.h
REM seed -813726631 601689425 -2076623583 607991141 1605890657 -1501544687 -150800756 1278156576 1284442152 -1852501137 144290073 972584059 1477955634 534937078 925638085 1120483690 -745095057 -951553459 -743870483 -2058239292 -1877745926 -2094293328 -1915287771 -1250966625 -1034398551 -1202343564 782068375 358069583 1734670604 -2128679472 -1280896591 -1113400096 -820839438
REM
CELL 1.54180   50.00000   50.00000   50.00000   90.00000   90.00000   90.00000
LATT -1
SFAC C  
C      1  0.4639370000000  0.4836100000000  0.4914670000000 1.0
C      1  0.5151600000000  0.4651190000000  0.4898180000000 1.0
C      1  0.5401250000000  0.5139730000000  0.4776580000000 1.0
C      1  0.4847040000000  0.5333240000000  0.4847020000000 1.0
C      1  0.4586850000000  0.5120760000000  0.4793880000000 1.0
C      1  0.5176950000000  0.5289920000000  0.4936730000000 1.0
C      1  0.5404390000000  0.4802050000000  0.4780030000000 1.0
C      1  0.4835530000000  0.4604810000000  0.4776610000000 1.0
C      1  0.5160090000000  0.5835090000000  0.4879680000000 1.0
C      1  0.4107980000000  0.5107760000000  0.4906480000000 1.0
C      1  0.4876310000000  0.4111630000000  0.4936990000000 1.0
C      1  0.5894690000000  0.4823490000000  0.4866370000000 1.0
C      1  0.5150410000000  0.4127160000000  0.4907580000000 1.0
C      1  0.4122000000000  0.4830970000000  0.4895350000000 1.0
C      1  0.4884770000000  0.5847840000000  0.4861160000000 1.0
C      1  0.5897930000000  0.5100630000000  0.4858790000000 1.0
C      1  0.5142550000000  0.5446740000000  0.4430790000000 1.0
C      1  0.4559640000000  0.5072660000000  0.4493190000000 1.0
C      1  0.4909680000000  0.4715830000000  0.4463840000000 1.0
C      1  0.5374800000000  0.4979930000000  0.4308350000000 1.0
C      1  0.5146220000000  0.4755940000000  0.4342200000000 1.0
C      1  0.4616610000000  0.4809000000000  0.4420100000000 1.0
C      1  0.4894400000000  0.5398330000000  0.4521200000000 1.0
C      1  0.5382890000000  0.5222430000000  0.4481000000000 1.0
C      1  0.4670840000000  0.5571760000000  0.5248890000000 1.0
C      1  0.4431570000000  0.4651500000000  0.5278160000000 1.0
C      1  0.5351780000000  0.4461520000000  0.5269560000000 1.0
C      1  0.5592320000000  0.5244760000000  0.5220130000000 1.0
C      1  0.4671770000000  0.4440750000000  0.5284030000000 1.0
C      1  0.4429830000000  0.5330420000000  0.5234760000000 1.0
C      1  0.5335940000000  0.5465060000000  0.5259080000000 1.0
C      1  0.5582410000000  0.4690960000000  0.5225410000000 1.0
C      1  0.4749680000000  0.4356890000000  0.4993360000000 1.0
C      1  0.5648170000000  0.4713480000000  0.4947750000000 1.0
C      1  0.5261380000000  0.5604510000000  0.4990650000000 1.0
C      1  0.4352320000000  0.5239980000000  0.4955780000000 1.0
C      1  0.4750220000000  0.5631690000000  0.4950930000000 1.0
C      1  0.5656300000000  0.5221000000000  0.4939520000000 1.0
C      1  0.5264070000000  0.4367780000000  0.4986660000000 1.0
C      1  0.4358360000000  0.4713180000000  0.4986850000000 1.0
C      1  0.4819010000000  0.5215840000000  0.5164920000000 1.0
C      1  0.4799070000000  0.4908270000000  0.5163530000000 1.0
C      1  0.5095670000000  0.4812360000000  0.5153000000000 1.0
C      1  0.5123530000000  0.5129710000000  0.5223420000000 1.0
C      1  0.5183130000000  0.4755930000000  0.5471120000000 1.0
C      1  0.5210380000000  0.5201680000000  0.5531320000000 1.0
C      1  0.4745250000000  0.5331700000000  0.5476240000000 1.0
C      1  0.4729350000000  0.4834930000000  0.5466620000000 1.0
C      1  0.5425960000000  0.4723770000000  0.4486610000000 1.0
C      1  0.5435630000000  0.5536980000000  0.4362590000000 1.0
C      1  0.4676780000000  0.5298460000000  0.4369390000000 1.0
C      1  0.4575510000000  0.4523090000000  0.4562990000000 1.0
C      1  0.5012110000000  0.5562290000000  0.5300590000000 1.0
C      1  0.5012110000000  0.4447150000000  0.5284900000000 1.0
C      1  0.5576390000000  0.4964210000000  0.5359250000000 1.0
C      1  0.4424310000000  0.4991450000000  0.5264200000000 1.0
C      1  0.5036340000000  0.5415520000000  0.5584020000000 1.0
C      1  0.4573690000000  0.5087020000000  0.5531410000000 1.0
C      1  0.4912780000000  0.4632680000000  0.5538510000000 1.0
C      1  0.5362110000000  0.4958510000000  0.5547980000000 1.0
END
