TITL C-26737-6152-127 0.00318304822458191 125000 -311.575556010975 0 0 60 (C1) n - 1
REM
REM in /home/nfs/bkarasulu/CARBON/AIRSS/Generating-Clusters/AIREBO/Higher-Symm/Only-C60
REM
REM
REM
REM
REM
REM ./C.cell (28575a23ae977d3b5fae324c64b13b57)
REM
REM compiler GCC version 9.2.1 20190827 (Red Hat 9.2.1-1)
REM options -cpp -mtune=generic -march=x86-64 -g -O0 -fpre-include=/usr/include/finclude/math-vector-fortran.h
REM seed -1373216400 464334303 1186107704 1766556512 2021914316 1352282916 1931182764 567959162 319406993 -1728543539 -757835671 511104160 1497927164 -1709096384 885571657 -577953499 -2073389995 196535364 2028379409 -1559302494 -1866590422 1460726024 1087176510 1780467346 -1348396902 638752126 2144853032 1633925666 -1411592335 1280057732 388823646 -1876311581 -1879984726
REM
CELL 1.54180   50.00000   50.00000   50.00000   90.00000   90.00000   90.00000
LATT -1
SFAC C  
C      1  0.4691480000000  0.4610020000000  0.5576990000000 1.0
C      1  0.5576080000000  0.4696520000000  0.4597690000000 1.0
C      1  0.4595270000000  0.5576140000000  0.4691590000000 1.0
C      1  0.5304440000000  0.5386410000000  0.5566550000000 1.0
C      1  0.5313270000000  0.4613920000000  0.4420130000000 1.0
C      1  0.4687650000000  0.5395700000000  0.4430820000000 1.0
C      1  0.4418360000000  0.5312040000000  0.4609630000000 1.0
C      1  0.4426760000000  0.4689410000000  0.5393330000000 1.0
C      1  0.5556590000000  0.5289760000000  0.5380810000000 1.0
C      1  0.5395550000000  0.4434240000000  0.4688430000000 1.0
C      1  0.5377500000000  0.5549990000000  0.5290090000000 1.0
C      1  0.4613190000000  0.4427010000000  0.5313040000000 1.0
C      1  0.4669970000000  0.4583120000000  0.4406980000000 1.0
C      1  0.5623280000000  0.4652740000000  0.5456820000000 1.0
C      1  0.4577470000000  0.5601010000000  0.5336790000000 1.0
C      1  0.5335770000000  0.5424930000000  0.4419070000000 1.0
C      1  0.5336440000000  0.4577920000000  0.5604050000000 1.0
C      1  0.4662300000000  0.5426910000000  0.5600500000000 1.0
C      1  0.4405530000000  0.5334890000000  0.5422300000000 1.0
C      1  0.4406860000000  0.4668930000000  0.4579370000000 1.0
C      1  0.5613300000000  0.5343400000000  0.4576290000000 1.0
C      1  0.5425270000000  0.4413940000000  0.5335460000000 1.0
C      1  0.5460800000000  0.5625920000000  0.4654840000000 1.0
C      1  0.4582930000000  0.4410080000000  0.4669560000000 1.0
C      1  0.4846760000000  0.4871450000000  0.5729030000000 1.0
C      1  0.5735190000000  0.4844960000000  0.4852740000000 1.0
C      1  0.4854150000000  0.5728150000000  0.4842520000000 1.0
C      1  0.5145650000000  0.5134710000000  0.5727530000000 1.0
C      1  0.5154530000000  0.4877230000000  0.4276260000000 1.0
C      1  0.4852870000000  0.5137060000000  0.4285480000000 1.0
C      1  0.4272910000000  0.5152820000000  0.4872690000000 1.0
C      1  0.4280270000000  0.4850420000000  0.5132010000000 1.0
C      1  0.5725580000000  0.5124290000000  0.5136600000000 1.0
C      1  0.5135920000000  0.4287590000000  0.4852110000000 1.0
C      1  0.5135820000000  0.5722840000000  0.5124250000000 1.0
C      1  0.4876930000000  0.4281710000000  0.5154810000000 1.0
C      1  0.4804040000000  0.4834040000000  0.4236830000000 1.0
C      1  0.5667840000000  0.4772890000000  0.5142550000000 1.0
C      1  0.4833740000000  0.5761260000000  0.5194530000000 1.0
C      1  0.5200840000000  0.5183130000000  0.4238680000000 1.0
C      1  0.5198260000000  0.4831890000000  0.5769810000000 1.0
C      1  0.4796930000000  0.5176420000000  0.5771280000000 1.0
C      1  0.4229790000000  0.5198280000000  0.5177620000000 1.0
C      1  0.4233990000000  0.4802440000000  0.4828460000000 1.0
C      1  0.5765400000000  0.5198260000000  0.4836770000000 1.0
C      1  0.5182170000000  0.4237230000000  0.5199340000000 1.0
C      1  0.5144110000000  0.5665530000000  0.4772060000000 1.0
C      1  0.4832870000000  0.4239950000000  0.4804420000000 1.0
C      1  0.5015290000000  0.4615780000000  0.5581160000000 1.0
C      1  0.5013740000000  0.5397130000000  0.4434220000000 1.0
C      1  0.4600680000000  0.5581390000000  0.5015260000000 1.0
C      1  0.5397150000000  0.4433200000000  0.5013880000000 1.0
C      1  0.4982180000000  0.5392030000000  0.5576840000000 1.0
C      1  0.5404840000000  0.5580060000000  0.4973070000000 1.0
C      1  0.4990250000000  0.4617720000000  0.4422190000000 1.0
C      1  0.4423890000000  0.5013310000000  0.5393650000000 1.0
C      1  0.4421390000000  0.4989110000000  0.4614300000000 1.0
C      1  0.5587930000000  0.5020660000000  0.4601600000000 1.0
C      1  0.4618160000000  0.4428030000000  0.4989760000000 1.0
C      1  0.5581910000000  0.4972060000000  0.5404590000000 1.0
END
