TITL C-26738-6379-145 -6.54575123741825e-05 125000 -301.2455225895 0 0 60 (C1) n - 1
REM
REM in /home/nfs/bkarasulu/CARBON/AIRSS/Generating-Clusters/AIREBO/Higher-Symm/Only-C60
REM
REM
REM
REM
REM
REM ./C.cell (28575a23ae977d3b5fae324c64b13b57)
REM
REM compiler GCC version 9.2.1 20190827 (Red Hat 9.2.1-1)
REM options -cpp -mtune=generic -march=x86-64 -g -O0 -fpre-include=/usr/include/finclude/math-vector-fortran.h
REM seed 1546686325 -35326496 -2138907648 107248316 -1567300569 488398043 350247442 -914824445 -2097387917 -878173867 557964070 -919040882 988279317 -775944907 -81683685 -1839021242 -983779682 -172272947 1397480311 160427153 1690725100 1796717345 421359972 -1366388475 -1123792540 -1879373391 -1761559190 -2127380407 1482042890 305464141 -1088189804 -813549738 -1723135136
REM
CELL 1.54180   50.00000   50.00000   50.00000   90.00000   90.00000   90.00000
LATT -1
SFAC C  
C      1  0.4991840000000  0.4379630000000  0.5402720000000 1.0
C      1  0.4548860000000  0.4534400000000  0.5449940000000 1.0
C      1  0.4464360000000  0.4991260000000  0.5516650000000 1.0
C      1  0.4682040000000  0.5589000000000  0.5335910000000 1.0
C      1  0.5283530000000  0.5620020000000  0.5331920000000 1.0
C      1  0.5611200000000  0.5149970000000  0.5361180000000 1.0
C      1  0.5409720000000  0.4618370000000  0.5345960000000 1.0
C      1  0.5317720000000  0.5114840000000  0.5220540000000 1.0
C      1  0.5208670000000  0.4861260000000  0.5361720000000 1.0
C      1  0.5032900000000  0.4644000000000  0.5218210000000 1.0
C      1  0.4704230000000  0.4569950000000  0.5202240000000 1.0
C      1  0.4598000000000  0.5068880000000  0.5308730000000 1.0
C      1  0.4838750000000  0.5303910000000  0.5259500000000 1.0
C      1  0.5154800000000  0.5352220000000  0.5315730000000 1.0
C      1  0.4697830000000  0.5295200000000  0.4627980000000 1.0
C      1  0.5199850000000  0.5488870000000  0.4508710000000 1.0
C      1  0.5456680000000  0.5078490000000  0.4572200000000 1.0
C      1  0.5505960000000  0.4743910000000  0.4542350000000 1.0
C      1  0.5104490000000  0.4496890000000  0.4655680000000 1.0
C      1  0.4615980000000  0.4778430000000  0.4557030000000 1.0
C      1  0.4501410000000  0.5062730000000  0.4666400000000 1.0
C      1  0.4453670000000  0.5522210000000  0.5015280000000 1.0
C      1  0.5078840000000  0.5728170000000  0.5008540000000 1.0
C      1  0.5618960000000  0.5333840000000  0.5009280000000 1.0
C      1  0.5647130000000  0.4737970000000  0.5049410000000 1.0
C      1  0.5117760000000  0.4312640000000  0.5010290000000 1.0
C      1  0.4512750000000  0.4390330000000  0.4906710000000 1.0
C      1  0.4244550000000  0.4947720000000  0.4972840000000 1.0
C      1  0.5356900000000  0.5532260000000  0.5023790000000 1.0
C      1  0.5680190000000  0.5021530000000  0.5082890000000 1.0
C      1  0.5373690000000  0.4535100000000  0.5039650000000 1.0
C      1  0.4836140000000  0.4347290000000  0.4982300000000 1.0
C      1  0.4376550000000  0.4686270000000  0.4955290000000 1.0
C      1  0.4360890000000  0.5263740000000  0.4981480000000 1.0
C      1  0.4778200000000  0.5623770000000  0.5027680000000 1.0
C      1  0.5163740000000  0.4642870000000  0.4361870000000 1.0
C      1  0.4837400000000  0.4683030000000  0.4317280000000 1.0
C      1  0.4703340000000  0.4985100000000  0.4293120000000 1.0
C      1  0.4787770000000  0.5241980000000  0.4361870000000 1.0
C      1  0.5016870000000  0.5373210000000  0.4274410000000 1.0
C      1  0.5318990000000  0.5238880000000  0.4317780000000 1.0
C      1  0.5346940000000  0.4905480000000  0.4288910000000 1.0
C      1  0.5572870000000  0.4522860000000  0.5522540000000 1.0
C      1  0.4946310000000  0.4186240000000  0.5563440000000 1.0
C      1  0.4396110000000  0.4494270000000  0.5650500000000 1.0
C      1  0.4313120000000  0.4932250000000  0.5722390000000 1.0
C      1  0.4562800000000  0.5709620000000  0.5527560000000 1.0
C      1  0.5323700000000  0.5826890000000  0.5497110000000 1.0
C      1  0.5726460000000  0.5211560000000  0.5594770000000 1.0
C      1  0.5031520000000  0.4684580000000  0.4897890000000 1.0
C      1  0.4705100000000  0.4738670000000  0.4884990000000 1.0
C      1  0.4628560000000  0.5055570000000  0.4981690000000 1.0
C      1  0.4872960000000  0.5284020000000  0.4920830000000 1.0
C      1  0.5168990000000  0.5409420000000  0.4793130000000 1.0
C      1  0.5309530000000  0.5112380000000  0.4880630000000 1.0
C      1  0.5334930000000  0.4780680000000  0.4810270000000 1.0
C      1  0.4890810000000  0.5162420000000  0.5564370000000 1.0
C      1  0.5001860000000  0.4874370000000  0.4547790000000 1.0
C      1  0.5014710000000  0.5044490000000  0.4725410000000 1.0
C      1  0.5051560000000  0.4972130000000  0.5602730000000 1.0
END
