TITL C-26737-6152-169 0.00233198622741517 125000 -310.220426298418 0 0 60 (C1) n - 1
REM
REM in /home/nfs/bkarasulu/CARBON/AIRSS/Generating-Clusters/AIREBO/Higher-Symm/Only-C60
REM
REM
REM
REM
REM
REM ./C.cell (28575a23ae977d3b5fae324c64b13b57)
REM
REM compiler GCC version 9.2.1 20190827 (Red Hat 9.2.1-1)
REM options -cpp -mtune=generic -march=x86-64 -g -O0 -fpre-include=/usr/include/finclude/math-vector-fortran.h
REM seed -805085492 -555052432 2043982033 -1006584412 -728092846 -161514371 -220000174 -1575799520 1987204456 -1404191767 -144683335 -1161189213 2005766894 -2105264506 298692272 -229081816 -497555062 281490618 -1195199114 -234492891 212488670 374940406 1563961173 1220467296 -1409373158 -728630454 -1110691545 327863614 -381943192 240624183 1054161551 -1523483463 1062297050
REM
CELL 1.54180   50.00000   50.00000   50.00000   90.00000   90.00000   90.00000
LATT -1
SFAC C  
C      1  0.4394500000000  0.5505800000000  0.4888190000000 1.0
C      1  0.4519130000000  0.4750080000000  0.5544590000000 1.0
C      1  0.4429900000000  0.4645290000000  0.4558580000000 1.0
C      1  0.5662930000000  0.5212060000000  0.5075820000000 1.0
C      1  0.5660020000000  0.4631830000000  0.5133140000000 1.0
C      1  0.5677140000000  0.4922390000000  0.4665690000000 1.0
C      1  0.5515840000000  0.4498350000000  0.5388450000000 1.0
C      1  0.5485670000000  0.4853930000000  0.4406360000000 1.0
C      1  0.5514700000000  0.5444170000000  0.5268980000000 1.0
C      1  0.4655360000000  0.5733570000000  0.5635240000000 1.0
C      1  0.4744820000000  0.4038130000000  0.5207570000000 1.0
C      1  0.4802500000000  0.5346390000000  0.4053600000000 1.0
C      1  0.5174700000000  0.5043640000000  0.4682470000000 1.0
C      1  0.5046890000000  0.5362040000000  0.5155090000000 1.0
C      1  0.5129270000000  0.4699940000000  0.5243790000000 1.0
C      1  0.5317250000000  0.4996960000000  0.4236120000000 1.0
C      1  0.5361590000000  0.5600970000000  0.5450550000000 1.0
C      1  0.5307730000000  0.4325510000000  0.5386740000000 1.0
C      1  0.4635940000000  0.5254760000000  0.5543110000000 1.0
C      1  0.4685810000000  0.4439820000000  0.4935040000000 1.0
C      1  0.4694770000000  0.5338470000000  0.4526100000000 1.0
C      1  0.5221840000000  0.5282670000000  0.5646260000000 1.0
C      1  0.5255600000000  0.4317410000000  0.4877380000000 1.0
C      1  0.5328190000000  0.5460130000000  0.4434940000000 1.0
C      1  0.4862300000000  0.5291820000000  0.4315200000000 1.0
C      1  0.4768070000000  0.5494900000000  0.5564470000000 1.0
C      1  0.4825570000000  0.4280030000000  0.5109870000000 1.0
C      1  0.4784180000000  0.5290650000000  0.4998340000000 1.0
C      1  0.4868650000000  0.4913250000000  0.5275000000000 1.0
C      1  0.4906890000000  0.4863720000000  0.4754670000000 1.0
C      1  0.5310360000000  0.5303320000000  0.5057770000000 1.0
C      1  0.5437650000000  0.4809260000000  0.5300700000000 1.0
C      1  0.5341720000000  0.4747480000000  0.4679070000000 1.0
C      1  0.5620340000000  0.4641280000000  0.4842800000000 1.0
C      1  0.5473240000000  0.5161820000000  0.4794930000000 1.0
C      1  0.5532740000000  0.5081070000000  0.5341980000000 1.0
C      1  0.5105670000000  0.4375720000000  0.5143880000000 1.0
C      1  0.5139620000000  0.5214090000000  0.4389210000000 1.0
C      1  0.5044650000000  0.5481900000000  0.5454920000000 1.0
C      1  0.4424780000000  0.5396340000000  0.5138510000000 1.0
C      1  0.4552160000000  0.4643080000000  0.5293090000000 1.0
C      1  0.4481600000000  0.4916060000000  0.4521930000000 1.0
C      1  0.4604050000000  0.5123300000000  0.5233320000000 1.0
C      1  0.4704450000000  0.4767240000000  0.5015430000000 1.0
C      1  0.4661030000000  0.5098480000000  0.4745980000000 1.0
C      1  0.5460790000000  0.5211270000000  0.5595860000000 1.0
C      1  0.5466660000000  0.4376320000000  0.4758560000000 1.0
C      1  0.5510410000000  0.5424400000000  0.4607800000000 1.0
C      1  0.5156300000000  0.4901520000000  0.5793180000000 1.0
C      1  0.4959840000000  0.4599920000000  0.4287190000000 1.0
C      1  0.5015700000000  0.5821150000000  0.4944550000000 1.0
C      1  0.4862090000000  0.5606480000000  0.4899070000000 1.0
C      1  0.4970290000000  0.4904780000000  0.5599470000000 1.0
C      1  0.4888470000000  0.4626650000000  0.4549480000000 1.0
C      1  0.4398750000000  0.4842770000000  0.4905880000000 1.0
C      1  0.4345290000000  0.5109190000000  0.4871910000000 1.0
C      1  0.4334210000000  0.4977300000000  0.5273690000000 1.0
C      1  0.4653110000000  0.4490090000000  0.4648960000000 1.0
C      1  0.4626770000000  0.5538710000000  0.4727350000000 1.0
C      1  0.4679510000000  0.4970290000000  0.5622160000000 1.0
END
