TITL C-26736-6558-86 -0.000932822545950184 125000 -328.73283635192 0 0 60 (C1) n - 1
REM
REM in /home/nfs/bkarasulu/CARBON/AIRSS/Generating-Clusters/AIREBO/Higher-Symm/Only-C60
REM
REM
REM
REM
REM
REM ./C.cell (28575a23ae977d3b5fae324c64b13b57)
REM
REM compiler GCC version 9.2.1 20190827 (Red Hat 9.2.1-1)
REM options -cpp -mtune=generic -march=x86-64 -g -O0 -fpre-include=/usr/include/finclude/math-vector-fortran.h
REM seed 53032368 -664439928 885596917 373048627 997475077 868960607 2103208320 320527864 2081542169 -1050366000 -1760226996 296813049 888951065 279049201 2134144930 -170085046 1638993914 1862824022 -263105757 1324353179 589325034 -1917997036 1250792842 -1381273119 -1154850060 522505201 -1822456081 1519546840 -639024945 -43345643 -813132533 -828090513 1229549705
REM
CELL 1.54180   50.00000   50.00000   50.00000   90.00000   90.00000   90.00000
LATT -1
SFAC C  
C      1  0.4786330000000  0.4889530000000  0.4238690000000 1.0
C      1  0.4828590000000  0.5173690000000  0.4225400000000 1.0
C      1  0.5112240000000  0.5220930000000  0.4232010000000 1.0
C      1  0.5246050000000  0.4966060000000  0.4235240000000 1.0
C      1  0.5044510000000  0.4760790000000  0.4249310000000 1.0
C      1  0.4794940000000  0.4877560000000  0.5751030000000 1.0
C      1  0.4824700000000  0.5163350000000  0.5765080000000 1.0
C      1  0.5106510000000  0.5222090000000  0.5767630000000 1.0
C      1  0.5250570000000  0.4972810000000  0.5773230000000 1.0
C      1  0.5057860000000  0.4759580000000  0.5760480000000 1.0
C      1  0.4872590000000  0.4570710000000  0.5150850000000 1.0
C      1  0.4630780000000  0.5040040000000  0.5121120000000 1.0
C      1  0.4889600000000  0.5345000000000  0.5123600000000 1.0
C      1  0.5324170000000  0.5174390000000  0.5137090000000 1.0
C      1  0.5306940000000  0.4770230000000  0.5138860000000 1.0
C      1  0.4747350000000  0.4630370000000  0.4840270000000 1.0
C      1  0.4629990000000  0.5088220000000  0.4859340000000 1.0
C      1  0.4932280000000  0.5358300000000  0.4862570000000 1.0
C      1  0.5342280000000  0.5135190000000  0.4875960000000 1.0
C      1  0.5270170000000  0.4741870000000  0.4877050000000 1.0
C      1  0.4566410000000  0.4824660000000  0.4706330000000 1.0
C      1  0.4669960000000  0.5364260000000  0.4684000000000 1.0
C      1  0.5218330000000  0.5376080000000  0.4715820000000 1.0
C      1  0.5477900000000  0.4898080000000  0.4695020000000 1.0
C      1  0.5058090000000  0.4565400000000  0.4738520000000 1.0
C      1  0.4626200000000  0.4761130000000  0.5259470000000 1.0
C      1  0.4621030000000  0.5298190000000  0.5305220000000 1.0
C      1  0.5154100000000  0.5403810000000  0.5284530000000 1.0
C      1  0.5496110000000  0.4975010000000  0.5314660000000 1.0
C      1  0.5141580000000  0.4554320000000  0.5289100000000 1.0
C      1  0.4164050000000  0.4997430000000  0.5122780000000 1.0
C      1  0.4747220000000  0.5780160000000  0.5113050000000 1.0
C      1  0.5656170000000  0.5496190000000  0.5131400000000 1.0
C      1  0.5688300000000  0.4517200000000  0.5111240000000 1.0
C      1  0.4708340000000  0.4218820000000  0.5140940000000 1.0
C      1  0.4275240000000  0.4909890000000  0.4818940000000 1.0
C      1  0.4678000000000  0.5661010000000  0.4808600000000 1.0
C      1  0.5499590000000  0.5499210000000  0.4834170000000 1.0
C      1  0.5654710000000  0.4657830000000  0.4810880000000 1.0
C      1  0.4861780000000  0.4310400000000  0.4851650000000 1.0
C      1  0.4608530000000  0.4776830000000  0.5568580000000 1.0
C      1  0.4651710000000  0.5318310000000  0.5607870000000 1.0
C      1  0.5193740000000  0.5417840000000  0.5588050000000 1.0
C      1  0.5483700000000  0.4951350000000  0.5618600000000 1.0
C      1  0.5119780000000  0.4542800000000  0.5594930000000 1.0
C      1  0.4575870000000  0.4802660000000  0.4400570000000 1.0
C      1  0.4663300000000  0.5339800000000  0.4379830000000 1.0
C      1  0.5206230000000  0.5413180000000  0.4411930000000 1.0
C      1  0.5475820000000  0.4932860000000  0.4392320000000 1.0
C      1  0.5086210000000  0.4550370000000  0.4430280000000 1.0
C      1  0.4496120000000  0.4477950000000  0.5164120000000 1.0
C      1  0.4322880000000  0.5284710000000  0.5189090000000 1.0
C      1  0.5067980000000  0.5698910000000  0.5167600000000 1.0
C      1  0.5719440000000  0.5171990000000  0.5191180000000 1.0
C      1  0.5389220000000  0.4381230000000  0.5173650000000 1.0
C      1  0.4518620000000  0.4306780000000  0.4882710000000 1.0
C      1  0.4193020000000  0.5226960000000  0.4887350000000 1.0
C      1  0.4967140000000  0.5819710000000  0.4870790000000 1.0
C      1  0.5766940000000  0.5303890000000  0.4887750000000 1.0
C      1  0.5532190000000  0.4352110000000  0.4871710000000 1.0
END
