TITL C-26729-7230-118 8.88970695078213e-05 125000 -331.162129748877 0 0 60 (C1) n - 1
REM
REM in /home/nfs/bkarasulu/CARBON/AIRSS/Generating-Clusters/AIREBO/Higher-Symm/Only-C60
REM
REM
REM
REM
REM
REM ./C.cell (28575a23ae977d3b5fae324c64b13b57)
REM
REM compiler GCC version 9.2.1 20190827 (Red Hat 9.2.1-1)
REM options -cpp -mtune=generic -march=x86-64 -g -O0 -fpre-include=/usr/include/finclude/math-vector-fortran.h
REM seed -1589587477 1751571531 1967243824 -792826774 -2108943925 21939135 -2069015036 -561812817 2019766095 1140514664 2045704505 1850127223 -1011559176 161027812 -111473334 1286129268 1372490446 -1700461524 1605368659 -569565868 -732639147 -1670426886 -1411965507 -179618483 396521690 1387621257 1059781285 1843217475 614266421 1195353505 1045537008 -2091959643 121651613
REM
CELL 1.54180   50.00000   50.00000   50.00000   90.00000   90.00000   90.00000
LATT -1
SFAC C  
C      1  0.4562440000000  0.4699300000000  0.5181520000000 1.0
C      1  0.5167730000000  0.4589750000000  0.4746330000000 1.0
C      1  0.4705640000000  0.5153310000000  0.4554050000000 1.0
C      1  0.5451960000000  0.4721140000000  0.4858650000000 1.0
C      1  0.4572810000000  0.5306380000000  0.4815750000000 1.0
C      1  0.5398150000000  0.5281650000000  0.5157180000000 1.0
C      1  0.4840330000000  0.4573420000000  0.5278300000000 1.0
C      1  0.5142580000000  0.5447870000000  0.5285800000000 1.0
C      1  0.4847260000000  0.5422470000000  0.4684730000000 1.0
C      1  0.5246970000000  0.5163590000000  0.5421640000000 1.0
C      1  0.4725560000000  0.4837860000000  0.5439370000000 1.0
C      1  0.5300370000000  0.4844540000000  0.4593720000000 1.0
C      1  0.4548640000000  0.5300770000000  0.5144750000000 1.0
C      1  0.5175230000000  0.5442690000000  0.4694330000000 1.0
C      1  0.4698200000000  0.4827250000000  0.4593270000000 1.0
C      1  0.5437980000000  0.5293630000000  0.4831640000000 1.0
C      1  0.4546520000000  0.4707870000000  0.4856310000000 1.0
C      1  0.5427710000000  0.4725530000000  0.5183110000000 1.0
C      1  0.4816020000000  0.5438150000000  0.5284430000000 1.0
C      1  0.5165600000000  0.4556590000000  0.5279120000000 1.0
C      1  0.4833170000000  0.4564060000000  0.4744420000000 1.0
C      1  0.5265060000000  0.4831440000000  0.5447430000000 1.0
C      1  0.4698000000000  0.5163460000000  0.5407700000000 1.0
C      1  0.5297530000000  0.5168240000000  0.4556440000000 1.0
C      1  0.4799250000000  0.4247470000000  0.4824860000000 1.0
C      1  0.4764190000000  0.4862130000000  0.4288280000000 1.0
C      1  0.4228110000000  0.4774500000000  0.4832780000000 1.0
C      1  0.5212740000000  0.4247000000000  0.5184160000000 1.0
C      1  0.4877270000000  0.5736950000000  0.5215380000000 1.0
C      1  0.5198020000000  0.5763390000000  0.4748920000000 1.0
C      1  0.5184570000000  0.4786160000000  0.5758050000000 1.0
C      1  0.4778000000000  0.5127320000000  0.5708480000000 1.0
C      1  0.5235190000000  0.5172120000000  0.4234750000000 1.0
C      1  0.5709490000000  0.4848170000000  0.5134900000000 1.0
C      1  0.4229860000000  0.5244600000000  0.5164240000000 1.0
C      1  0.5759940000000  0.5237750000000  0.4805040000000 1.0
C      1  0.4899840000000  0.5726730000000  0.4741940000000 1.0
C      1  0.4752300000000  0.5157670000000  0.4231460000000 1.0
C      1  0.4267930000000  0.5250430000000  0.4866180000000 1.0
C      1  0.5176610000000  0.5767860000000  0.5232020000000 1.0
C      1  0.4893660000000  0.4285910000000  0.5171290000000 1.0
C      1  0.5115510000000  0.4298650000000  0.4839030000000 1.0
C      1  0.5140040000000  0.5103080000000  0.5710350000000 1.0
C      1  0.4825060000000  0.4809220000000  0.5744200000000 1.0
C      1  0.5237450000000  0.4877000000000  0.4290700000000 1.0
C      1  0.5692400000000  0.5186530000000  0.5119030000000 1.0
C      1  0.4263230000000  0.4768400000000  0.5130830000000 1.0
C      1  0.5773320000000  0.4779640000000  0.4822160000000 1.0
C      1  0.4991570000000  0.5271010000000  0.4130840000000 1.0
C      1  0.4984920000000  0.4634950000000  0.5956640000000 1.0
C      1  0.5914340000000  0.5038000000000  0.5329480000000 1.0
C      1  0.5300940000000  0.5858970000000  0.4994620000000 1.0
C      1  0.4971300000000  0.5304510000000  0.5891920000000 1.0
C      1  0.4153860000000  0.5028050000000  0.4732100000000 1.0
C      1  0.5853330000000  0.5006770000000  0.4689470000000 1.0
C      1  0.4151480000000  0.4991890000000  0.5264310000000 1.0
C      1  0.4770990000000  0.5831240000000  0.4970950000000 1.0
C      1  0.5341120000000  0.4093470000000  0.4935570000000 1.0
C      1  0.4675410000000  0.4077060000000  0.5065590000000 1.0
C      1  0.5005260000000  0.4744410000000  0.4199490000000 1.0
END
