TITL C-26733-8285-217 0.0233281499780238 125000 -324.540347687818 0 0 60 (C1) n - 1
REM
REM in /home/nfs/bkarasulu/CARBON/AIRSS/Generating-Clusters/AIREBO/Higher-Symm/Only-C60
REM
REM
REM
REM
REM
REM ./C.cell (28575a23ae977d3b5fae324c64b13b57)
REM
REM compiler GCC version 9.2.1 20190827 (Red Hat 9.2.1-1)
REM options -cpp -mtune=generic -march=x86-64 -g -O0 -fpre-include=/usr/include/finclude/math-vector-fortran.h
REM seed 1757910091 2044446959 -1488183628 -1763473937 -406090548 159293740 1635722629 1009078227 2106471986 -1515995918 -1730061394 1133292264 856257689 -1883943824 -839146735 1328964815 1844403588 1529916929 849357877 827926414 1750913604 -61288873 -1376076850 -943608389 -1827591997 -812644874 1656910384 959129659 -833198040 -616360253 1057153291 1024759569 330436370
REM
CELL 1.54180   50.00000   50.00000   50.00000   90.00000   90.00000   90.00000
LATT -1
SFAC C  
C      1  0.5190910000000  0.4444620000000  0.5045460000000 1.0
C      1  0.4593940000000  0.5098590000000  0.4987590000000 1.0
C      1  0.5033220000000  0.4573270000000  0.4594940000000 1.0
C      1  0.4733500000000  0.4831620000000  0.5613260000000 1.0
C      1  0.5033890000000  0.4994460000000  0.5392780000000 1.0
C      1  0.4646050000000  0.4365770000000  0.5035450000000 1.0
C      1  0.5306660000000  0.5417970000000  0.5172780000000 1.0
C      1  0.4512020000000  0.5001090000000  0.5534410000000 1.0
C      1  0.5241420000000  0.4691140000000  0.4824250000000 1.0
C      1  0.4534270000000  0.4826750000000  0.4848970000000 1.0
C      1  0.4772760000000  0.4642650000000  0.5406370000000 1.0
C      1  0.4926990000000  0.5466570000000  0.5686400000000 1.0
C      1  0.4477170000000  0.4980820000000  0.4484610000000 1.0
C      1  0.5930610000000  0.4713190000000  0.5054650000000 1.0
C      1  0.5093480000000  0.4180320000000  0.4903490000000 1.0
C      1  0.4341280000000  0.5226560000000  0.5257670000000 1.0
C      1  0.5909490000000  0.5297200000000  0.5076350000000 1.0
C      1  0.5113860000000  0.5474640000000  0.4346430000000 1.0
C      1  0.4448260000000  0.4906970000000  0.5227920000000 1.0
C      1  0.4963580000000  0.4904070000000  0.5771870000000 1.0
C      1  0.5143640000000  0.4729720000000  0.4094130000000 1.0
C      1  0.5739980000000  0.4583320000000  0.4906850000000 1.0
C      1  0.5514470000000  0.5172490000000  0.4480500000000 1.0
C      1  0.5586510000000  0.5007180000000  0.4676690000000 1.0
C      1  0.5392480000000  0.4412020000000  0.5267010000000 1.0
C      1  0.4904750000000  0.5216670000000  0.4980990000000 1.0
C      1  0.4801640000000  0.4649720000000  0.4804240000000 1.0
C      1  0.5343170000000  0.5508160000000  0.5441000000000 1.0
C      1  0.4622590000000  0.5492320000000  0.5797110000000 1.0
C      1  0.5583660000000  0.4778820000000  0.5449560000000 1.0
C      1  0.4523630000000  0.4588070000000  0.5212460000000 1.0
C      1  0.4555850000000  0.4660450000000  0.4565830000000 1.0
C      1  0.5087080000000  0.5485530000000  0.5016100000000 1.0
C      1  0.5196910000000  0.5386880000000  0.5656370000000 1.0
C      1  0.4887880000000  0.5192540000000  0.5286490000000 1.0
C      1  0.5927590000000  0.4987720000000  0.5052580000000 1.0
C      1  0.5529500000000  0.4701150000000  0.4701680000000 1.0
C      1  0.4553500000000  0.5526440000000  0.4860070000000 1.0
C      1  0.4802210000000  0.4876550000000  0.4475150000000 1.0
C      1  0.5390510000000  0.5123680000000  0.5117580000000 1.0
C      1  0.4849480000000  0.5482580000000  0.4407710000000 1.0
C      1  0.5018090000000  0.4720640000000  0.4316320000000 1.0
C      1  0.4963290000000  0.5728910000000  0.4961610000000 1.0
C      1  0.4904690000000  0.4566760000000  0.5102290000000 1.0
C      1  0.5644730000000  0.5121410000000  0.4949160000000 1.0
C      1  0.5149230000000  0.4988550000000  0.4918350000000 1.0
C      1  0.4044510000000  0.5482310000000  0.4945320000000 1.0
C      1  0.4920700000000  0.5078100000000  0.4670870000000 1.0
C      1  0.5428390000000  0.4984670000000  0.5401730000000 1.0
C      1  0.5334380000000  0.5317530000000  0.4341380000000 1.0
C      1  0.4295160000000  0.5363690000000  0.4980290000000 1.0
C      1  0.4966170000000  0.4268250000000  0.4627910000000 1.0
C      1  0.4419490000000  0.5184830000000  0.4714820000000 1.0
C      1  0.4764350000000  0.5371240000000  0.5449860000000 1.0
C      1  0.4458440000000  0.5325180000000  0.5548250000000 1.0
C      1  0.5223670000000  0.5080180000000  0.5641460000000 1.0
C      1  0.4689190000000  0.5745370000000  0.4938180000000 1.0
C      1  0.4765380000000  0.4168160000000  0.4871610000000 1.0
C      1  0.4715670000000  0.5339110000000  0.4650710000000 1.0
C      1  0.5554080000000  0.4564810000000  0.4454150000000 1.0
END
