TITL C-26726-4881-181 -0.00036834316610695 125000 -347.278992380939 0 0 60 (C1) n - 1
REM
REM in /home/nfs/bkarasulu/CARBON/AIRSS/Generating-Clusters/AIREBO/Higher-Symm/Only-C60
REM
REM
REM
REM
REM
REM ./C.cell (28575a23ae977d3b5fae324c64b13b57)
REM
REM compiler GCC version 9.2.1 20190827 (Red Hat 9.2.1-1)
REM options -cpp -mtune=generic -march=x86-64 -g -O0 -fpre-include=/usr/include/finclude/math-vector-fortran.h
REM seed 712384574 -611492873 -995760621 -1912198447 -183477104 -759650466 1527923486 -961570175 -1393960754 -1778079265 -776437347 -620058666 253078927 1961471311 585501880 -1528823139 101141010 -990786245 2060274045 -1508251006 -1889154147 -1986174737 -788279109 -1637784610 -743588494 -1097182420 -799210861 880998053 561017119 1396766606 -1428428681 -712544242 -1240597450
REM
CELL 1.54180   50.00000   50.00000   50.00000   90.00000   90.00000   90.00000
LATT -1
SFAC C  
C      1  0.4443980000000  0.5370460000000  0.5132300000000 1.0
C      1  0.5101000000000  0.5386110000000  0.5610570000000 1.0
C      1  0.5566750000000  0.5323820000000  0.4954420000000 1.0
C      1  0.4918280000000  0.5363270000000  0.4413830000000 1.0
C      1  0.4764560000000  0.4583820000000  0.4359150000000 1.0
C      1  0.4374590000000  0.4636840000000  0.5314230000000 1.0
C      1  0.5296380000000  0.4616740000000  0.5568780000000 1.0
C      1  0.5639540000000  0.4595300000000  0.4662300000000 1.0
C      1  0.5316790000000  0.4840000000000  0.5237710000000 1.0
C      1  0.5241860000000  0.4861050000000  0.4677200000000 1.0
C      1  0.4601710000000  0.4879890000000  0.4726280000000 1.0
C      1  0.4724290000000  0.4932370000000  0.5422030000000 1.0
C      1  0.4349360000000  0.4897720000000  0.4900590000000 1.0
C      1  0.4909340000000  0.4878090000000  0.5650170000000 1.0
C      1  0.5595750000000  0.4827490000000  0.5088450000000 1.0
C      1  0.5127630000000  0.4859780000000  0.4392890000000 1.0
C      1  0.5219500000000  0.5820700000000  0.5012120000000 1.0
C      1  0.4998160000000  0.5836500000000  0.4797250000000 1.0
C      1  0.4738180000000  0.5798390000000  0.4980540000000 1.0
C      1  0.4959360000000  0.5839540000000  0.5192470000000 1.0
C      1  0.5128580000000  0.5062080000000  0.5663230000000 1.0
C      1  0.5641640000000  0.5037080000000  0.4887520000000 1.0
C      1  0.4908060000000  0.5042260000000  0.4362640000000 1.0
C      1  0.4365210000000  0.5093610000000  0.5119870000000 1.0
C      1  0.5179650000000  0.4599850000000  0.4885870000000 1.0
C      1  0.5017950000000  0.4446300000000  0.4679500000000 1.0
C      1  0.4762110000000  0.4739740000000  0.5159870000000 1.0
C      1  0.5055850000000  0.4627130000000  0.5186770000000 1.0
C      1  0.4615890000000  0.5281240000000  0.4494170000000 1.0
C      1  0.4553060000000  0.5453650000000  0.5374350000000 1.0
C      1  0.5392520000000  0.5308720000000  0.5493190000000 1.0
C      1  0.5404890000000  0.5451250000000  0.4695600000000 1.0
C      1  0.4597590000000  0.5274540000000  0.4769170000000 1.0
C      1  0.4852900000000  0.5392630000000  0.5390800000000 1.0
C      1  0.5370600000000  0.5283110000000  0.5212510000000 1.0
C      1  0.5137910000000  0.5357660000000  0.4664970000000 1.0
C      1  0.4425840000000  0.4922090000000  0.5356110000000 1.0
C      1  0.5350670000000  0.4915840000000  0.5554060000000 1.0
C      1  0.5544410000000  0.4876200000000  0.4665510000000 1.0
C      1  0.4686680000000  0.4870470000000  0.4427920000000 1.0
C      1  0.5208780000000  0.4383490000000  0.4452250000000 1.0
C      1  0.4601200000000  0.4581990000000  0.4989840000000 1.0
C      1  0.4871550000000  0.4457840000000  0.5417410000000 1.0
C      1  0.5408310000000  0.4474910000000  0.5078540000000 1.0
C      1  0.4711570000000  0.4557210000000  0.4690180000000 1.0
C      1  0.4586730000000  0.4460090000000  0.5400320000000 1.0
C      1  0.5389550000000  0.4455660000000  0.5356610000000 1.0
C      1  0.5490370000000  0.4411190000000  0.4499640000000 1.0
C      1  0.5146920000000  0.5087050000000  0.5116060000000 1.0
C      1  0.5105490000000  0.5095310000000  0.4805940000000 1.0
C      1  0.4802580000000  0.5074530000000  0.4913380000000 1.0
C      1  0.4859040000000  0.5134110000000  0.5233980000000 1.0
C      1  0.4867770000000  0.5557730000000  0.4689310000000 1.0
C      1  0.4579970000000  0.5548660000000  0.4899630000000 1.0
C      1  0.5108690000000  0.5588920000000  0.5335620000000 1.0
C      1  0.5362900000000  0.5572470000000  0.5072010000000 1.0
C      1  0.5052380000000  0.4594000000000  0.4309490000000 1.0
C      1  0.4291250000000  0.4617280000000  0.5018090000000 1.0
C      1  0.5011140000000  0.4606720000000  0.5627860000000 1.0
C      1  0.5664790000000  0.4557520000000  0.4956910000000 1.0
END
