TITL C-26740-8352-1 -162.842797121681 125000 -352.624465004266 0 0 60 (D2) n - 1
REM
REM in /home/nfs/bkarasulu/CARBON/AIRSS/Generating-Clusters/AIREBO/Higher-Symm/Only-C60
REM
REM
REM
REM
REM
REM ./C.cell (28575a23ae977d3b5fae324c64b13b57)
REM
REM compiler GCC version 9.2.1 20190827 (Red Hat 9.2.1-1)
REM options -cpp -mtune=generic -march=x86-64 -g -O0 -fpre-include=/usr/include/finclude/math-vector-fortran.h
REM seed -474980023 -1375259122 -1512168511 -1619706968 -1542916083 1268034637 1443922371 -54441631 883664198 -127658205 -1618637707 -922532322 1217191 -1463191827 85552233 -923994881 -572253450 -1099165398 -473702349 966173655 454927664 -1343043860 -1286090212 -1820135935 842503909 610920382 1219499513 24209209 1426055378 -1069912009 145896409 -611623023 -1555400465
REM
CELL 1.54180   50.00000   50.00000   50.00000   90.00000   90.00000   90.00000
LATT -1
SFAC C  
C      1  0.5294120000000  0.5570970000000  0.4760700000000 1.0
C      1  0.5305910000000  0.5263680000000  0.5585910000000 1.0
C      1  0.5294230000000  0.4429140000000  0.5239560000000 1.0
C      1  0.5306540000000  0.4736470000000  0.4414360000000 1.0
C      1  0.4709550000000  0.4413850000000  0.4736960000000 1.0
C      1  0.4721180000000  0.4761190000000  0.5571060000000 1.0
C      1  0.4709040000000  0.5586020000000  0.5262780000000 1.0
C      1  0.4721520000000  0.5238690000000  0.4428660000000 1.0
C      1  0.5591040000000  0.5288840000000  0.4459570000000 1.0
C      1  0.5588460000000  0.5617530000000  0.5340900000000 1.0
C      1  0.5590730000000  0.4711440000000  0.5540950000000 1.0
C      1  0.5589060000000  0.4382780000000  0.4659620000000 1.0
C      1  0.4427110000000  0.4658500000000  0.4382800000000 1.0
C      1  0.4424660000000  0.4459520000000  0.5289090000000 1.0
C      1  0.4426420000000  0.5341240000000  0.5616730000000 1.0
C      1  0.4424630000000  0.5540210000000  0.4710410000000 1.0
C      1  0.5256390000000  0.5067330000000  0.4812260000000 1.0
C      1  0.5327170000000  0.5231080000000  0.5101860000000 1.0
C      1  0.5256320000000  0.4932770000000  0.5187890000000 1.0
C      1  0.5327370000000  0.4769100000000  0.4898440000000 1.0
C      1  0.4688380000000  0.4897950000000  0.4769010000000 1.0
C      1  0.4759220000000  0.4812170000000  0.5067380000000 1.0
C      1  0.4688130000000  0.5101920000000  0.5230750000000 1.0
C      1  0.4759120000000  0.5187640000000  0.4932380000000 1.0
C      1  0.5147640000000  0.5519050000000  0.5506210000000 1.0
C      1  0.5148800000000  0.4517040000000  0.5494310000000 1.0
C      1  0.5148330000000  0.4481030000000  0.4493930000000 1.0
C      1  0.5148970000000  0.5483020000000  0.4505810000000 1.0
C      1  0.4866560000000  0.4506290000000  0.5483510000000 1.0
C      1  0.4867190000000  0.5506730000000  0.5518350000000 1.0
C      1  0.4866720000000  0.5493640000000  0.4516360000000 1.0
C      1  0.4867880000000  0.4493220000000  0.4481530000000 1.0
C      1  0.5445860000000  0.5314990000000  0.4730860000000 1.0
C      1  0.5476220000000  0.5330820000000  0.5346080000000 1.0
C      1  0.5445820000000  0.4685200000000  0.5269520000000 1.0
C      1  0.5476680000000  0.4669430000000  0.4654350000000 1.0
C      1  0.4539300000000  0.4653640000000  0.4669520000000 1.0
C      1  0.4569640000000  0.4730940000000  0.5315010000000 1.0
C      1  0.4538850000000  0.5346160000000  0.5330100000000 1.0
C      1  0.4569740000000  0.5268850000000  0.4684590000000 1.0
C      1  0.4726220000000  0.5303030000000  0.5679190000000 1.0
C      1  0.4717690000000  0.4364260000000  0.5264230000000 1.0
C      1  0.4726930000000  0.4696840000000  0.4320570000000 1.0
C      1  0.4717600000000  0.5635590000000  0.4735520000000 1.0
C      1  0.5297670000000  0.4736470000000  0.5636100000000 1.0
C      1  0.5288640000000  0.5679740000000  0.5302420000000 1.0
C      1  0.5298080000000  0.5263670000000  0.4364140000000 1.0
C      1  0.5289250000000  0.4320400000000  0.4697830000000 1.0
C      1  0.4816240000000  0.4413280000000  0.5000660000000 1.0
C      1  0.4806140000000  0.4961590000000  0.4361850000000 1.0
C      1  0.4815940000000  0.5586600000000  0.4999180000000 1.0
C      1  0.4805590000000  0.5038330000000  0.5637940000000 1.0
C      1  0.5209480000000  0.5638120000000  0.5037710000000 1.0
C      1  0.5199680000000  0.5000090000000  0.4413410000000 1.0
C      1  0.5209840000000  0.4361940000000  0.4962480000000 1.0
C      1  0.5199190000000  0.5000000000000  0.5586730000000 1.0
C      1  0.5036420000000  0.4644230000000  0.5022440000000 1.0
C      1  0.4979330000000  0.5022000000000  0.4644180000000 1.0
C      1  0.4979060000000  0.4978000000000  0.5355750000000 1.0
C      1  0.5036240000000  0.5355740000000  0.4977600000000 1.0
END
