TITL C-26730-8313-101 -0.000243918052946457 125000 -329.867516609669 0 0 60 (C1) n - 1
REM
REM in /home/nfs/bkarasulu/CARBON/AIRSS/Generating-Clusters/AIREBO/Higher-Symm/Only-C60
REM
REM
REM
REM
REM
REM ./C.cell (28575a23ae977d3b5fae324c64b13b57)
REM
REM compiler GCC version 9.2.1 20190827 (Red Hat 9.2.1-1)
REM options -cpp -mtune=generic -march=x86-64 -g -O0 -fpre-include=/usr/include/finclude/math-vector-fortran.h
REM seed 1237793035 -368984889 -444010217 2113614643 2103537467 -488644251 -1032527485 -1194485682 -958306812 2063144832 1019107822 -1096244235 -605325220 -1896850836 963523406 971711583 -829325120 -620781191 1380823129 -1185067102 -1873836790 771690324 -1052285714 120878765 1616293443 702265663 -1465976540 721991329 -425573435 -623942869 1251334246 1844288722 78437465
REM
CELL 1.54180   50.00000   50.00000   50.00000   90.00000   90.00000   90.00000
LATT -1
SFAC C  
C      1  0.5295290000000  0.5060770000000  0.5529430000000 1.0
C      1  0.4528900000000  0.4961040000000  0.4508210000000 1.0
C      1  0.5233790000000  0.5095990000000  0.4425130000000 1.0
C      1  0.4806870000000  0.5085060000000  0.5536450000000 1.0
C      1  0.4783250000000  0.5062000000000  0.5240690000000 1.0
C      1  0.5287690000000  0.5083840000000  0.4719680000000 1.0
C      1  0.4663130000000  0.5042400000000  0.4759550000000 1.0
C      1  0.5345280000000  0.5041060000000  0.5231970000000 1.0
C      1  0.5562020000000  0.4705760000000  0.5772640000000 1.0
C      1  0.4427730000000  0.4650510000000  0.4540920000000 1.0
C      1  0.5803250000000  0.4549030000000  0.4929770000000 1.0
C      1  0.4206230000000  0.4572380000000  0.5155690000000 1.0
C      1  0.5239380000000  0.4823540000000  0.4267990000000 1.0
C      1  0.4732320000000  0.4799320000000  0.5670300000000 1.0
C      1  0.5300920000000  0.4796330000000  0.5708830000000 1.0
C      1  0.4696010000000  0.4722090000000  0.4333330000000 1.0
C      1  0.4844450000000  0.4583570000000  0.5538260000000 1.0
C      1  0.5186960000000  0.4601860000000  0.4437560000000 1.0
C      1  0.4914110000000  0.4568380000000  0.4500630000000 1.0
C      1  0.5134860000000  0.4570800000000  0.5568380000000 1.0
C      1  0.5817840000000  0.5249470000000  0.5166350000000 1.0
C      1  0.4231450000000  0.5296670000000  0.4848540000000 1.0
C      1  0.5727860000000  0.5311110000000  0.4670950000000 1.0
C      1  0.4356500000000  0.5328010000000  0.5333820000000 1.0
C      1  0.5163530000000  0.5106580000000  0.4110150000000 1.0
C      1  0.4702420000000  0.5036090000000  0.5874300000000 1.0
C      1  0.5169780000000  0.4947880000000  0.5958400000000 1.0
C      1  0.4700830000000  0.5051820000000  0.4243460000000 1.0
C      1  0.4542580000000  0.5302060000000  0.4881330000000 1.0
C      1  0.5521140000000  0.5292380000000  0.5147600000000 1.0
C      1  0.4613820000000  0.5318500000000  0.5154490000000 1.0
C      1  0.5445950000000  0.5351790000000  0.4856700000000 1.0
C      1  0.5397540000000  0.4546210000000  0.4624410000000 1.0
C      1  0.4686950000000  0.4508790000000  0.5303150000000 1.0
C      1  0.5309870000000  0.4435350000000  0.5384050000000 1.0
C      1  0.4798520000000  0.4458550000000  0.4733640000000 1.0
C      1  0.4472950000000  0.4632280000000  0.5076100000000 1.0
C      1  0.5538220000000  0.4639780000000  0.4903490000000 1.0
C      1  0.4530130000000  0.4527570000000  0.4780210000000 1.0
C      1  0.5351110000000  0.4551970000000  0.5131220000000 1.0
C      1  0.4907380000000  0.5238230000000  0.4219380000000 1.0
C      1  0.4983360000000  0.5137490000000  0.5890310000000 1.0
C      1  0.5070440000000  0.5552360000000  0.5479970000000 1.0
C      1  0.4989750000000  0.5743770000000  0.4333230000000 1.0
C      1  0.5501450000000  0.4952490000000  0.4938960000000 1.0
C      1  0.4524020000000  0.4942180000000  0.5054750000000 1.0
C      1  0.4949600000000  0.5436920000000  0.4412200000000 1.0
C      1  0.5067150000000  0.5271000000000  0.5609400000000 1.0
C      1  0.5005870000000  0.5671430000000  0.4657760000000 1.0
C      1  0.5024850000000  0.5700190000000  0.5255640000000 1.0
C      1  0.4969610000000  0.4962780000000  0.4727730000000 1.0
C      1  0.5062960000000  0.4945450000000  0.5113660000000 1.0
C      1  0.4268430000000  0.5125160000000  0.5109790000000 1.0
C      1  0.5765400000000  0.5113700000000  0.4890500000000 1.0
C      1  0.5058360000000  0.5709250000000  0.4992300000000 1.0
C      1  0.5101000000000  0.4648230000000  0.5042150000000 1.0
C      1  0.5044350000000  0.4177540000000  0.5018540000000 1.0
C      1  0.4977700000000  0.5218080000000  0.4931890000000 1.0
C      1  0.4947940000000  0.4425890000000  0.4966390000000 1.0
C      1  0.5151590000000  0.5438030000000  0.4845470000000 1.0
END
