TITL C-26738-6379-199 0.000735361719372951 125000 -354.386388810737 0 0 60 (C1) n - 1
REM
REM in /home/nfs/bkarasulu/CARBON/AIRSS/Generating-Clusters/AIREBO/Higher-Symm/Only-C60
REM
REM
REM
REM
REM
REM ./C.cell (28575a23ae977d3b5fae324c64b13b57)
REM
REM compiler GCC version 9.2.1 20190827 (Red Hat 9.2.1-1)
REM options -cpp -mtune=generic -march=x86-64 -g -O0 -fpre-include=/usr/include/finclude/math-vector-fortran.h
REM seed -742892309 -1156462971 3425249 -912299790 1527996568 1240343307 339328128 937791662 2105267955 716074215 834745408 881189145 -1024997835 1874834645 -309510837 250385172 -260299861 1419879333 -265834880 402528784 188193536 1162580848 -1065684898 -335041619 -1075229321 1788055085 -1677827833 -1232404377 618711882 -1607907777 907377995 2028705824 -940753161
REM
CELL 1.54180   50.00000   50.00000   50.00000   90.00000   90.00000   90.00000
LATT -1
SFAC C  
C      1  0.5262960000000  0.5114460000000  0.5656760000000 1.0
C      1  0.5260520000000  0.4833090000000  0.5637450000000 1.0
C      1  0.4728280000000  0.5107340000000  0.5651940000000 1.0
C      1  0.4741900000000  0.4819320000000  0.5623730000000 1.0
C      1  0.5350070000000  0.5191900000000  0.4611970000000 1.0
C      1  0.5365600000000  0.4871900000000  0.4569720000000 1.0
C      1  0.4982370000000  0.5221910000000  0.5652120000000 1.0
C      1  0.5006240000000  0.4726410000000  0.5557440000000 1.0
C      1  0.4375870000000  0.4711140000000  0.4705870000000 1.0
C      1  0.4384510000000  0.5268400000000  0.4758120000000 1.0
C      1  0.5541160000000  0.5168060000000  0.5240370000000 1.0
C      1  0.5474570000000  0.4863470000000  0.5194380000000 1.0
C      1  0.4417440000000  0.5554640000000  0.4908380000000 1.0
C      1  0.4410990000000  0.4457440000000  0.4896670000000 1.0
C      1  0.5563020000000  0.5363800000000  0.5023380000000 1.0
C      1  0.5553550000000  0.4616560000000  0.4991740000000 1.0
C      1  0.5758530000000  0.5309810000000  0.4824220000000 1.0
C      1  0.5749920000000  0.4661270000000  0.4798880000000 1.0
C      1  0.5238150000000  0.4398300000000  0.5240630000000 1.0
C      1  0.5140180000000  0.5572160000000  0.5168160000000 1.0
C      1  0.4812630000000  0.4419980000000  0.4531940000000 1.0
C      1  0.4781840000000  0.5578390000000  0.4477520000000 1.0
C      1  0.5097170000000  0.5138340000000  0.4400490000000 1.0
C      1  0.5065770000000  0.4833430000000  0.4368470000000 1.0
C      1  0.5072050000000  0.5314860000000  0.5368230000000 1.0
C      1  0.5033700000000  0.4629160000000  0.5268430000000 1.0
C      1  0.4565720000000  0.5216110000000  0.5441070000000 1.0
C      1  0.4532720000000  0.4745880000000  0.5439600000000 1.0
C      1  0.5352410000000  0.4415960000000  0.4983910000000 1.0
C      1  0.5335510000000  0.5521480000000  0.4941470000000 1.0
C      1  0.4766220000000  0.4590100000000  0.5155550000000 1.0
C      1  0.4837320000000  0.5498190000000  0.5107830000000 1.0
C      1  0.5121070000000  0.5589600000000  0.4689070000000 1.0
C      1  0.5146020000000  0.4430620000000  0.4751870000000 1.0
C      1  0.4334880000000  0.4751710000000  0.5030570000000 1.0
C      1  0.4270540000000  0.5309840000000  0.5069080000000 1.0
C      1  0.4575290000000  0.5131780000000  0.4606230000000 1.0
C      1  0.4582250000000  0.4856990000000  0.4587180000000 1.0
C      1  0.4739450000000  0.5195850000000  0.5180970000000 1.0
C      1  0.4623950000000  0.4883170000000  0.5142110000000 1.0
C      1  0.5317150000000  0.5544780000000  0.5447040000000 1.0
C      1  0.5435140000000  0.4436590000000  0.5445930000000 1.0
C      1  0.5046240000000  0.5150940000000  0.5068500000000 1.0
C      1  0.5162800000000  0.4859990000000  0.5067880000000 1.0
C      1  0.5655570000000  0.5139810000000  0.4627040000000 1.0
C      1  0.5682910000000  0.4844530000000  0.4601620000000 1.0
C      1  0.4265730000000  0.4883580000000  0.5315770000000 1.0
C      1  0.4306740000000  0.5169380000000  0.5315750000000 1.0
C      1  0.4855860000000  0.4296470000000  0.4790500000000 1.0
C      1  0.4832130000000  0.5739610000000  0.4714380000000 1.0
C      1  0.4674840000000  0.4393340000000  0.4982170000000 1.0
C      1  0.4682930000000  0.5650340000000  0.4937500000000 1.0
C      1  0.4838130000000  0.4717100000000  0.4549470000000 1.0
C      1  0.4828030000000  0.5278310000000  0.4543830000000 1.0
C      1  0.5136990000000  0.4757960000000  0.4762730000000 1.0
C      1  0.5076140000000  0.5264830000000  0.4779200000000 1.0
C      1  0.5448240000000  0.5272070000000  0.5491990000000 1.0
C      1  0.5468470000000  0.4719270000000  0.5480090000000 1.0
C      1  0.5181590000000  0.4542060000000  0.4432940000000 1.0
C      1  0.5151990000000  0.5456210000000  0.4392140000000 1.0
END
