TITL C-26727-7196-95 -0.000204149709492839 125000 -309.267089880663 0 0 60 (C1) n - 1
REM
REM in /home/nfs/bkarasulu/CARBON/AIRSS/Generating-Clusters/AIREBO/Higher-Symm/Only-C60
REM
REM
REM
REM
REM
REM ./C.cell (28575a23ae977d3b5fae324c64b13b57)
REM
REM compiler GCC version 9.2.1 20190827 (Red Hat 9.2.1-1)
REM options -cpp -mtune=generic -march=x86-64 -g -O0 -fpre-include=/usr/include/finclude/math-vector-fortran.h
REM seed 722450160 984798534 -1505990253 -1991455510 -1913114103 -2095412742 -101885403 1010235908 -1576370004 1320059108 1597061709 -1608121387 1726867270 827425431 -867183754 -127094630 197359493 1797540704 2109413901 1729033654 344105593 1343791061 1111273440 416276758 1802344050 -2056487065 1338239735 -334727776 -18827962 -46519463 -135414498 -2001272230 -1693627338
REM
CELL 1.54180   50.00000   50.00000   50.00000   90.00000   90.00000   90.00000
LATT -1
SFAC C  
C      1  0.4774970000000  0.5021530000000  0.5791310000000 1.0
C      1  0.5007260000000  0.5780510000000  0.4782100000000 1.0
C      1  0.5718640000000  0.4771860000000  0.4934760000000 1.0
C      1  0.5169350000000  0.4975810000000  0.5786770000000 1.0
C      1  0.4837250000000  0.4963460000000  0.4242470000000 1.0
C      1  0.5230000000000  0.4983310000000  0.4283870000000 1.0
C      1  0.4961930000000  0.4174510000000  0.4719720000000 1.0
C      1  0.4996320000000  0.4286630000000  0.5203240000000 1.0
C      1  0.4933490000000  0.5808080000000  0.5170240000000 1.0
C      1  0.4309860000000  0.5233430000000  0.4958350000000 1.0
C      1  0.5804100000000  0.5159940000000  0.4971500000000 1.0
C      1  0.4165590000000  0.4760160000000  0.5025340000000 1.0
C      1  0.4951660000000  0.4746370000000  0.5825320000000 1.0
C      1  0.5771730000000  0.4965850000000  0.4707400000000 1.0
C      1  0.4721270000000  0.5809190000000  0.4929170000000 1.0
C      1  0.4995330000000  0.5245550000000  0.5776770000000 1.0
C      1  0.5052130000000  0.4716580000000  0.4220260000000 1.0
C      1  0.5024060000000  0.5221130000000  0.4192930000000 1.0
C      1  0.4254540000000  0.4981400000000  0.4804800000000 1.0
C      1  0.4195030000000  0.5032660000000  0.5193110000000 1.0
C      1  0.5729210000000  0.4943120000000  0.5192130000000 1.0
C      1  0.5171880000000  0.4233460000000  0.4954410000000 1.0
C      1  0.5217930000000  0.5812580000000  0.5009320000000 1.0
C      1  0.4776250000000  0.4264020000000  0.4967410000000 1.0
C      1  0.5424950000000  0.5008420000000  0.5319050000000 1.0
C      1  0.5026340000000  0.5371560000000  0.5462470000000 1.0
C      1  0.5372320000000  0.5516260000000  0.5075160000000 1.0
C      1  0.4533950000000  0.5005270000000  0.5196060000000 1.0
C      1  0.5495660000000  0.5136850000000  0.4722840000000 1.0
C      1  0.4500170000000  0.4850850000000  0.4665410000000 1.0
C      1  0.4947110000000  0.4831420000000  0.5488780000000 1.0
C      1  0.5013250000000  0.4786730000000  0.4553500000000 1.0
C      1  0.4994170000000  0.5185620000000  0.4534060000000 1.0
C      1  0.4820800000000  0.4596050000000  0.5025590000000 1.0
C      1  0.5312740000000  0.4477870000000  0.4834230000000 1.0
C      1  0.4825990000000  0.5480350000000  0.4967920000000 1.0
C      1  0.5067830000000  0.5501700000000  0.5203090000000 1.0
C      1  0.5170040000000  0.5076630000000  0.5462060000000 1.0
C      1  0.5479830000000  0.5219310000000  0.5054980000000 1.0
C      1  0.4995340000000  0.4596340000000  0.5317590000000 1.0
C      1  0.4983840000000  0.5461380000000  0.4666830000000 1.0
C      1  0.4987780000000  0.4515650000000  0.4740420000000 1.0
C      1  0.4652630000000  0.4966830000000  0.5478670000000 1.0
C      1  0.4729930000000  0.4974990000000  0.4552800000000 1.0
C      1  0.5264190000000  0.5002540000000  0.4614470000000 1.0
C      1  0.4513150000000  0.4737320000000  0.4985700000000 1.0
C      1  0.4590270000000  0.5324870000000  0.5079740000000 1.0
C      1  0.5550580000000  0.4547590000000  0.4960740000000 1.0
C      1  0.4512370000000  0.5455320000000  0.5352840000000 1.0
C      1  0.4520640000000  0.5243150000000  0.5586170000000 1.0
C      1  0.5530470000000  0.5402560000000  0.4584790000000 1.0
C      1  0.5278440000000  0.4489580000000  0.5396320000000 1.0
C      1  0.4742970000000  0.5470990000000  0.5570810000000 1.0
C      1  0.5271220000000  0.5585590000000  0.4561720000000 1.0
C      1  0.5548420000000  0.4468330000000  0.5234760000000 1.0
C      1  0.5491910000000  0.5633170000000  0.4792690000000 1.0
C      1  0.5504710000000  0.4717160000000  0.5430270000000 1.0
C      1  0.4418990000000  0.4579260000000  0.4497700000000 1.0
C      1  0.4696040000000  0.4437000000000  0.4584450000000 1.0
C      1  0.4461190000000  0.4454300000000  0.4802620000000 1.0
END
