TITL C-26741-8371-18 0.00407017715589745 125000 -344.508306014098 0 0 60 (C1) n - 1
REM
REM in /home/nfs/bkarasulu/CARBON/AIRSS/Generating-Clusters/AIREBO/Higher-Symm/Only-C60
REM
REM
REM
REM
REM
REM ./C.cell (28575a23ae977d3b5fae324c64b13b57)
REM
REM compiler GCC version 9.2.1 20190827 (Red Hat 9.2.1-1)
REM options -cpp -mtune=generic -march=x86-64 -g -O0 -fpre-include=/usr/include/finclude/math-vector-fortran.h
REM seed -1685293398 -705701339 -13013322 -1436057333 1270644550 1205521356 -1105470511 35242359 1531679487 -2100424769 -103721221 754227234 814231501 -603377010 -240140706 1102277832 -446746020 1304311837 1373128946 -1291447549 1516313647 488465251 665150129 -278681933 346037056 156844398 -378246287 1957805283 499691271 -34704167 843997568 -871396857 -442334138
REM
CELL 1.54180   50.00000   50.00000   50.00000   90.00000   90.00000   90.00000
LATT -1
SFAC C  
C      1  0.4866230000000  0.5370970000000  0.5579250000000 1.0
C      1  0.5397500000000  0.5641720000000  0.4854020000000 1.0
C      1  0.5612850000000  0.4820500000000  0.5391430000000 1.0
C      1  0.4821880000000  0.4654120000000  0.4430060000000 1.0
C      1  0.5172560000000  0.5398470000000  0.4411580000000 1.0
C      1  0.5140870000000  0.4605790000000  0.5558060000000 1.0
C      1  0.5364300000000  0.4405270000000  0.5148260000000 1.0
C      1  0.4668420000000  0.5596790000000  0.5136040000000 1.0
C      1  0.4602770000000  0.4371870000000  0.4851680000000 1.0
C      1  0.5571590000000  0.5154280000000  0.4594510000000 1.0
C      1  0.4385460000000  0.4843070000000  0.4595600000000 1.0
C      1  0.4433890000000  0.5150500000000  0.5371290000000 1.0
C      1  0.5177410000000  0.5429520000000  0.5572990000000 1.0
C      1  0.4597320000000  0.5621900000000  0.4829750000000 1.0
C      1  0.4405750000000  0.4835030000000  0.5318940000000 1.0
C      1  0.5127420000000  0.4630620000000  0.4451810000000 1.0
C      1  0.4875980000000  0.5386640000000  0.4468630000000 1.0
C      1  0.4843940000000  0.4647250000000  0.5582360000000 1.0
C      1  0.4598580000000  0.4326830000000  0.5189950000000 1.0
C      1  0.5363370000000  0.5730050000000  0.5113500000000 1.0
C      1  0.5402400000000  0.4443830000000  0.4848220000000 1.0
C      1  0.4281530000000  0.5089900000000  0.4664810000000 1.0
C      1  0.5594240000000  0.4858060000000  0.4635870000000 1.0
C      1  0.5584130000000  0.5118760000000  0.5395790000000 1.0
C      1  0.4632180000000  0.4861140000000  0.4450290000000 1.0
C      1  0.4868740000000  0.4450960000000  0.4698140000000 1.0
C      1  0.4369310000000  0.4621370000000  0.4800230000000 1.0
C      1  0.4665140000000  0.5184940000000  0.5584430000000 1.0
C      1  0.5330170000000  0.4866930000000  0.5573900000000 1.0
C      1  0.5355010000000  0.5198410000000  0.4391960000000 1.0
C      1  0.4916090000000  0.5517330000000  0.5285270000000 1.0
C      1  0.5187660000000  0.4393360000000  0.5351930000000 1.0
C      1  0.5141270000000  0.5563850000000  0.4707030000000 1.0
C      1  0.4476960000000  0.5323190000000  0.5135170000000 1.0
C      1  0.5539560000000  0.4692320000000  0.5128030000000 1.0
C      1  0.5574830000000  0.5355330000000  0.4827400000000 1.0
C      1  0.5282500000000  0.4892120000000  0.4508780000000 1.0
C      1  0.5203370000000  0.4410690000000  0.4652050000000 1.0
C      1  0.5626900000000  0.4651510000000  0.4809700000000 1.0
C      1  0.5345730000000  0.5206600000000  0.5563990000000 1.0
C      1  0.4709180000000  0.4883370000000  0.5466530000000 1.0
C      1  0.4753610000000  0.5137310000000  0.4503130000000 1.0
C      1  0.5221070000000  0.5641240000000  0.5338630000000 1.0
C      1  0.4849790000000  0.4421210000000  0.5326070000000 1.0
C      1  0.4811420000000  0.5627500000000  0.4651080000000 1.0
C      1  0.5609680000000  0.5247690000000  0.5148950000000 1.0
C      1  0.4353480000000  0.4558840000000  0.5147090000000 1.0
C      1  0.4428020000000  0.5327160000000  0.4800210000000 1.0
C      1  0.4972280000000  0.4697870000000  0.5208160000000 1.0
C      1  0.5247040000000  0.4800660000000  0.5061530000000 1.0
C      1  0.4740010000000  0.5264920000000  0.4927770000000 1.0
C      1  0.5043040000000  0.5278530000000  0.4833720000000 1.0
C      1  0.5093650000000  0.5247910000000  0.5228540000000 1.0
C      1  0.5314280000000  0.5290290000000  0.5021270000000 1.0
C      1  0.5128770000000  0.4965350000000  0.5330130000000 1.0
C      1  0.4972740000000  0.4725280000000  0.4806470000000 1.0
C      1  0.4629730000000  0.4674880000000  0.5003560000000 1.0
C      1  0.5184310000000  0.4985080000000  0.4801360000000 1.0
C      1  0.4785010000000  0.4977770000000  0.4799570000000 1.0
C      1  0.4747110000000  0.4925330000000  0.5133540000000 1.0
END
