TITL C-26739-6686-189 0.000974685264877192 125000 -331.77638845454 0 0 60 (C1) n - 1
REM
REM in /home/nfs/bkarasulu/CARBON/AIRSS/Generating-Clusters/AIREBO/Higher-Symm/Only-C60
REM
REM
REM
REM
REM
REM ./C.cell (28575a23ae977d3b5fae324c64b13b57)
REM
REM compiler GCC version 9.2.1 20190827 (Red Hat 9.2.1-1)
REM options -cpp -mtune=generic -march=x86-64 -g -O0 -fpre-include=/usr/include/finclude/math-vector-fortran.h
REM seed 1247049702 1092448758 835394080 -1124563118 -790568753 563529632 -603248487 -1937615592 599275808 889807237 1753101831 883300845 1887972621 1581941014 554015237 1895591000 -1608088472 -768559946 184063304 1350873680 927196403 -880224719 662182198 1728142691 269275135 2032887212 -960742153 -1198147951 -1364323086 -826697147 2139408114 -1083848370 -69464808
REM
CELL 1.54180   50.00000   50.00000   50.00000   90.00000   90.00000   90.00000
LATT -1
SFAC C  
C      1  0.4956820000000  0.5391080000000  0.5625550000000 1.0
C      1  0.4678550000000  0.5243770000000  0.5593620000000 1.0
C      1  0.4710070000000  0.4914780000000  0.5567470000000 1.0
C      1  0.4905110000000  0.4668270000000  0.5468750000000 1.0
C      1  0.5195680000000  0.4656170000000  0.5555150000000 1.0
C      1  0.5330930000000  0.4937660000000  0.5567160000000 1.0
C      1  0.5271930000000  0.5274730000000  0.5572380000000 1.0
C      1  0.4989060000000  0.4693710000000  0.5140870000000 1.0
C      1  0.5202130000000  0.4753860000000  0.4913810000000 1.0
C      1  0.5378090000000  0.4993640000000  0.4960790000000 1.0
C      1  0.5226830000000  0.5287770000000  0.5014990000000 1.0
C      1  0.4937380000000  0.5465880000000  0.5024790000000 1.0
C      1  0.4744580000000  0.5106740000000  0.4921590000000 1.0
C      1  0.4751370000000  0.4811440000000  0.5006780000000 1.0
C      1  0.5327500000000  0.4457800000000  0.5421640000000 1.0
C      1  0.5615070000000  0.4911240000000  0.5440600000000 1.0
C      1  0.5460730000000  0.5445820000000  0.5454530000000 1.0
C      1  0.4948850000000  0.5672640000000  0.5482550000000 1.0
C      1  0.4507560000000  0.5343940000000  0.5402000000000 1.0
C      1  0.4438060000000  0.4841110000000  0.5410400000000 1.0
C      1  0.4740340000000  0.4410670000000  0.5384530000000 1.0
C      1  0.4620240000000  0.5678500000000  0.4713940000000 1.0
C      1  0.4326330000000  0.5050050000000  0.4725240000000 1.0
C      1  0.4435440000000  0.4531580000000  0.4696970000000 1.0
C      1  0.5070140000000  0.4375970000000  0.4700190000000 1.0
C      1  0.5666470000000  0.4502520000000  0.4765590000000 1.0
C      1  0.5617900000000  0.5175800000000  0.4671270000000 1.0
C      1  0.5222270000000  0.5496990000000  0.4747020000000 1.0
C      1  0.4378630000000  0.4834580000000  0.5144630000000 1.0
C      1  0.4730130000000  0.4392380000000  0.5105600000000 1.0
C      1  0.5321980000000  0.4455580000000  0.5149590000000 1.0
C      1  0.5631910000000  0.4914110000000  0.5154710000000 1.0
C      1  0.5478780000000  0.5451050000000  0.5169070000000 1.0
C      1  0.4954090000000  0.5717200000000  0.5197180000000 1.0
C      1  0.4544480000000  0.5321200000000  0.5093600000000 1.0
C      1  0.4514610000000  0.4880330000000  0.4503710000000 1.0
C      1  0.4670330000000  0.4582030000000  0.4455010000000 1.0
C      1  0.5262070000000  0.4554770000000  0.4502830000000 1.0
C      1  0.5259800000000  0.4851390000000  0.4605070000000 1.0
C      1  0.5361120000000  0.5108030000000  0.4554930000000 1.0
C      1  0.4904830000000  0.5303400000000  0.4426000000000 1.0
C      1  0.4700580000000  0.5136790000000  0.4615740000000 1.0
C      1  0.5534360000000  0.4628990000000  0.5004180000000 1.0
C      1  0.5619240000000  0.5214700000000  0.4990000000000 1.0
C      1  0.5258270000000  0.5685950000000  0.4997810000000 1.0
C      1  0.4663410000000  0.5607460000000  0.4996160000000 1.0
C      1  0.4354040000000  0.5072480000000  0.4996030000000 1.0
C      1  0.4516720000000  0.4595290000000  0.4969430000000 1.0
C      1  0.5042590000000  0.4394780000000  0.4987950000000 1.0
C      1  0.5849470000000  0.5209910000000  0.4529250000000 1.0
C      1  0.5186000000000  0.5328050000000  0.4532410000000 1.0
C      1  0.4717460000000  0.5551250000000  0.4519120000000 1.0
C      1  0.4397080000000  0.5260860000000  0.4514650000000 1.0
C      1  0.4336550000000  0.4616680000000  0.4383750000000 1.0
C      1  0.4935830000000  0.4486010000000  0.4434010000000 1.0
C      1  0.5555310000000  0.4463490000000  0.4540480000000 1.0
C      1  0.4977260000000  0.5055330000000  0.5411060000000 1.0
C      1  0.4987620000000  0.5096000000000  0.5159130000000 1.0
C      1  0.4891710000000  0.5240420000000  0.4152640000000 1.0
C      1  0.5068040000000  0.5068470000000  0.5738580000000 1.0
END
