TITL C-26727-7196-68 -0.0001657375196731 125000 -234.469745082095 0 0 60 (C1) n - 1
REM
REM in /home/nfs/bkarasulu/CARBON/AIRSS/Generating-Clusters/AIREBO/Higher-Symm/Only-C60
REM
REM
REM
REM
REM
REM ./C.cell (28575a23ae977d3b5fae324c64b13b57)
REM
REM compiler GCC version 9.2.1 20190827 (Red Hat 9.2.1-1)
REM options -cpp -mtune=generic -march=x86-64 -g -O0 -fpre-include=/usr/include/finclude/math-vector-fortran.h
REM seed -1355536679 252528945 -1108824100 -820547607 2013217280 -1241971231 1380881065 1412523543 1389631894 -446827668 426784041 2040096554 73798922 -1702884456 1966140043 -26976670 -979531994 1174276291 -1733147544 -2145114263 657128360 1430032456 759191384 927474952 591046311 -506700554 65106318 -1997059246 -176887429 1216218965 926180780 -1605351179 -1239701305
REM
CELL 1.54180   50.00000   50.00000   50.00000   90.00000   90.00000   90.00000
LATT -1
SFAC C  
C      1  0.4873680000000  0.4855200000000  0.4278800000000 1.0
C      1  0.4832390000000  0.4287210000000  0.4814180000000 1.0
C      1  0.4308080000000  0.4812270000000  0.4832740000000 1.0
C      1  0.5137890000000  0.4843960000000  0.5709640000000 1.0
C      1  0.5134540000000  0.5156080000000  0.4294440000000 1.0
C      1  0.4888210000000  0.5154000000000  0.5710690000000 1.0
C      1  0.5159640000000  0.4297740000000  0.5184480000000 1.0
C      1  0.5130420000000  0.5710440000000  0.4852030000000 1.0
C      1  0.4861320000000  0.5702610000000  0.5146870000000 1.0
C      1  0.5706670000000  0.4833660000000  0.5180690000000 1.0
C      1  0.5700490000000  0.5182030000000  0.4816240000000 1.0
C      1  0.4306250000000  0.5198120000000  0.5159140000000 1.0
C      1  0.4820710000000  0.5174260000000  0.4282370000000 1.0
C      1  0.4810390000000  0.5708280000000  0.4835730000000 1.0
C      1  0.4291800000000  0.5130930000000  0.4844670000000 1.0
C      1  0.5204910000000  0.5158370000000  0.5689240000000 1.0
C      1  0.5196500000000  0.4843260000000  0.4307110000000 1.0
C      1  0.4806430000000  0.4843690000000  0.5699000000000 1.0
C      1  0.5181050000000  0.5726730000000  0.5163960000000 1.0
C      1  0.5149370000000  0.4286940000000  0.4869090000000 1.0
C      1  0.4847980000000  0.4288890000000  0.5130860000000 1.0
C      1  0.5708230000000  0.5152850000000  0.5135820000000 1.0
C      1  0.5706200000000  0.4850620000000  0.4858020000000 1.0
C      1  0.4286550000000  0.4876880000000  0.5149750000000 1.0
C      1  0.4810240000000  0.5437660000000  0.4629830000000 1.0
C      1  0.5446090000000  0.4629790000000  0.4848060000000 1.0
C      1  0.4606360000000  0.4800510000000  0.5445920000000 1.0
C      1  0.5190400000000  0.5451190000000  0.5363010000000 1.0
C      1  0.5179700000000  0.4546280000000  0.4649190000000 1.0
C      1  0.4789150000000  0.4536940000000  0.5356040000000 1.0
C      1  0.4527960000000  0.4638200000000  0.5170790000000 1.0
C      1  0.4536790000000  0.5365440000000  0.4818760000000 1.0
C      1  0.5452450000000  0.5376330000000  0.5153750000000 1.0
C      1  0.5386120000000  0.4801780000000  0.4560870000000 1.0
C      1  0.5404230000000  0.5198050000000  0.5439300000000 1.0
C      1  0.4613040000000  0.5169340000000  0.4551600000000 1.0
C      1  0.4842230000000  0.4557860000000  0.4608540000000 1.0
C      1  0.5432710000000  0.5392850000000  0.4814620000000 1.0
C      1  0.4652790000000  0.5189010000000  0.5467640000000 1.0
C      1  0.5181540000000  0.4542320000000  0.5389930000000 1.0
C      1  0.5150060000000  0.5451830000000  0.4629890000000 1.0
C      1  0.4850570000000  0.5449970000000  0.5375820000000 1.0
C      1  0.4557320000000  0.5383810000000  0.5213970000000 1.0
C      1  0.4553170000000  0.4614610000000  0.4778510000000 1.0
C      1  0.5445680000000  0.4615750000000  0.5187840000000 1.0
C      1  0.5359930000000  0.5197730000000  0.4545750000000 1.0
C      1  0.5360040000000  0.4808950000000  0.5454290000000 1.0
C      1  0.4648160000000  0.4831550000000  0.4534480000000 1.0
C      1  0.5341650000000  0.5008150000000  0.4827910000000 1.0
C      1  0.4984100000000  0.4815720000000  0.5343200000000 1.0
C      1  0.4817610000000  0.5318170000000  0.5005040000000 1.0
C      1  0.4666780000000  0.5005590000000  0.5181020000000 1.0
C      1  0.5022020000000  0.5156890000000  0.5334120000000 1.0
C      1  0.4990770000000  0.5152920000000  0.4675160000000 1.0
C      1  0.5158090000000  0.5307510000000  0.4997710000000 1.0
C      1  0.5156160000000  0.4680330000000  0.5018750000000 1.0
C      1  0.4815560000000  0.4661240000000  0.4990200000000 1.0
C      1  0.5012560000000  0.4842190000000  0.4685080000000 1.0
C      1  0.4665760000000  0.4990990000000  0.4836540000000 1.0
C      1  0.5342510000000  0.4997560000000  0.5171290000000 1.0
END
