TITL C-26738-6379-183 6.39897726500999e-05 125000 -296.61989194622 0 0 60 (C1) n - 1
REM
REM in /home/nfs/bkarasulu/CARBON/AIRSS/Generating-Clusters/AIREBO/Higher-Symm/Only-C60
REM
REM
REM
REM
REM
REM ./C.cell (28575a23ae977d3b5fae324c64b13b57)
REM
REM compiler GCC version 9.2.1 20190827 (Red Hat 9.2.1-1)
REM options -cpp -mtune=generic -march=x86-64 -g -O0 -fpre-include=/usr/include/finclude/math-vector-fortran.h
REM seed 1556511463 221192040 411348927 1712388998 1118333112 1723116882 -1877199636 1474186953 -1020334092 -1307188903 410627098 1104558952 -1001167812 -1142634401 1736958339 -972370732 1481085676 1583081797 -2007308602 2097446999 1130870896 669284871 1893593094 -907406960 676050421 -1786626000 841638449 462713032 698801698 1203911538 -507581267 1449911231 655569693
REM
CELL 1.54180   50.00000   50.00000   50.00000   90.00000   90.00000   90.00000
LATT -1
SFAC C  
C      1  0.4541000000000  0.5290260000000  0.5448300000000 1.0
C      1  0.4542150000000  0.4599450000000  0.5454910000000 1.0
C      1  0.4517710000000  0.4437170000000  0.4796040000000 1.0
C      1  0.4547330000000  0.4991690000000  0.4472390000000 1.0
C      1  0.4514450000000  0.5541250000000  0.4881100000000 1.0
C      1  0.5147680000000  0.5305200000000  0.4424840000000 1.0
C      1  0.5184950000000  0.5674000000000  0.5130930000000 1.0
C      1  0.5176960000000  0.5097550000000  0.5690440000000 1.0
C      1  0.5151490000000  0.4395480000000  0.5315000000000 1.0
C      1  0.5188430000000  0.4512910000000  0.4527300000000 1.0
C      1  0.4700960000000  0.4445880000000  0.5027670000000 1.0
C      1  0.4713400000000  0.4751860000000  0.4482770000000 1.0
C      1  0.4674440000000  0.5397820000000  0.4675830000000 1.0
C      1  0.4726580000000  0.5470160000000  0.5311630000000 1.0
C      1  0.4678310000000  0.4850100000000  0.5522710000000 1.0
C      1  0.5024070000000  0.5525240000000  0.5390950000000 1.0
C      1  0.4985810000000  0.4829930000000  0.5603910000000 1.0
C      1  0.4998190000000  0.4345570000000  0.5015600000000 1.0
C      1  0.5014230000000  0.4775850000000  0.4400260000000 1.0
C      1  0.4980730000000  0.5475220000000  0.4661600000000 1.0
C      1  0.4624860000000  0.4676370000000  0.5167730000000 1.0
C      1  0.4608210000000  0.4736790000000  0.4772300000000 1.0
C      1  0.4595120000000  0.5131430000000  0.4710410000000 1.0
C      1  0.4637740000000  0.5314160000000  0.5062810000000 1.0
C      1  0.4583780000000  0.5034040000000  0.5340820000000 1.0
C      1  0.5404550000000  0.4777200000000  0.5274620000000 1.0
C      1  0.5418930000000  0.4688860000000  0.4890760000000 1.0
C      1  0.5388910000000  0.5032510000000  0.4699310000000 1.0
C      1  0.5427240000000  0.5325200000000  0.4958940000000 1.0
C      1  0.5444340000000  0.5165180000000  0.5317970000000 1.0
C      1  0.4962240000000  0.5718440000000  0.4457620000000 1.0
C      1  0.5004940000000  0.5799780000000  0.5532880000000 1.0
C      1  0.4952050000000  0.4777700000000  0.5912080000000 1.0
C      1  0.4975640000000  0.4044680000000  0.5067680000000 1.0
C      1  0.5027130000000  0.4653290000000  0.4117500000000 1.0
C      1  0.5119910000000  0.4931430000000  0.5308300000000 1.0
C      1  0.5139460000000  0.4653860000000  0.4990700000000 1.0
C      1  0.5122460000000  0.4915630000000  0.4690710000000 1.0
C      1  0.5098660000000  0.5261330000000  0.4899220000000 1.0
C      1  0.5137800000000  0.5251920000000  0.5223680000000 1.0
C      1  0.5407350000000  0.4508480000000  0.5286860000000 1.0
C      1  0.5443390000000  0.4586450000000  0.4630150000000 1.0
C      1  0.5410180000000  0.5243000000000  0.4515590000000 1.0
C      1  0.5444430000000  0.5567980000000  0.5081940000000 1.0
C      1  0.5440090000000  0.5091980000000  0.5581430000000 1.0
C      1  0.5062890000000  0.5345720000000  0.5677110000000 1.0
C      1  0.5024000000000  0.4499890000000  0.5531360000000 1.0
C      1  0.5061040000000  0.4327080000000  0.4681910000000 1.0
C      1  0.5032760000000  0.5096850000000  0.4289530000000 1.0
C      1  0.5039070000000  0.5708830000000  0.4901760000000 1.0
C      1  0.3773690000000  0.5004900000000  0.5026330000000 1.0
C      1  0.5812260000000  0.4983670000000  0.5010390000000 1.0
C      1  0.4982560000000  0.4955520000000  0.4998120000000 1.0
C      1  0.4643290000000  0.4977720000000  0.5010340000000 1.0
C      1  0.4039760000000  0.4997370000000  0.5021300000000 1.0
C      1  0.6337210000000  0.4964300000000  0.4986780000000 1.0
C      1  0.6075620000000  0.4973970000000  0.4998570000000 1.0
C      1  0.3511790000000  0.5012350000000  0.5031300000000 1.0
C      1  0.4303440000000  0.4990070000000  0.5016370000000 1.0
C      1  0.5481280000000  0.4995550000000  0.5024840000000 1.0
END
