TITL C-26727-7196-139 0.000454932807464598 125000 -325.096652850199 0 0 60 (C1) n - 1
REM
REM in /home/nfs/bkarasulu/CARBON/AIRSS/Generating-Clusters/AIREBO/Higher-Symm/Only-C60
REM
REM
REM
REM
REM
REM ./C.cell (28575a23ae977d3b5fae324c64b13b57)
REM
REM compiler GCC version 9.2.1 20190827 (Red Hat 9.2.1-1)
REM options -cpp -mtune=generic -march=x86-64 -g -O0 -fpre-include=/usr/include/finclude/math-vector-fortran.h
REM seed 13481682 -1957852135 711576016 853508040 -1508413943 2025836544 -61874737 -333491358 -1228391029 -640605896 1995578816 1419472016 -219950313 -1391831329 -1382784429 664647593 924263104 519879753 -767351706 -115661620 590798852 437817795 -1775511066 -163809107 1280670215 -2021163069 305422195 -1614439330 1314505428 -1953017477 1171242531 1364296933 -136634224
REM
CELL 1.54180   50.00000   50.00000   50.00000   90.00000   90.00000   90.00000
LATT -1
SFAC C  
C      1  0.5037870000000  0.5258960000000  0.5284220000000 1.0
C      1  0.5284840000000  0.5049470000000  0.5283920000000 1.0
C      1  0.5238140000000  0.5256120000000  0.5030900000000 1.0
C      1  0.4984530000000  0.5215400000000  0.4825800000000 1.0
C      1  0.5033360000000  0.4645470000000  0.4643450000000 1.0
C      1  0.5063560000000  0.4736460000000  0.5177190000000 1.0
C      1  0.4862630000000  0.4917310000000  0.4755700000000 1.0
C      1  0.5255650000000  0.4866120000000  0.4706910000000 1.0
C      1  0.4840770000000  0.4984810000000  0.5243060000000 1.0
C      1  0.4733980000000  0.5225220000000  0.5027330000000 1.0
C      1  0.5307770000000  0.4864230000000  0.4999660000000 1.0
C      1  0.4674190000000  0.4833270000000  0.4988210000000 1.0
C      1  0.4270140000000  0.4892620000000  0.4618890000000 1.0
C      1  0.4666000000000  0.4311830000000  0.4903710000000 1.0
C      1  0.4846820000000  0.4613800000000  0.4291440000000 1.0
C      1  0.5646730000000  0.4944430000000  0.5405680000000 1.0
C      1  0.4318640000000  0.5133360000000  0.5359040000000 1.0
C      1  0.5707330000000  0.5133220000000  0.4640280000000 1.0
C      1  0.5425460000000  0.4362280000000  0.5062100000000 1.0
C      1  0.4671010000000  0.5749040000000  0.5071640000000 1.0
C      1  0.5441580000000  0.5636420000000  0.4877130000000 1.0
C      1  0.5038020000000  0.4572690000000  0.5680150000000 1.0
C      1  0.4899440000000  0.5338020000000  0.5647540000000 1.0
C      1  0.5016760000000  0.5325350000000  0.4435980000000 1.0
C      1  0.4403770000000  0.5397110000000  0.5540750000000 1.0
C      1  0.5572330000000  0.4428980000000  0.5352580000000 1.0
C      1  0.5266880000000  0.5534840000000  0.4414510000000 1.0
C      1  0.5548440000000  0.5353830000000  0.4446190000000 1.0
C      1  0.4355940000000  0.4620800000000  0.4443030000000 1.0
C      1  0.5555460000000  0.4673610000000  0.5577700000000 1.0
C      1  0.4439890000000  0.4399720000000  0.4677260000000 1.0
C      1  0.5511610000000  0.5652540000000  0.4603110000000 1.0
C      1  0.4471750000000  0.5631240000000  0.5312130000000 1.0
C      1  0.4683110000000  0.5574020000000  0.5569650000000 1.0
C      1  0.5320400000000  0.4429180000000  0.5573790000000 1.0
C      1  0.4609230000000  0.4400350000000  0.4390280000000 1.0
C      1  0.5090780000000  0.5034280000000  0.4451720000000 1.0
C      1  0.4406470000000  0.5145110000000  0.5071240000000 1.0
C      1  0.5130960000000  0.4421370000000  0.5064510000000 1.0
C      1  0.4828520000000  0.5035130000000  0.5579150000000 1.0
C      1  0.5065140000000  0.4866230000000  0.5685340000000 1.0
C      1  0.4805620000000  0.4886030000000  0.4421650000000 1.0
C      1  0.5681500000000  0.5171330000000  0.4920160000000 1.0
C      1  0.4353660000000  0.4887250000000  0.4905450000000 1.0
C      1  0.5624870000000  0.4914570000000  0.5095630000000 1.0
C      1  0.4956590000000  0.4371670000000  0.4828600000000 1.0
C      1  0.5145130000000  0.5707780000000  0.4940590000000 1.0
C      1  0.4948750000000  0.5724450000000  0.5133350000000 1.0
C      1  0.5429080000000  0.5037300000000  0.4485630000000 1.0
C      1  0.4507300000000  0.5461390000000  0.5023610000000 1.0
C      1  0.5047910000000  0.4465420000000  0.5373680000000 1.0
C      1  0.4519290000000  0.5084870000000  0.5615730000000 1.0
C      1  0.5341570000000  0.4933150000000  0.5566880000000 1.0
C      1  0.4503870000000  0.4922760000000  0.4389610000000 1.0
C      1  0.5496400000000  0.5376300000000  0.4973930000000 1.0
C      1  0.4475340000000  0.4576300000000  0.4961780000000 1.0
C      1  0.5656610000000  0.4598860000000  0.5069080000000 1.0
C      1  0.4930180000000  0.4360670000000  0.4496910000000 1.0
C      1  0.5088220000000  0.5510740000000  0.4705800000000 1.0
C      1  0.4962210000000  0.5544950000000  0.5379000000000 1.0
END
