TITL C-26728-8286-165 -0.00108399885732767 125000 -371.680388769082 0 0 60 (C3i) n - 1
REM
REM in /home/nfs/bkarasulu/CARBON/AIRSS/Generating-Clusters/AIREBO/Higher-Symm/Only-C60
REM
REM
REM
REM
REM
REM ./C.cell (28575a23ae977d3b5fae324c64b13b57)
REM
REM compiler GCC version 9.2.1 20190827 (Red Hat 9.2.1-1)
REM options -cpp -mtune=generic -march=x86-64 -g -O0 -fpre-include=/usr/include/finclude/math-vector-fortran.h
REM seed -1118014466 2002065399 -389732818 1992392491 -1713665085 1034477598 -1499446367 2021495137 1908224101 -1490660097 -153142074 1155895290 -1223468063 400612611 1181957633 -2046633520 664021361 -724287199 261242057 1810991162 1756671887 -140050756 144439415 -461454401 1369458090 1647577 -1355939957 -2105284897 1243393341 101403668 -717782822 52802292 -1348837520
REM
CELL 1.54180   50.00000   50.00000   50.00000   90.00000   90.00000   90.00000
LATT -1
SFAC C  
C      1  0.5406910000000  0.4959660000000  0.5447060000000 1.0
C      1  0.4597850000000  0.5371380000000  0.5259640000000 1.0
C      1  0.5406010000000  0.5406170000000  0.4807000000000 1.0
C      1  0.4593090000000  0.5040340000000  0.4552940000000 1.0
C      1  0.5402150000000  0.4628620000000  0.4740360000000 1.0
C      1  0.4593990000000  0.4593830000000  0.5193000000000 1.0
C      1  0.5286800000000  0.4655780000000  0.5499570000000 1.0
C      1  0.4717640000000  0.5263620000000  0.5548720000000 1.0
C      1  0.5289050000000  0.5603930000000  0.5045210000000 1.0
C      1  0.4713200000000  0.5344220000000  0.4500430000000 1.0
C      1  0.5282360000000  0.4736380000000  0.4451280000000 1.0
C      1  0.4710950000000  0.4396070000000  0.4954790000000 1.0
C      1  0.4339560000000  0.5253570000000  0.4869070000000 1.0
C      1  0.5659710000000  0.5006250000000  0.4713000000000 1.0
C      1  0.4337240000000  0.4761730000000  0.4853030000000 1.0
C      1  0.5660440000000  0.4746430000000  0.5130930000000 1.0
C      1  0.4340290000000  0.4993750000000  0.5287000000000 1.0
C      1  0.5662760000000  0.5238270000000  0.5146970000000 1.0
C      1  0.4756470000000  0.5769980000000  0.5663450000000 1.0
C      1  0.5252920000000  0.5956860000000  0.4664160000000 1.0
C      1  0.4746210000000  0.5190310000000  0.4004150000000 1.0
C      1  0.5243530000000  0.4230020000000  0.4336550000000 1.0
C      1  0.4747080000000  0.4043140000000  0.5335840000000 1.0
C      1  0.5253790000000  0.4809690000000  0.5995850000000 1.0
C      1  0.5030890000000  0.4948000000000  0.4364090000000 1.0
C      1  0.4962070000000  0.4423650000000  0.4727190000000 1.0
C      1  0.5033310000000  0.4475190000000  0.5362630000000 1.0
C      1  0.4969110000000  0.5052000000000  0.5635910000000 1.0
C      1  0.5037930000000  0.5576350000000  0.5272810000000 1.0
C      1  0.4966690000000  0.5524810000000  0.4637370000000 1.0
C      1  0.5229290000000  0.5157950000000  0.5500950000000 1.0
C      1  0.4776610000000  0.5515270000000  0.5114340000000 1.0
C      1  0.5226100000000  0.5354210000000  0.4610270000000 1.0
C      1  0.4770710000000  0.4842050000000  0.4499050000000 1.0
C      1  0.5223390000000  0.4484730000000  0.4885660000000 1.0
C      1  0.4773900000000  0.4645790000000  0.5389730000000 1.0
C      1  0.4735070000000  0.4865500000000  0.5543440000000 1.0
C      1  0.5270420000000  0.5400490000000  0.5387410000000 1.0
C      1  0.4734950000000  0.5538650000000  0.4847640000000 1.0
C      1  0.5264930000000  0.5134500000000  0.4456560000000 1.0
C      1  0.4729580000000  0.4599510000000  0.4612590000000 1.0
C      1  0.5265050000000  0.4461350000000  0.5152360000000 1.0
C      1  0.4830010000000  0.5566970000000  0.5518390000000 1.0
C      1  0.5177230000000  0.5730540000000  0.4767670000000 1.0
C      1  0.4822360000000  0.5165970000000  0.4251680000000 1.0
C      1  0.5169990000000  0.4433030000000  0.4481610000000 1.0
C      1  0.4822770000000  0.4269460000000  0.5232330000000 1.0
C      1  0.5177640000000  0.4834030000000  0.5748320000000 1.0
C      1  0.4380460000000  0.5237430000000  0.5149020000000 1.0
C      1  0.5621800000000  0.5241050000000  0.4867060000000 1.0
C      1  0.4377490000000  0.5012130000000  0.4726610000000 1.0
C      1  0.5619540000000  0.4762570000000  0.4850980000000 1.0
C      1  0.4378200000000  0.4758950000000  0.5132940000000 1.0
C      1  0.5622510000000  0.4987870000000  0.5273390000000 1.0
C      1  0.4479420000000  0.5008380000000  0.5533740000000 1.0
C      1  0.5526360000000  0.5460760000000  0.5258070000000 1.0
C      1  0.4477800000000  0.5459540000000  0.4731540000000 1.0
C      1  0.5520580000000  0.4991620000000  0.4466260000000 1.0
C      1  0.4473640000000  0.4539240000000  0.4741930000000 1.0
C      1  0.5522200000000  0.4540460000000  0.5268460000000 1.0
END
