TITL C-26729-7230-69 -0.0042798923127059 125000 -330.482530770194 0 0 60 (C1) n - 1
REM
REM in /home/nfs/bkarasulu/CARBON/AIRSS/Generating-Clusters/AIREBO/Higher-Symm/Only-C60
REM
REM
REM
REM
REM
REM ./C.cell (28575a23ae977d3b5fae324c64b13b57)
REM
REM compiler GCC version 9.2.1 20190827 (Red Hat 9.2.1-1)
REM options -cpp -mtune=generic -march=x86-64 -g -O0 -fpre-include=/usr/include/finclude/math-vector-fortran.h
REM seed -272470670 2069172678 174403713 694857607 248678754 832445904 1995318615 413341158 1962145989 -1466346384 -162674572 -274763657 1891682692 561781614 138876009 -1520077776 -758329000 173142245 -39569949 1769486494 -908511548 647384866 -1422601741 592866435 14409604 -1212425265 -1075760679 1748517183 1249607287 -1101895306 -515811509 282408824 1967581328
REM
CELL 1.54180   50.00000   50.00000   50.00000   90.00000   90.00000   90.00000
LATT -1
SFAC C  
C      1  0.4980820000000  0.4503100000000  0.5546780000000 1.0
C      1  0.5435950000000  0.5326970000000  0.4975080000000 1.0
C      1  0.5087160000000  0.4908030000000  0.4263230000000 1.0
C      1  0.4855460000000  0.4229160000000  0.5076430000000 1.0
C      1  0.5452000000000  0.4361720000000  0.5430900000000 1.0
C      1  0.4825360000000  0.4939680000000  0.4318210000000 1.0
C      1  0.5689280000000  0.5184800000000  0.4910200000000 1.0
C      1  0.4620380000000  0.4675930000000  0.5823390000000 1.0
C      1  0.4827080000000  0.5547100000000  0.5198300000000 1.0
C      1  0.4419370000000  0.4580390000000  0.5155030000000 1.0
C      1  0.5252020000000  0.4401150000000  0.4806030000000 1.0
C      1  0.5048410000000  0.5201830000000  0.5442140000000 1.0
C      1  0.5462740000000  0.5182440000000  0.5723410000000 1.0
C      1  0.4431080000000  0.5244040000000  0.4225530000000 1.0
C      1  0.4619930000000  0.5326010000000  0.5186150000000 1.0
C      1  0.4856300000000  0.5580490000000  0.4099410000000 1.0
C      1  0.4844480000000  0.4746700000000  0.5666830000000 1.0
C      1  0.5028900000000  0.4959700000000  0.5204020000000 1.0
C      1  0.5057970000000  0.4925540000000  0.5822870000000 1.0
C      1  0.5399990000000  0.5608160000000  0.4932140000000 1.0
C      1  0.4809910000000  0.5282860000000  0.4904210000000 1.0
C      1  0.5513960000000  0.4414060000000  0.4925370000000 1.0
C      1  0.4965870000000  0.5576470000000  0.4570590000000 1.0
C      1  0.4703090000000  0.4716900000000  0.4425800000000 1.0
C      1  0.5728240000000  0.4933210000000  0.4732450000000 1.0
C      1  0.4621140000000  0.5185130000000  0.4688070000000 1.0
C      1  0.4882690000000  0.5614890000000  0.4895510000000 1.0
C      1  0.4953160000000  0.4328520000000  0.4822330000000 1.0
C      1  0.5270080000000  0.4828500000000  0.4491690000000 1.0
C      1  0.5184500000000  0.5682860000000  0.4771470000000 1.0
C      1  0.5203910000000  0.5106270000000  0.5682840000000 1.0
C      1  0.5238370000000  0.4407320000000  0.5593820000000 1.0
C      1  0.5588300000000  0.4948260000000  0.4485570000000 1.0
C      1  0.5635610000000  0.4674880000000  0.4893770000000 1.0
C      1  0.4462050000000  0.5222030000000  0.5377950000000 1.0
C      1  0.4235140000000  0.5076650000000  0.5559250000000 1.0
C      1  0.4689620000000  0.4545530000000  0.5115890000000 1.0
C      1  0.4850990000000  0.4385220000000  0.5344510000000 1.0
C      1  0.5916470000000  0.5285540000000  0.5022760000000 1.0
C      1  0.3982330000000  0.5055660000000  0.5623010000000 1.0
C      1  0.4692360000000  0.5212950000000  0.4389720000000 1.0
C      1  0.4897160000000  0.4755740000000  0.4965850000000 1.0
C      1  0.5252090000000  0.5648230000000  0.5408940000000 1.0
C      1  0.4872700000000  0.5589310000000  0.5675220000000 1.0
C      1  0.4537280000000  0.5021100000000  0.5640240000000 1.0
C      1  0.5007550000000  0.5506350000000  0.5437020000000 1.0
C      1  0.5139520000000  0.4671410000000  0.4741800000000 1.0
C      1  0.4215680000000  0.5268400000000  0.4090870000000 1.0
C      1  0.5126310000000  0.5185610000000  0.4976290000000 1.0
C      1  0.4851830000000  0.5472740000000  0.4351500000000 1.0
C      1  0.4436170000000  0.4990590000000  0.4739170000000 1.0
C      1  0.4759690000000  0.4561090000000  0.4723170000000 1.0
C      1  0.4480700000000  0.4731860000000  0.4640290000000 1.0
C      1  0.5317300000000  0.4844240000000  0.5234100000000 1.0
C      1  0.4779590000000  0.4986240000000  0.5433700000000 1.0
C      1  0.5408960000000  0.5201620000000  0.4472970000000 1.0
C      1  0.5301470000000  0.5032210000000  0.4748820000000 1.0
C      1  0.5439880000000  0.4875120000000  0.4997490000000 1.0
C      1  0.5311180000000  0.5444460000000  0.4418150000000 1.0
C      1  0.5542510000000  0.4297040000000  0.5181750000000 1.0
END
