TITL C-26730-8313-78 0.000834190990719592 125000 -331.465466165353 0 0 60 (C1) n - 1
REM
REM in /home/nfs/bkarasulu/CARBON/AIRSS/Generating-Clusters/AIREBO/Higher-Symm/Only-C60
REM
REM
REM
REM
REM
REM ./C.cell (28575a23ae977d3b5fae324c64b13b57)
REM
REM compiler GCC version 9.2.1 20190827 (Red Hat 9.2.1-1)
REM options -cpp -mtune=generic -march=x86-64 -g -O0 -fpre-include=/usr/include/finclude/math-vector-fortran.h
REM seed -824570808 -1638978283 -1585380728 -805831652 820851836 1709964951 -1766258700 -547638890 -2026671366 -1437490530 248390199 -1951841308 -1506310515 -978775327 -1921717308 170449992 -1651303223 -637631836 1577275525 1206510258 872491284 1975547721 -1696156024 1912551025 445072867 -577610966 1894370593 -1277882535 -762294774 1863716847 -887189192 -1977477026 102302536
REM
CELL 1.54180   50.00000   50.00000   50.00000   90.00000   90.00000   90.00000
LATT -1
SFAC C  
C      1  0.4413510000000  0.5171610000000  0.5312290000000 1.0
C      1  0.4414110000000  0.5157930000000  0.4691740000000 1.0
C      1  0.4348440000000  0.5413300000000  0.4841020000000 1.0
C      1  0.4330130000000  0.5417760000000  0.5114300000000 1.0
C      1  0.5168470000000  0.5273730000000  0.4382430000000 1.0
C      1  0.5154430000000  0.5273740000000  0.5587440000000 1.0
C      1  0.5070910000000  0.4297510000000  0.5470850000000 1.0
C      1  0.5123060000000  0.4278520000000  0.4558860000000 1.0
C      1  0.5321250000000  0.5729640000000  0.4626340000000 1.0
C      1  0.5349200000000  0.5627420000000  0.5281270000000 1.0
C      1  0.5692810000000  0.4717230000000  0.5129430000000 1.0
C      1  0.5688390000000  0.4724600000000  0.4840460000000 1.0
C      1  0.5199160000000  0.4608200000000  0.4769640000000 1.0
C      1  0.5202320000000  0.4598140000000  0.5248820000000 1.0
C      1  0.5271830000000  0.4990290000000  0.4448590000000 1.0
C      1  0.5301390000000  0.4980270000000  0.5557180000000 1.0
C      1  0.5519230000000  0.4503970000000  0.5255340000000 1.0
C      1  0.5504440000000  0.4520950000000  0.4716870000000 1.0
C      1  0.5108460000000  0.4805940000000  0.4280210000000 1.0
C      1  0.5125240000000  0.4817150000000  0.5743430000000 1.0
C      1  0.4800640000000  0.4836870000000  0.5645320000000 1.0
C      1  0.4780850000000  0.4827110000000  0.4342180000000 1.0
C      1  0.4928610000000  0.5037370000000  0.4845750000000 1.0
C      1  0.4928560000000  0.5010010000000  0.5166120000000 1.0
C      1  0.4999060000000  0.4555020000000  0.5626640000000 1.0
C      1  0.4975030000000  0.4562240000000  0.4443090000000 1.0
C      1  0.5397350000000  0.5156310000000  0.5179730000000 1.0
C      1  0.5406090000000  0.5162980000000  0.4897000000000 1.0
C      1  0.4887630000000  0.4459590000000  0.5256980000000 1.0
C      1  0.4894330000000  0.4451380000000  0.4741670000000 1.0
C      1  0.4711170000000  0.4905260000000  0.5339920000000 1.0
C      1  0.4719480000000  0.4901460000000  0.4664090000000 1.0
C      1  0.4638250000000  0.4480820000000  0.4865510000000 1.0
C      1  0.4641320000000  0.4484110000000  0.5142330000000 1.0
C      1  0.4503730000000  0.4698670000000  0.5249910000000 1.0
C      1  0.4509980000000  0.4695550000000  0.4757320000000 1.0
C      1  0.4860360000000  0.5360990000000  0.4456850000000 1.0
C      1  0.4898470000000  0.5341620000000  0.5448210000000 1.0
C      1  0.4596840000000  0.5725520000000  0.4851920000000 1.0
C      1  0.4592530000000  0.5717230000000  0.5108380000000 1.0
C      1  0.4928120000000  0.5349930000000  0.4773630000000 1.0
C      1  0.4919370000000  0.5345940000000  0.5108840000000 1.0
C      1  0.5226980000000  0.4288620000000  0.4882440000000 1.0
C      1  0.5216510000000  0.4268950000000  0.5164600000000 1.0
C      1  0.4651530000000  0.5136610000000  0.5560510000000 1.0
C      1  0.4638570000000  0.5124940000000  0.4435150000000 1.0
C      1  0.4599330000000  0.5485110000000  0.4636180000000 1.0
C      1  0.4602610000000  0.5453980000000  0.5323420000000 1.0
C      1  0.5115240000000  0.5621550000000  0.5153440000000 1.0
C      1  0.5135000000000  0.5567640000000  0.4855310000000 1.0
C      1  0.5427490000000  0.5435260000000  0.4769910000000 1.0
C      1  0.5459130000000  0.5378890000000  0.5351660000000 1.0
C      1  0.5207000000000  0.4931330000000  0.4760460000000 1.0
C      1  0.5201200000000  0.4905330000000  0.5261240000000 1.0
C      1  0.5450720000000  0.5338220000000  0.5650500000000 1.0
C      1  0.5364190000000  0.5466450000000  0.4442610000000 1.0
C      1  0.5565210000000  0.4895450000000  0.4593120000000 1.0
C      1  0.5577820000000  0.4871290000000  0.5391460000000 1.0
C      1  0.4365300000000  0.4927060000000  0.5140870000000 1.0
C      1  0.4371640000000  0.4929420000000  0.4859200000000 1.0
END
