TITL C-26738-6379-24 -0.00113244351477231 125000 -314.64544914345 0 0 60 (C1) n - 1
REM
REM in /home/nfs/bkarasulu/CARBON/AIRSS/Generating-Clusters/AIREBO/Higher-Symm/Only-C60
REM
REM
REM
REM
REM
REM ./C.cell (28575a23ae977d3b5fae324c64b13b57)
REM
REM compiler GCC version 9.2.1 20190827 (Red Hat 9.2.1-1)
REM options -cpp -mtune=generic -march=x86-64 -g -O0 -fpre-include=/usr/include/finclude/math-vector-fortran.h
REM seed 182062021 1291538516 1874071518 376685650 978595016 1128486908 -1609587369 904623029 1869441017 647860207 1116737997 231109215 1848334426 713886512 -1576477753 723619224 -571097767 -1899129529 2789727 496571760 348254520 1602516136 -285958514 1503125692 329513847 152050660 -749739756 -882990026 -1896427902 1021518392 1408756267 -1413013189 -1235732021
REM
CELL 1.54180   50.00000   50.00000   50.00000   90.00000   90.00000   90.00000
LATT -1
SFAC C  
C      1  0.4113130000000  0.4854470000000  0.5009280000000 1.0
C      1  0.5002830000000  0.4243430000000  0.4851250000000 1.0
C      1  0.4703370000000  0.5119900000000  0.4283280000000 1.0
C      1  0.5888320000000  0.4773060000000  0.5048500000000 1.0
C      1  0.4229380000000  0.5347360000000  0.4954220000000 1.0
C      1  0.5868720000000  0.5223950000000  0.4894690000000 1.0
C      1  0.5024990000000  0.4291340000000  0.5242640000000 1.0
C      1  0.4943050000000  0.5792270000000  0.5288520000000 1.0
C      1  0.4942610000000  0.5870510000000  0.4794500000000 1.0
C      1  0.5231360000000  0.4969400000000  0.5874100000000 1.0
C      1  0.4742850000000  0.4917140000000  0.5732940000000 1.0
C      1  0.5191340000000  0.5002670000000  0.4217500000000 1.0
C      1  0.5111510000000  0.4716510000000  0.4266100000000 1.0
C      1  0.4762310000000  0.4202120000000  0.5068650000000 1.0
C      1  0.4247630000000  0.5047360000000  0.4792890000000 1.0
C      1  0.5044120000000  0.4730210000000  0.5765360000000 1.0
C      1  0.4969670000000  0.5191170000000  0.4184490000000 1.0
C      1  0.4966700000000  0.5109080000000  0.5861540000000 1.0
C      1  0.5269950000000  0.4222490000000  0.5036430000000 1.0
C      1  0.5145660000000  0.5775230000000  0.5026910000000 1.0
C      1  0.4753740000000  0.5740300000000  0.5021630000000 1.0
C      1  0.5781810000000  0.5044250000000  0.5124500000000 1.0
C      1  0.5832120000000  0.4927970000000  0.4748010000000 1.0
C      1  0.4251960000000  0.5090360000000  0.5178760000000 1.0
C      1  0.5279220000000  0.4953590000000  0.4537750000000 1.0
C      1  0.4546720000000  0.5245640000000  0.4963500000000 1.0
C      1  0.5014900000000  0.4616890000000  0.5277070000000 1.0
C      1  0.4743740000000  0.5027810000000  0.5424260000000 1.0
C      1  0.5281780000000  0.5054420000000  0.5392010000000 1.0
C      1  0.4730540000000  0.4951410000000  0.4548690000000 1.0
C      1  0.5428600000000  0.5325240000000  0.4981140000000 1.0
C      1  0.4564060000000  0.4710930000000  0.5015280000000 1.0
C      1  0.5434550000000  0.4740570000000  0.4980380000000 1.0
C      1  0.4987300000000  0.4549270000000  0.4740220000000 1.0
C      1  0.4986020000000  0.5402300000000  0.4682680000000 1.0
C      1  0.4973310000000  0.5466380000000  0.5210270000000 1.0
C      1  0.4572020000000  0.4993730000000  0.5189110000000 1.0
C      1  0.5006980000000  0.5145470000000  0.4541580000000 1.0
C      1  0.5198790000000  0.4557290000000  0.5001670000000 1.0
C      1  0.5507010000000  0.4843290000000  0.4683020000000 1.0
C      1  0.5441580000000  0.5042210000000  0.5137720000000 1.0
C      1  0.4566600000000  0.4957540000000  0.4791750000000 1.0
C      1  0.5004310000000  0.5241630000000  0.5397630000000 1.0
C      1  0.4974740000000  0.4747570000000  0.4537430000000 1.0
C      1  0.5021200000000  0.4846580000000  0.5454620000000 1.0
C      1  0.4801860000000  0.4540170000000  0.5025120000000 1.0
C      1  0.4776500000000  0.5421310000000  0.4939790000000 1.0
C      1  0.5173300000000  0.5455560000000  0.4944520000000 1.0
C      1  0.5120000000000  0.4505720000000  0.4103150000000 1.0
C      1  0.4466040000000  0.5160410000000  0.4155290000000 1.0
C      1  0.5690690000000  0.4580910000000  0.5093620000000 1.0
C      1  0.4098710000000  0.5580600000000  0.4929450000000 1.0
C      1  0.5070180000000  0.4443170000000  0.5832220000000 1.0
C      1  0.4975230000000  0.5335790000000  0.5702680000000 1.0
C      1  0.4962030000000  0.5698040000000  0.4560710000000 1.0
C      1  0.5414930000000  0.5046870000000  0.5681730000000 1.0
C      1  0.4488410000000  0.4870670000000  0.5880080000000 1.0
C      1  0.5753560000000  0.4720460000000  0.4495860000000 1.0
C      1  0.4264320000000  0.4606300000000  0.5032030000000 1.0
C      1  0.5661160000000  0.5411710000000  0.4869290000000 1.0
END
