TITL C-26729-7230-71 -0.000696547211121642 125000 -319.87787553831 0 0 60 (C1) n - 1
REM
REM in /home/nfs/bkarasulu/CARBON/AIRSS/Generating-Clusters/AIREBO/Higher-Symm/Only-C60
REM
REM
REM
REM
REM
REM ./C.cell (28575a23ae977d3b5fae324c64b13b57)
REM
REM compiler GCC version 9.2.1 20190827 (Red Hat 9.2.1-1)
REM options -cpp -mtune=generic -march=x86-64 -g -O0 -fpre-include=/usr/include/finclude/math-vector-fortran.h
REM seed -862421635 -477377512 1727710972 2031284027 2094431054 1712134256 -1794411164 -695332660 1178514335 -145269513 1934135690 -1486009090 1721164067 181129564 1442414136 1855588066 -613161135 -736975895 -1192687785 -1389784207 1832403143 -106778815 1682365020 -1741595027 402730319 -934634056 41904595 595109443 -1381797694 2000769708 633128532 -130892442 -1503739043
REM
CELL 1.54180   50.00000   50.00000   50.00000   90.00000   90.00000   90.00000
LATT -1
SFAC C  
C      1  0.5202360000000  0.4409070000000  0.4838870000000 1.0
C      1  0.4392860000000  0.4803000000000  0.5196290000000 1.0
C      1  0.4826040000000  0.5178360000000  0.4493830000000 1.0
C      1  0.4788730000000  0.4480790000000  0.5158470000000 1.0
C      1  0.4809030000000  0.5612930000000  0.4808440000000 1.0
C      1  0.5147350000000  0.5487110000000  0.5148780000000 1.0
C      1  0.5569810000000  0.4876550000000  0.4868920000000 1.0
C      1  0.5593250000000  0.5166330000000  0.5169720000000 1.0
C      1  0.4488190000000  0.5182200000000  0.4830430000000 1.0
C      1  0.5256660000000  0.5176900000000  0.5526650000000 1.0
C      1  0.5172140000000  0.4811500000000  0.4518500000000 1.0
C      1  0.4851670000000  0.4855820000000  0.5493300000000 1.0
C      1  0.5131670000000  0.5549630000000  0.4813450000000 1.0
C      1  0.4473850000000  0.5118290000000  0.5164180000000 1.0
C      1  0.4843150000000  0.4852140000000  0.4450120000000 1.0
C      1  0.4809420000000  0.5523380000000  0.5126640000000 1.0
C      1  0.4871090000000  0.4486410000000  0.4828630000000 1.0
C      1  0.5107330000000  0.4444110000000  0.5147210000000 1.0
C      1  0.5504700000000  0.5193970000000  0.4841390000000 1.0
C      1  0.5497670000000  0.4840170000000  0.5183150000000 1.0
C      1  0.4478350000000  0.4847770000000  0.4869900000000 1.0
C      1  0.5165810000000  0.4822460000000  0.5567560000000 1.0
C      1  0.5139120000000  0.5123720000000  0.4448610000000 1.0
C      1  0.4933370000000  0.5163670000000  0.5547180000000 1.0
C      1  0.5212570000000  0.4491810000000  0.4528400000000 1.0
C      1  0.4473980000000  0.4489780000000  0.5184850000000 1.0
C      1  0.4507580000000  0.5232920000000  0.4508470000000 1.0
C      1  0.4759700000000  0.4544420000000  0.5469840000000 1.0
C      1  0.4801520000000  0.5497890000000  0.4506070000000 1.0
C      1  0.5182410000000  0.5464290000000  0.5460140000000 1.0
C      1  0.5496790000000  0.4548470000000  0.4817530000000 1.0
C      1  0.5474340000000  0.5475030000000  0.5192770000000 1.0
C      1  0.4502440000000  0.5504150000000  0.4788270000000 1.0
C      1  0.5551320000000  0.5180240000000  0.5496670000000 1.0
C      1  0.5500150000000  0.4762430000000  0.4556060000000 1.0
C      1  0.4527950000000  0.4791270000000  0.5494000000000 1.0
C      1  0.5197160000000  0.5446770000000  0.4511660000000 1.0
C      1  0.4497190000000  0.5444450000000  0.5181460000000 1.0
C      1  0.4527130000000  0.4835530000000  0.4537610000000 1.0
C      1  0.4784920000000  0.5454580000000  0.5452590000000 1.0
C      1  0.4817460000000  0.4538710000000  0.4513900000000 1.0
C      1  0.5205710000000  0.4500390000000  0.5463720000000 1.0
C      1  0.5465190000000  0.5515840000000  0.4797290000000 1.0
C      1  0.5432270000000  0.4521770000000  0.5211100000000 1.0
C      1  0.4545530000000  0.4538560000000  0.4796530000000 1.0
C      1  0.5475370000000  0.4789450000000  0.5500860000000 1.0
C      1  0.5449670000000  0.5231510000000  0.4520250000000 1.0
C      1  0.4601100000000  0.5182630000000  0.5464330000000 1.0
C      1  0.4324040000000  0.5609220000000  0.5005200000000 1.0
C      1  0.5604250000000  0.5001770000000  0.4406210000000 1.0
C      1  0.4962290000000  0.4376070000000  0.5611280000000 1.0
C      1  0.5607690000000  0.5663830000000  0.5008380000000 1.0
C      1  0.5635130000000  0.4370330000000  0.5035630000000 1.0
C      1  0.4365530000000  0.4354300000000  0.4944750000000 1.0
C      1  0.4421940000000  0.5027220000000  0.5665800000000 1.0
C      1  0.5003550000000  0.4365970000000  0.4360050000000 1.0
C      1  0.5004650000000  0.5636310000000  0.5625960000000 1.0
C      1  0.5000460000000  0.5632860000000  0.4320550000000 1.0
C      1  0.4356640000000  0.5016030000000  0.4376740000000 1.0
C      1  0.5670750000000  0.4956920000000  0.5644850000000 1.0
END
