TITL C-26734-8308-97 -1128.59275438856 125000 -337.684810318402 0 0 60 (C1) n - 1
REM
REM in /home/nfs/bkarasulu/CARBON/AIRSS/Generating-Clusters/AIREBO/Higher-Symm/Only-C60
REM
REM
REM
REM
REM
REM ./C.cell (28575a23ae977d3b5fae324c64b13b57)
REM
REM compiler GCC version 9.2.1 20190827 (Red Hat 9.2.1-1)
REM options -cpp -mtune=generic -march=x86-64 -g -O0 -fpre-include=/usr/include/finclude/math-vector-fortran.h
REM seed -25456626 -1351303110 562256843 1610264793 1069252659 -581637981 -1364504578 1242691367 -1413512345 1053509717 1076213371 746131049 2083211994 587703811 1427534025 -76954414 510994782 -2130957979 -1948377820 -457858318 1229968338 -1353519642 -1674764535 -164406186 -977144477 -160120658 1472887342 120847958 645696266 -1658353404 1704011486 236441574 -739829771
REM
CELL 1.54180   50.00000   50.00000   50.00000   90.00000   90.00000   90.00000
LATT -1
SFAC C  
C      1  0.5021280000000  0.5538510000000  0.4952760000000 1.0
C      1  0.4627600000000  0.5119700000000  0.4939260000000 1.0
C      1  0.4717450000000  0.4621300000000  0.4994820000000 1.0
C      1  0.5250940000000  0.4558910000000  0.4983810000000 1.0
C      1  0.5329310000000  0.5134470000000  0.4982170000000 1.0
C      1  0.4983870000000  0.4496620000000  0.4893100000000 1.0
C      1  0.4547480000000  0.4863410000000  0.5064200000000 1.0
C      1  0.4798800000000  0.5320650000000  0.4920830000000 1.0
C      1  0.5267950000000  0.5409960000000  0.4881380000000 1.0
C      1  0.5305340000000  0.4860420000000  0.4952960000000 1.0
C      1  0.5125620000000  0.4124920000000  0.4917170000000 1.0
C      1  0.5658240000000  0.4821330000000  0.5131150000000 1.0
C      1  0.5402630000000  0.5781580000000  0.4914240000000 1.0
C      1  0.4544160000000  0.5589640000000  0.5067790000000 1.0
C      1  0.4287150000000  0.4485870000000  0.4879700000000 1.0
C      1  0.5195080000000  0.5942160000000  0.4825130000000 1.0
C      1  0.5699340000000  0.5106580000000  0.5126720000000 1.0
C      1  0.5396640000000  0.4124280000000  0.4858570000000 1.0
C      1  0.4511200000000  0.4286580000000  0.4954370000000 1.0
C      1  0.4357550000000  0.5367620000000  0.5095240000000 1.0
C      1  0.5112120000000  0.4039170000000  0.5458750000000 1.0
C      1  0.5430720000000  0.4913060000000  0.5534650000000 1.0
C      1  0.5427780000000  0.5839650000000  0.5460620000000 1.0
C      1  0.4598580000000  0.5587080000000  0.5540140000000 1.0
C      1  0.4473360000000  0.4707920000000  0.5502900000000 1.0
C      1  0.5152720000000  0.5872840000000  0.5446540000000 1.0
C      1  0.5400550000000  0.5185170000000  0.5502410000000 1.0
C      1  0.5320970000000  0.4218270000000  0.5484450000000 1.0
C      1  0.4617710000000  0.4476080000000  0.5462970000000 1.0
C      1  0.4431000000000  0.5367860000000  0.5572060000000 1.0
C      1  0.4709090000000  0.5648670000000  0.5287900000000 1.0
C      1  0.4449080000000  0.4932120000000  0.5333890000000 1.0
C      1  0.5044960000000  0.4246780000000  0.5197980000000 1.0
C      1  0.5486180000000  0.4721610000000  0.5333710000000 1.0
C      1  0.5354580000000  0.5636230000000  0.5198180000000 1.0
C      1  0.4743180000000  0.4354860000000  0.5195650000000 1.0
C      1  0.4372810000000  0.5206400000000  0.5344810000000 1.0
C      1  0.5015610000000  0.5651600000000  0.5247100000000 1.0
C      1  0.5460750000000  0.5334880000000  0.5222880000000 1.0
C      1  0.5289600000000  0.4471130000000  0.5287190000000 1.0
C      1  0.5431530000000  0.4886440000000  0.4575120000000 1.0
C      1  0.5261200000000  0.5402090000000  0.4486350000000 1.0
C      1  0.4709880000000  0.5347240000000  0.4532050000000 1.0
C      1  0.4527690000000  0.4841860000000  0.4573010000000 1.0
C      1  0.5037200000000  0.4515290000000  0.4499800000000 1.0
C      1  0.5445010000000  0.5166290000000  0.4601110000000 1.0
C      1  0.5295450000000  0.4616540000000  0.4571010000000 1.0
C      1  0.4756620000000  0.4642190000000  0.4474250000000 1.0
C      1  0.4515000000000  0.5138830000000  0.4558330000000 1.0
C      1  0.4985980000000  0.5480710000000  0.4540510000000 1.0
C      1  0.4979130000000  0.4257800000000  0.4682180000000 1.0
C      1  0.5583500000000  0.4715960000000  0.4827910000000 1.0
C      1  0.5466060000000  0.5570430000000  0.4694240000000 1.0
C      1  0.4675730000000  0.5595470000000  0.4762950000000 1.0
C      1  0.4382620000000  0.4748640000000  0.4817920000000 1.0
C      1  0.4951580000000  0.5770910000000  0.4714500000000 1.0
C      1  0.5623420000000  0.5238290000000  0.4846620000000 1.0
C      1  0.5476380000000  0.4413090000000  0.4774830000000 1.0
C      1  0.4641630000000  0.4470270000000  0.4699710000000 1.0
C      1  0.4335380000000  0.5215750000000  0.4817470000000 1.0
END
