TITL C-26728-8286-100 -0.0548334702987812 125000 -349.230835805948 0 0 60 (C2) n - 1
REM
REM in /home/nfs/bkarasulu/CARBON/AIRSS/Generating-Clusters/AIREBO/Higher-Symm/Only-C60
REM
REM
REM
REM
REM
REM ./C.cell (28575a23ae977d3b5fae324c64b13b57)
REM
REM compiler GCC version 9.2.1 20190827 (Red Hat 9.2.1-1)
REM options -cpp -mtune=generic -march=x86-64 -g -O0 -fpre-include=/usr/include/finclude/math-vector-fortran.h
REM seed -410376440 -676634922 -312327617 1314928225 1240838056 -426261649 1093849892 -2127129687 909407213 1970643354 599732594 1619894651 1015412183 766619956 1835756351 1485816812 1477576117 1086536796 -1978748537 -1824872848 498123160 101442402 884496898 313029865 -1276582929 -1724991368 -1347335501 -657322250 -1186925707 -1697277348 -1826829518 47374254 -350784802
REM
CELL 1.54180   50.00000   50.00000   50.00000   90.00000   90.00000   90.00000
LATT -1
SFAC C  
C      1  0.5684460000000  0.5455370000000  0.4760780000000 1.0
C      1  0.5718120000000  0.5253010000000  0.4529420000000 1.0
C      1  0.5823880000000  0.4999050000000  0.4474820000000 1.0
C      1  0.5684810000000  0.4773880000000  0.4568440000000 1.0
C      1  0.5715120000000  0.4533630000000  0.4760090000000 1.0
C      1  0.5821630000000  0.4461820000000  0.5009110000000 1.0
C      1  0.5684650000000  0.4545070000000  0.5239510000000 1.0
C      1  0.5718090000000  0.4747460000000  0.5470880000000 1.0
C      1  0.5823650000000  0.5001490000000  0.5525530000000 1.0
C      1  0.5684480000000  0.5226560000000  0.5431850000000 1.0
C      1  0.5714720000000  0.5466830000000  0.5240210000000 1.0
C      1  0.5821290000000  0.5538710000000  0.4991230000000 1.0
C      1  0.5401850000000  0.5270690000000  0.4549800000000 1.0
C      1  0.5248630000000  0.5042800000000  0.4505720000000 1.0
C      1  0.5377270000000  0.4802610000000  0.4554770000000 1.0
C      1  0.5398930000000  0.4562300000000  0.4747670000000 1.0
C      1  0.5245600000000  0.4501740000000  0.4971850000000 1.0
C      1  0.5375360000000  0.4528350000000  0.5216200000000 1.0
C      1  0.5401830000000  0.4729580000000  0.5450360000000 1.0
C      1  0.5248450000000  0.4957370000000  0.5494380000000 1.0
C      1  0.5376950000000  0.5197630000000  0.5445390000000 1.0
C      1  0.5398550000000  0.5437960000000  0.5252500000000 1.0
C      1  0.5245270000000  0.5498420000000  0.5028250000000 1.0
C      1  0.5375140000000  0.5471890000000  0.4783960000000 1.0
C      1  0.4858120000000  0.4477350000000  0.5308350000000 1.0
C      1  0.4750140000000  0.4762480000000  0.5413260000000 1.0
C      1  0.4960170000000  0.4979090000000  0.5531220000000 1.0
C      1  0.4864720000000  0.5296330000000  0.5537180000000 1.0
C      1  0.4778560000000  0.5402890000000  0.5249050000000 1.0
C      1  0.4952570000000  0.5525260000000  0.5011400000000 1.0
C      1  0.4857910000000  0.5522560000000  0.4691590000000 1.0
C      1  0.4750150000000  0.5237360000000  0.4586640000000 1.0
C      1  0.4960380000000  0.5020880000000  0.4468760000000 1.0
C      1  0.4865130000000  0.4703580000000  0.4462770000000 1.0
C      1  0.4778920000000  0.4596960000000  0.4750860000000 1.0
C      1  0.4952910000000  0.4474710000000  0.4988580000000 1.0
C      1  0.4416990000000  0.5283060000000  0.4533970000000 1.0
C      1  0.4427210000000  0.4983420000000  0.4475380000000 1.0
C      1  0.4308740000000  0.4778730000000  0.4606890000000 1.0
C      1  0.4452640000000  0.4540140000000  0.4743430000000 1.0
C      1  0.4422820000000  0.4447020000000  0.5027280000000 1.0
C      1  0.4287600000000  0.4567480000000  0.5228410000000 1.0
C      1  0.4416980000000  0.4716570000000  0.5465780000000 1.0
C      1  0.4426980000000  0.5016210000000  0.5524380000000 1.0
C      1  0.4308440000000  0.5220820000000  0.5392820000000 1.0
C      1  0.4452230000000  0.5459510000000  0.5256340000000 1.0
C      1  0.4422470000000  0.5552610000000  0.4972480000000 1.0
C      1  0.4287410000000  0.5432060000000  0.4771290000000 1.0
C      1  0.4559870000000  0.5473760000000  0.4315100000000 1.0
C      1  0.4663860000000  0.4927160000000  0.4334070000000 1.0
C      1  0.4780180000000  0.4402980000000  0.4401840000000 1.0
C      1  0.4576560000000  0.4325470000000  0.4533950000000 1.0
C      1  0.4668230000000  0.4320120000000  0.5094550000000 1.0
C      1  0.4777890000000  0.4416610000000  0.5611050000000 1.0
C      1  0.4559900000000  0.4525950000000  0.5684710000000 1.0
C      1  0.4663540000000  0.5072620000000  0.5665790000000 1.0
C      1  0.4779550000000  0.5596870000000  0.5598070000000 1.0
C      1  0.4575920000000  0.5674250000000  0.5465870000000 1.0
C      1  0.4667830000000  0.5679660000000  0.4905310000000 1.0
C      1  0.4777770000000  0.5583240000000  0.4388860000000 1.0
END
