TITL C-26736-6558-146 -0.000599725887032766 125000 -343.742802803385 0 0 60 (C1) n - 1
REM
REM in /home/nfs/bkarasulu/CARBON/AIRSS/Generating-Clusters/AIREBO/Higher-Symm/Only-C60
REM
REM
REM
REM
REM
REM ./C.cell (28575a23ae977d3b5fae324c64b13b57)
REM
REM compiler GCC version 9.2.1 20190827 (Red Hat 9.2.1-1)
REM options -cpp -mtune=generic -march=x86-64 -g -O0 -fpre-include=/usr/include/finclude/math-vector-fortran.h
REM seed -816611529 1360661328 666798060 1695637507 -277140080 -762735806 -1995267557 1333451078 -1327065471 1406218188 625694016 -195051167 -1512395073 1390644739 -1741587290 1416439313 480924617 415209929 -1246296476 2147033022 1340579517 -753929579 1988289839 -1219965209 994440755 -1486295473 -209554928 1972615009 2055808148 -1213408306 -1742477692 1136016924 -1692943784
REM
CELL 1.54180   50.00000   50.00000   50.00000   90.00000   90.00000   90.00000
LATT -1
SFAC C  
C      1  0.5217620000000  0.4072450000000  0.5273190000000 1.0
C      1  0.5295800000000  0.3879240000000  0.5077820000000 1.0
C      1  0.5120530000000  0.3825840000000  0.4865620000000 1.0
C      1  0.4881590000000  0.3981140000000  0.4844710000000 1.0
C      1  0.4737390000000  0.4011520000000  0.5096270000000 1.0
C      1  0.4919720000000  0.4060030000000  0.5353560000000 1.0
C      1  0.4710950000000  0.4419630000000  0.4887320000000 1.0
C      1  0.4786070000000  0.4335170000000  0.5188440000000 1.0
C      1  0.5125720000000  0.4354280000000  0.5183610000000 1.0
C      1  0.5231820000000  0.4489770000000  0.4960830000000 1.0
C      1  0.5151660000000  0.4370270000000  0.4715260000000 1.0
C      1  0.4891010000000  0.4248490000000  0.4728610000000 1.0
C      1  0.5266110000000  0.5459110000000  0.4933800000000 1.0
C      1  0.5103640000000  0.5270940000000  0.4748810000000 1.0
C      1  0.4811520000000  0.5374000000000  0.4796090000000 1.0
C      1  0.4717040000000  0.5377730000000  0.5062600000000 1.0
C      1  0.4876490000000  0.5460090000000  0.5275290000000 1.0
C      1  0.5180210000000  0.5450480000000  0.5214440000000 1.0
C      1  0.4874530000000  0.4838400000000  0.4759020000000 1.0
C      1  0.4653810000000  0.4683030000000  0.4826200000000 1.0
C      1  0.5118060000000  0.5144700000000  0.5319570000000 1.0
C      1  0.5135500000000  0.4924910000000  0.5211240000000 1.0
C      1  0.5312930000000  0.4779870000000  0.4989590000000 1.0
C      1  0.5104940000000  0.4969920000000  0.4816210000000 1.0
C      1  0.5707180000000  0.5175760000000  0.3890740000000 1.0
C      1  0.4402990000000  0.5741630000000  0.4191360000000 1.0
C      1  0.4156810000000  0.4613500000000  0.5052800000000 1.0
C      1  0.4413480000000  0.5593890000000  0.6117790000000 1.0
C      1  0.5559150000000  0.4950310000000  0.5594890000000 1.0
C      1  0.5784590000000  0.4661420000000  0.4904550000000 1.0
C      1  0.4112740000000  0.4640020000000  0.4755050000000 1.0
C      1  0.4183150000000  0.5379280000000  0.6055700000000 1.0
C      1  0.5403940000000  0.5027890000000  0.6047690000000 1.0
C      1  0.5634560000000  0.4789750000000  0.5392500000000 1.0
C      1  0.5895760000000  0.5221570000000  0.4142950000000 1.0
C      1  0.4545260000000  0.5419490000000  0.3877300000000 1.0
C      1  0.4373490000000  0.5094460000000  0.4901720000000 1.0
C      1  0.4539920000000  0.5366000000000  0.5603660000000 1.0
C      1  0.5291050000000  0.5326190000000  0.5680520000000 1.0
C      1  0.5701540000000  0.5101500000000  0.5152030000000 1.0
C      1  0.5451630000000  0.5378190000000  0.4393460000000 1.0
C      1  0.4711300000000  0.5403940000000  0.4322980000000 1.0
C      1  0.4421870000000  0.5425680000000  0.5838740000000 1.0
C      1  0.5415580000000  0.5094910000000  0.5787570000000 1.0
C      1  0.5606420000000  0.4804450000000  0.5064760000000 1.0
C      1  0.5573910000000  0.5286220000000  0.4167950000000 1.0
C      1  0.4549850000000  0.5524210000000  0.4126430000000 1.0
C      1  0.4385930000000  0.4799190000000  0.4880140000000 1.0
C      1  0.5580640000000  0.5549360000000  0.4576950000000 1.0
C      1  0.4973950000000  0.5317870000000  0.4275040000000 1.0
C      1  0.4378290000000  0.5242280000000  0.4661900000000 1.0
C      1  0.4403530000000  0.5239720000000  0.5390880000000 1.0
C      1  0.5027400000000  0.5417330000000  0.5725590000000 1.0
C      1  0.5629670000000  0.5284640000000  0.5336050000000 1.0
C      1  0.5398100000000  0.5406190000000  0.5432710000000 1.0
C      1  0.5463370000000  0.5600010000000  0.4819800000000 1.0
C      1  0.5185700000000  0.5321400000000  0.4455860000000 1.0
C      1  0.4623400000000  0.5358990000000  0.4586480000000 1.0
C      1  0.4480320000000  0.5232380000000  0.5121320000000 1.0
C      1  0.4808860000000  0.5429350000000  0.5546070000000 1.0
END
