TITL C-26738-6379-107 0.000730507936703209 125000 -321.42525298323 0 0 60 (C1) n - 1
REM
REM in /home/nfs/bkarasulu/CARBON/AIRSS/Generating-Clusters/AIREBO/Higher-Symm/Only-C60
REM
REM
REM
REM
REM
REM ./C.cell (28575a23ae977d3b5fae324c64b13b57)
REM
REM compiler GCC version 9.2.1 20190827 (Red Hat 9.2.1-1)
REM options -cpp -mtune=generic -march=x86-64 -g -O0 -fpre-include=/usr/include/finclude/math-vector-fortran.h
REM seed 949004669 1744406198 734889259 -2086422204 1885518823 -1000479737 -1046851687 -209458874 -15806830 1107715562 1935436106 629682654 -1764814799 1653708419 -74469937 -1181011228 1396247253 1721960502 -1077583717 -413372047 1758142597 1806176923 680535769 -354347982 -1163043262 1106974546 -929416974 1237128882 943250345 1597053239 -1517667711 1948591838 -1608793160
REM
CELL 1.54180   50.00000   50.00000   50.00000   90.00000   90.00000   90.00000
LATT -1
SFAC C  
C      1  0.5648420000000  0.4962820000000  0.4965590000000 1.0
C      1  0.4964490000000  0.5160220000000  0.4304780000000 1.0
C      1  0.4294860000000  0.4630620000000  0.4746720000000 1.0
C      1  0.5173800000000  0.5161990000000  0.5001410000000 1.0
C      1  0.4884990000000  0.4853140000000  0.4318740000000 1.0
C      1  0.5021560000000  0.4908850000000  0.5619790000000 1.0
C      1  0.5167370000000  0.4675870000000  0.5516880000000 1.0
C      1  0.4832210000000  0.5184380000000  0.4796270000000 1.0
C      1  0.5003670000000  0.5463050000000  0.5514040000000 1.0
C      1  0.4475370000000  0.5261220000000  0.5148360000000 1.0
C      1  0.4428850000000  0.5580490000000  0.5253370000000 1.0
C      1  0.5668410000000  0.4773090000000  0.4539130000000 1.0
C      1  0.4899840000000  0.5743550000000  0.5350500000000 1.0
C      1  0.4976520000000  0.4662880000000  0.4500140000000 1.0
C      1  0.4552470000000  0.5135800000000  0.4874710000000 1.0
C      1  0.5069650000000  0.4546590000000  0.5217960000000 1.0
C      1  0.4826590000000  0.4187920000000  0.4799470000000 1.0
C      1  0.4490400000000  0.5537280000000  0.4947290000000 1.0
C      1  0.4847430000000  0.4891670000000  0.5336250000000 1.0
C      1  0.4929010000000  0.4145400000000  0.5050640000000 1.0
C      1  0.5802090000000  0.4810860000000  0.4791390000000 1.0
C      1  0.4363950000000  0.4643520000000  0.5206800000000 1.0
C      1  0.4703710000000  0.5655690000000  0.4824070000000 1.0
C      1  0.4963010000000  0.5403420000000  0.4991420000000 1.0
C      1  0.5500400000000  0.4540170000000  0.4447690000000 1.0
C      1  0.5126420000000  0.5622400000000  0.4592290000000 1.0
C      1  0.4642180000000  0.4377550000000  0.5525200000000 1.0
C      1  0.4701350000000  0.5345330000000  0.5569520000000 1.0
C      1  0.5449900000000  0.5018100000000  0.4535420000000 1.0
C      1  0.4608350000000  0.5118940000000  0.5388080000000 1.0
C      1  0.5280240000000  0.4737070000000  0.4624090000000 1.0
C      1  0.4605580000000  0.4633090000000  0.4889050000000 1.0
C      1  0.4685130000000  0.4644110000000  0.5200880000000 1.0
C      1  0.4493880000000  0.4596790000000  0.5581910000000 1.0
C      1  0.5090320000000  0.5191940000000  0.5704700000000 1.0
C      1  0.5054130000000  0.5289830000000  0.4585430000000 1.0
C      1  0.5066620000000  0.4948300000000  0.4792100000000 1.0
C      1  0.5169300000000  0.4978070000000  0.5255270000000 1.0
C      1  0.4515660000000  0.4862630000000  0.5557420000000 1.0
C      1  0.5368180000000  0.5397690000000  0.4624250000000 1.0
C      1  0.5373890000000  0.4303430000000  0.5077340000000 1.0
C      1  0.4760240000000  0.5428960000000  0.4354360000000 1.0
C      1  0.4810670000000  0.5604610000000  0.4568560000000 1.0
C      1  0.5524410000000  0.5200020000000  0.4812940000000 1.0
C      1  0.4816600000000  0.4484280000000  0.4714440000000 1.0
C      1  0.4944070000000  0.5715720000000  0.5050990000000 1.0
C      1  0.5396930000000  0.4542060000000  0.5312220000000 1.0
C      1  0.4640870000000  0.5614560000000  0.5446180000000 1.0
C      1  0.5224180000000  0.5679810000000  0.4889020000000 1.0
C      1  0.5206160000000  0.4094210000000  0.5073850000000 1.0
C      1  0.5434320000000  0.4813270000000  0.5120300000000 1.0
C      1  0.5012330000000  0.4651760000000  0.4906790000000 1.0
C      1  0.5665040000000  0.5555600000000  0.5062900000000 1.0
C      1  0.5272960000000  0.5175630000000  0.5461680000000 1.0
C      1  0.4822720000000  0.4340180000000  0.5266790000000 1.0
C      1  0.5384520000000  0.5428230000000  0.5022750000000 1.0
C      1  0.5300070000000  0.5160160000000  0.4299610000000 1.0
C      1  0.5294810000000  0.5445460000000  0.5338980000000 1.0
C      1  0.5333850000000  0.4578640000000  0.4920150000000 1.0
C      1  0.4435060000000  0.4901050000000  0.4811160000000 1.0
END
