TITL C-26731-8310-94 0.0021856230304041 125000 -317.528923549871 0 0 60 (C1) n - 1
REM
REM in /home/nfs/bkarasulu/CARBON/AIRSS/Generating-Clusters/AIREBO/Higher-Symm/Only-C60
REM
REM
REM
REM
REM
REM ./C.cell (28575a23ae977d3b5fae324c64b13b57)
REM
REM compiler GCC version 9.2.1 20190827 (Red Hat 9.2.1-1)
REM options -cpp -mtune=generic -march=x86-64 -g -O0 -fpre-include=/usr/include/finclude/math-vector-fortran.h
REM seed -754327795 694079258 -1547997963 957953377 -1143281243 1610095374 838823150 1080666651 998369951 57679450 1084590003 -569980202 498330236 1779813979 2023598105 -1095554172 -1087190695 29337063 -2122426320 -1735019696 1924900747 -556149363 -1240928073 -479121868 -973765609 -327650671 -261350615 997054220 1419766651 1846914540 2135087579 438262939 -1337125951
REM
CELL 1.54180   50.00000   50.00000   50.00000   90.00000   90.00000   90.00000
LATT -1
SFAC C  
C      1  0.5195870000000  0.5488950000000  0.4763120000000 1.0
C      1  0.5276300000000  0.4971480000000  0.5533870000000 1.0
C      1  0.5220490000000  0.4469670000000  0.4672160000000 1.0
C      1  0.5311750000000  0.4654110000000  0.5473850000000 1.0
C      1  0.5363510000000  0.4722730000000  0.4518090000000 1.0
C      1  0.5300780000000  0.5575150000000  0.5054300000000 1.0
C      1  0.5000160000000  0.4438930000000  0.5201810000000 1.0
C      1  0.5094110000000  0.5101660000000  0.4392990000000 1.0
C      1  0.4973010000000  0.5486560000000  0.5457400000000 1.0
C      1  0.4973790000000  0.4668240000000  0.4970890000000 1.0
C      1  0.4960480000000  0.5175500000000  0.4683910000000 1.0
C      1  0.4972300000000  0.5232940000000  0.5230930000000 1.0
C      1  0.5681220000000  0.5115910000000  0.5258650000000 1.0
C      1  0.5614500000000  0.4692130000000  0.5023590000000 1.0
C      1  0.5629430000000  0.5143840000000  0.4752590000000 1.0
C      1  0.4149450000000  0.5374800000000  0.4671090000000 1.0
C      1  0.4181000000000  0.5081790000000  0.5496350000000 1.0
C      1  0.4197540000000  0.4535120000000  0.4793510000000 1.0
C      1  0.5517160000000  0.5374360000000  0.5206680000000 1.0
C      1  0.5586430000000  0.4644360000000  0.5332540000000 1.0
C      1  0.5634870000000  0.4913890000000  0.4542570000000 1.0
C      1  0.5297780000000  0.5193100000000  0.4723030000000 1.0
C      1  0.5281980000000  0.5133230000000  0.5253380000000 1.0
C      1  0.5304420000000  0.4663560000000  0.4915320000000 1.0
C      1  0.4652610000000  0.5270210000000  0.5343080000000 1.0
C      1  0.4659320000000  0.4566270000000  0.5036690000000 1.0
C      1  0.4634910000000  0.5184350000000  0.4586230000000 1.0
C      1  0.4638760000000  0.4544820000000  0.5352620000000 1.0
C      1  0.4606160000000  0.4918400000000  0.4405380000000 1.0
C      1  0.4557880000000  0.5550520000000  0.5214680000000 1.0
C      1  0.5119910000000  0.4824590000000  0.4366240000000 1.0
C      1  0.5040060000000  0.5625640000000  0.5198250000000 1.0
C      1  0.5058890000000  0.4542640000000  0.5446010000000 1.0
C      1  0.4834780000000  0.4750310000000  0.5542090000000 1.0
C      1  0.4852140000000  0.4694400000000  0.4457360000000 1.0
C      1  0.4800560000000  0.5629150000000  0.5000170000000 1.0
C      1  0.4394270000000  0.5072370000000  0.5281480000000 1.0
C      1  0.4406200000000  0.4725380000000  0.4907310000000 1.0
C      1  0.4376250000000  0.5210740000000  0.4787030000000 1.0
C      1  0.4759930000000  0.5483490000000  0.4530200000000 1.0
C      1  0.4856990000000  0.5238170000000  0.5612700000000 1.0
C      1  0.4775500000000  0.4360120000000  0.4811420000000 1.0
C      1  0.4662100000000  0.4809440000000  0.4720090000000 1.0
C      1  0.4618690000000  0.5342820000000  0.4952440000000 1.0
C      1  0.4643530000000  0.4874560000000  0.5290280000000 1.0
C      1  0.4992000000000  0.4994340000000  0.5639940000000 1.0
C      1  0.4943980000000  0.4445670000000  0.4616410000000 1.0
C      1  0.4929150000000  0.5575090000000  0.4722220000000 1.0
C      1  0.5634830000000  0.4621340000000  0.4697690000000 1.0
C      1  0.5566230000000  0.5440920000000  0.4882850000000 1.0
C      1  0.5591360000000  0.4933800000000  0.5448410000000 1.0
C      1  0.6069340000000  0.4955780000000  0.4960910000000 1.0
C      1  0.3719930000000  0.4964110000000  0.5011320000000 1.0
C      1  0.3974560000000  0.4978920000000  0.5004280000000 1.0
C      1  0.6323200000000  0.4955830000000  0.4934820000000 1.0
C      1  0.4281200000000  0.4996630000000  0.4995920000000 1.0
C      1  0.5342160000000  0.4982550000000  0.4976900000000 1.0
C      1  0.4679280000000  0.5016850000000  0.4989030000000 1.0
C      1  0.5009050000000  0.5007480000000  0.4977460000000 1.0
C      1  0.5767440000000  0.4983860000000  0.4993170000000 1.0
END
