TITL C-26741-8371-160 -1.46989724681215e-05 125000 -301.452495899611 0 0 60 (Ci) n - 1
REM
REM in /home/nfs/bkarasulu/CARBON/AIRSS/Generating-Clusters/AIREBO/Higher-Symm/Only-C60
REM
REM
REM
REM
REM
REM ./C.cell (28575a23ae977d3b5fae324c64b13b57)
REM
REM compiler GCC version 9.2.1 20190827 (Red Hat 9.2.1-1)
REM options -cpp -mtune=generic -march=x86-64 -g -O0 -fpre-include=/usr/include/finclude/math-vector-fortran.h
REM seed 1361114202 1232071387 102082740 888773669 1758032958 -1061630419 -1784144766 348922529 -125186584 606307416 740591749 173705933 -1552061862 573736590 -1131065801 1581234197 1579396514 59445432 -1544400411 -1527233941 528089601 1357346047 -64768120 -26629920 1096530438 -1560829601 -499180035 2108660208 1555917175 939082107 199708498 60540398 -86855782
REM
CELL 1.54180   50.00000   50.00000   50.00000   90.00000   90.00000   90.00000
LATT -1
SFAC C  
C      1  0.5216940000000  0.4581020000000  0.5510140000000 1.0
C      1  0.4768870000000  0.4956780000000  0.5653490000000 1.0
C      1  0.5210850000000  0.5356870000000  0.5549050000000 1.0
C      1  0.4776010000000  0.5666880000000  0.5220350000000 1.0
C      1  0.5222610000000  0.5653250000000  0.4829310000000 1.0
C      1  0.4782850000000  0.5418910000000  0.4490700000000 1.0
C      1  0.5230530000000  0.5044320000000  0.4344380000000 1.0
C      1  0.4790920000000  0.4644250000000  0.4451030000000 1.0
C      1  0.5224040000000  0.4332550000000  0.4779960000000 1.0
C      1  0.4777330000000  0.4346320000000  0.5170550000000 1.0
C      1  0.5345030000000  0.4522210000000  0.5208160000000 1.0
C      1  0.4640020000000  0.4725180000000  0.5453530000000 1.0
C      1  0.5327300000000  0.5050300000000  0.5500600000000 1.0
C      1  0.4656730000000  0.5370640000000  0.5330940000000 1.0
C      1  0.5340270000000  0.5516330000000  0.5112070000000 1.0
C      1  0.4654890000000  0.5477430000000  0.4792750000000 1.0
C      1  0.5359730000000  0.5274030000000  0.4546440000000 1.0
C      1  0.4672910000000  0.4950530000000  0.4499580000000 1.0
C      1  0.5342530000000  0.4628450000000  0.4670130000000 1.0
C      1  0.4659990000000  0.4483540000000  0.4887700000000 1.0
C      1  0.5578400000000  0.5281370000000  0.5049730000000 1.0
C      1  0.4432050000000  0.5232460000000  0.4872130000000 1.0
C      1  0.5565550000000  0.5134740000000  0.4779050000000 1.0
C      1  0.4419580000000  0.4940940000000  0.4726450000000 1.0
C      1  0.5557710000000  0.4838700000000  0.4828800000000 1.0
C      1  0.4421470000000  0.4718150000000  0.4949870000000 1.0
C      1  0.5567890000000  0.4767120000000  0.5128600000000 1.0
C      1  0.4434380000000  0.4864530000000  0.5220790000000 1.0
C      1  0.5580460000000  0.5059150000000  0.5273500000000 1.0
C      1  0.4441860000000  0.5160720000000  0.5171400000000 1.0
C      1  0.4939470000000  0.4582620000000  0.5529700000000 1.0
C      1  0.5043360000000  0.4950650000000  0.5659230000000 1.0
C      1  0.4932890000000  0.5393920000000  0.5531300000000 1.0
C      1  0.5051520000000  0.5665660000000  0.5212440000000 1.0
C      1  0.4945250000000  0.5653390000000  0.4815620000000 1.0
C      1  0.5060260000000  0.5417050000000  0.4471190000000 1.0
C      1  0.4955990000000  0.5050780000000  0.4339790000000 1.0
C      1  0.5069340000000  0.4607960000000  0.4468450000000 1.0
C      1  0.4948520000000  0.4333740000000  0.4787380000000 1.0
C      1  0.5054680000000  0.4346310000000  0.5184800000000 1.0
C      1  0.5394090000000  0.5599500000000  0.4620150000000 1.0
C      1  0.4609390000000  0.5249370000000  0.4352270000000 1.0
C      1  0.5326410000000  0.4782920000000  0.4359860000000 1.0
C      1  0.4615170000000  0.4461260000000  0.4560510000000 1.0
C      1  0.5397270000000  0.4263600000000  0.4993630000000 1.0
C      1  0.4605580000000  0.4399920000000  0.5379560000000 1.0
C      1  0.5389640000000  0.4751420000000  0.5647970000000 1.0
C      1  0.4672790000000  0.5217720000000  0.5634260000000 1.0
C      1  0.5386780000000  0.5539350000000  0.5438860000000 1.0
C      1  0.4602230000000  0.5736170000000  0.5007030000000 1.0
C      1  0.5212630000000  0.4929220000000  0.5204240000000 1.0
C      1  0.4939240000000  0.5102890000000  0.5257360000000 1.0
C      1  0.5184750000000  0.5231930000000  0.5074460000000 1.0
C      1  0.4794850000000  0.5285960000000  0.5031880000000 1.0
C      1  0.5169200000000  0.5176000000000  0.4786750000000 1.0
C      1  0.4787370000000  0.5070630000000  0.4796430000000 1.0
C      1  0.5060730000000  0.4896880000000  0.4744310000000 1.0
C      1  0.4815130000000  0.4768020000000  0.4926280000000 1.0
C      1  0.5204970000000  0.4713770000000  0.4969260000000 1.0
C      1  0.4830820000000  0.4823700000000  0.5213880000000 1.0
END
