TITL C-26736-6558-171 0.00258560610140347 125000 -343.999741092055 0 0 60 (C1) n - 1
REM
REM in /home/nfs/bkarasulu/CARBON/AIRSS/Generating-Clusters/AIREBO/Higher-Symm/Only-C60
REM
REM
REM
REM
REM
REM ./C.cell (28575a23ae977d3b5fae324c64b13b57)
REM
REM compiler GCC version 9.2.1 20190827 (Red Hat 9.2.1-1)
REM options -cpp -mtune=generic -march=x86-64 -g -O0 -fpre-include=/usr/include/finclude/math-vector-fortran.h
REM seed 1108663927 -697565177 535651607 73447056 -2141428546 248461381 -1326684890 319616560 -1840510635 213672205 1498408583 -506176626 1294008510 -990836840 -769288031 -1478208249 84856051 1131260364 763350281 984959859 276957106 -661129982 1922931269 -2117759938 478752141 331664509 1096879793 1138779061 -1995347802 -2064040655 1536357509 -2022045705 985988631
REM
CELL 1.54180   50.00000   50.00000   50.00000   90.00000   90.00000   90.00000
LATT -1
SFAC C  
C      1  0.4890660000000  0.5026470000000  0.5349780000000 1.0
C      1  0.5140630000000  0.5068670000000  0.5123750000000 1.0
C      1  0.5436660000000  0.5044860000000  0.5013760000000 1.0
C      1  0.5362510000000  0.5073440000000  0.4677180000000 1.0
C      1  0.5022380000000  0.5082230000000  0.4671800000000 1.0
C      1  0.4738950000000  0.4985660000000  0.4833290000000 1.0
C      1  0.4623280000000  0.5019120000000  0.5144050000000 1.0
C      1  0.5255200000000  0.5649920000000  0.5085200000000 1.0
C      1  0.5277310000000  0.5636940000000  0.4811470000000 1.0
C      1  0.5041910000000  0.5588930000000  0.4617910000000 1.0
C      1  0.4756450000000  0.5673660000000  0.4711640000000 1.0
C      1  0.4662840000000  0.5637630000000  0.4972880000000 1.0
C      1  0.4779610000000  0.5638130000000  0.5223200000000 1.0
C      1  0.5049870000000  0.5681140000000  0.5281280000000 1.0
C      1  0.4514020000000  0.4716160000000  0.5160840000000 1.0
C      1  0.4886350000000  0.4744000000000  0.5468750000000 1.0
C      1  0.5293490000000  0.4610320000000  0.5755570000000 1.0
C      1  0.5498790000000  0.4734870000000  0.5040280000000 1.0
C      1  0.5458720000000  0.4816550000000  0.4536890000000 1.0
C      1  0.5028840000000  0.4769160000000  0.4534650000000 1.0
C      1  0.4581820000000  0.4775520000000  0.4688770000000 1.0
C      1  0.4075140000000  0.5481330000000  0.4853990000000 1.0
C      1  0.4315080000000  0.5358840000000  0.5485150000000 1.0
C      1  0.5011580000000  0.5404550000000  0.5684810000000 1.0
C      1  0.5674530000000  0.5388240000000  0.5475490000000 1.0
C      1  0.5722100000000  0.5458370000000  0.4915940000000 1.0
C      1  0.5397500000000  0.5395050000000  0.4289080000000 1.0
C      1  0.4648110000000  0.5380880000000  0.4359260000000 1.0
C      1  0.4539810000000  0.4345380000000  0.4832470000000 1.0
C      1  0.4809050000000  0.4330510000000  0.5273680000000 1.0
C      1  0.5069630000000  0.4300480000000  0.5377600000000 1.0
C      1  0.5267630000000  0.4240800000000  0.5153570000000 1.0
C      1  0.5232070000000  0.4160590000000  0.4886650000000 1.0
C      1  0.5134500000000  0.4293300000000  0.4668260000000 1.0
C      1  0.4818340000000  0.4323660000000  0.4633520000000 1.0
C      1  0.5152880000000  0.5610290000000  0.5551730000000 1.0
C      1  0.5504090000000  0.5562100000000  0.5233180000000 1.0
C      1  0.5526730000000  0.5525550000000  0.4722010000000 1.0
C      1  0.5150610000000  0.5503450000000  0.4307300000000 1.0
C      1  0.4549240000000  0.5590110000000  0.4525750000000 1.0
C      1  0.4393000000000  0.5460840000000  0.4978820000000 1.0
C      1  0.4635820000000  0.5439460000000  0.5404660000000 1.0
C      1  0.4313680000000  0.5561630000000  0.4670930000000 1.0
C      1  0.4442740000000  0.5260770000000  0.5200680000000 1.0
C      1  0.4839630000000  0.5263140000000  0.5533450000000 1.0
C      1  0.5436350000000  0.5589550000000  0.5551420000000 1.0
C      1  0.5618660000000  0.5266230000000  0.5117910000000 1.0
C      1  0.5490380000000  0.5315190000000  0.4540360000000 1.0
C      1  0.4935180000000  0.5309540000000  0.4453790000000 1.0
C      1  0.4453590000000  0.4614540000000  0.4892470000000 1.0
C      1  0.4680650000000  0.4574390000000  0.5358060000000 1.0
C      1  0.5158110000000  0.4588480000000  0.5517000000000 1.0
C      1  0.5306160000000  0.4572780000000  0.5211180000000 1.0
C      1  0.5540800000000  0.4624710000000  0.4781030000000 1.0
C      1  0.5265710000000  0.4554880000000  0.4605920000000 1.0
C      1  0.4774700000000  0.4631610000000  0.4535900000000 1.0
C      1  0.4963950000000  0.4842040000000  0.5003040000000 1.0
C      1  0.5025740000000  0.5305510000000  0.4928330000000 1.0
C      1  0.5023100000000  0.4595100000000  0.5064320000000 1.0
C      1  0.4835230000000  0.4344160000000  0.4968200000000 1.0
END
