TITL C-26732-6566-115 0.00125465568442405 125000 -307.212120449628 0 0 60 (C2) n - 1
REM
REM in /home/nfs/bkarasulu/CARBON/AIRSS/Generating-Clusters/AIREBO/Higher-Symm/Only-C60
REM
REM
REM
REM
REM
REM ./C.cell (28575a23ae977d3b5fae324c64b13b57)
REM
REM compiler GCC version 9.2.1 20190827 (Red Hat 9.2.1-1)
REM options -cpp -mtune=generic -march=x86-64 -g -O0 -fpre-include=/usr/include/finclude/math-vector-fortran.h
REM seed 59027108 -814452640 -830169095 -1770141625 -978992662 2124925544 615078325 404398190 -1219311021 1193011692 -137713415 1244390035 1225827067 1782164835 1889773145 1875668533 112349413 -880723115 1573144023 1463184315 -1392703251 1701301902 -1093147332 1255113723 524175613 1267144186 -2028859998 484832675 489737101 -201571566 -794287686 115795692 -1350068268
REM
CELL 1.54180   50.00000   50.00000   50.00000   90.00000   90.00000   90.00000
LATT -1
SFAC C  
C      1  0.4956010000000  0.5688100000000  0.5193320000000 1.0
C      1  0.4981590000000  0.5696540000000  0.4766700000000 1.0
C      1  0.5018450000000  0.4303480000000  0.4766550000000 1.0
C      1  0.5044010000000  0.4311810000000  0.5193200000000 1.0
C      1  0.5231660000000  0.5667960000000  0.4995290000000 1.0
C      1  0.4714530000000  0.5758740000000  0.4968900000000 1.0
C      1  0.4768390000000  0.4332030000000  0.4995150000000 1.0
C      1  0.5285500000000  0.4241270000000  0.4968740000000 1.0
C      1  0.4881030000000  0.5084500000000  0.4358420000000 1.0
C      1  0.5129290000000  0.5066910000000  0.5674580000000 1.0
C      1  0.4870750000000  0.4932930000000  0.5674580000000 1.0
C      1  0.5118950000000  0.4915760000000  0.4358390000000 1.0
C      1  0.4363960000000  0.5083990000000  0.4925910000000 1.0
C      1  0.5590080000000  0.5052290000000  0.5185850000000 1.0
C      1  0.5636040000000  0.4916050000000  0.4925890000000 1.0
C      1  0.4409940000000  0.4947660000000  0.5185840000000 1.0
C      1  0.4621010000000  0.5285850000000  0.5177920000000 1.0
C      1  0.5435910000000  0.5223440000000  0.4770480000000 1.0
C      1  0.4564000000000  0.4776570000000  0.4770450000000 1.0
C      1  0.5379000000000  0.4714110000000  0.5177880000000 1.0
C      1  0.5193700000000  0.5254630000000  0.4553340000000 1.0
C      1  0.4843850000000  0.5232890000000  0.5414550000000 1.0
C      1  0.4806190000000  0.4745320000000  0.4553290000000 1.0
C      1  0.5156180000000  0.4766980000000  0.5414550000000 1.0
C      1  0.4454360000000  0.5144990000000  0.5419620000000 1.0
C      1  0.5651500000000  0.5025780000000  0.4621310000000 1.0
C      1  0.4348480000000  0.4974350000000  0.4621310000000 1.0
C      1  0.5545670000000  0.4854910000000  0.5419590000000 1.0
C      1  0.5414930000000  0.5031660000000  0.4423070000000 1.0
C      1  0.4637870000000  0.5124240000000  0.5658190000000 1.0
C      1  0.4585110000000  0.4968500000000  0.4423140000000 1.0
C      1  0.5362180000000  0.4875600000000  0.5658190000000 1.0
C      1  0.4948830000000  0.4358000000000  0.5508420000000 1.0
C      1  0.5174480000000  0.4333430000000  0.4465930000000 1.0
C      1  0.4825520000000  0.5666740000000  0.4466090000000 1.0
C      1  0.5051170000000  0.5641850000000  0.5508520000000 1.0
C      1  0.5560890000000  0.4349990000000  0.4845310000000 1.0
C      1  0.4513020000000  0.4337600000000  0.5198590000000 1.0
C      1  0.4439110000000  0.5650090000000  0.4845490000000 1.0
C      1  0.5487020000000  0.5662370000000  0.5198730000000 1.0
C      1  0.4750100000000  0.5429420000000  0.4944020000000 1.0
C      1  0.5336240000000  0.5347840000000  0.5018150000000 1.0
C      1  0.4663820000000  0.4652170000000  0.5018090000000 1.0
C      1  0.5249890000000  0.4570600000000  0.4943940000000 1.0
C      1  0.4945630000000  0.5367730000000  0.4687680000000 1.0
C      1  0.5085610000000  0.5375110000000  0.5222380000000 1.0
C      1  0.5054330000000  0.4632330000000  0.4687630000000 1.0
C      1  0.4914420000000  0.4624810000000  0.5222340000000 1.0
C      1  0.4697740000000  0.5348140000000  0.4472600000000 1.0
C      1  0.5207480000000  0.5338400000000  0.5537690000000 1.0
C      1  0.4792540000000  0.4661450000000  0.5537650000000 1.0
C      1  0.5302180000000  0.4652060000000  0.4472520000000 1.0
C      1  0.4471530000000  0.5338960000000  0.4727240000000 1.0
C      1  0.5471630000000  0.5342210000000  0.5320690000000 1.0
C      1  0.5528420000000  0.4661150000000  0.4727140000000 1.0
C      1  0.4528400000000  0.4657720000000  0.5320630000000 1.0
C      1  0.5149060000000  0.5052860000000  0.4824700000000 1.0
C      1  0.4858150000000  0.5064220000000  0.5119500000000 1.0
C      1  0.5141850000000  0.4935750000000  0.5119570000000 1.0
C      1  0.4850830000000  0.4947190000000  0.4824570000000 1.0
END
