TITL C-26739-6686-172 0.000626776563882028 125000 -351.84896587485 0 0 60 (C1) n - 1
REM
REM in /home/nfs/bkarasulu/CARBON/AIRSS/Generating-Clusters/AIREBO/Higher-Symm/Only-C60
REM
REM
REM
REM
REM
REM ./C.cell (28575a23ae977d3b5fae324c64b13b57)
REM
REM compiler GCC version 9.2.1 20190827 (Red Hat 9.2.1-1)
REM options -cpp -mtune=generic -march=x86-64 -g -O0 -fpre-include=/usr/include/finclude/math-vector-fortran.h
REM seed 686895957 -571568573 -502624628 -123242785 965825916 1451119071 1244695250 -1378068492 -944079852 -418496116 2074273561 -134898763 -328624706 -789646902 2054788406 1333546875 -26327385 -1383702703 -1039248418 -2083289616 -653934316 594591433 -716589637 321351727 -537148036 -554662967 -1988767287 -24859282 794092651 178952021 1936220519 -71768476 1805571770
REM
CELL 1.54180   50.00000   50.00000   50.00000   90.00000   90.00000   90.00000
LATT -1
SFAC C  
C      1  0.5518620000000  0.4241940000000  0.4665440000000 1.0
C      1  0.4614650000000  0.4333740000000  0.5293010000000 1.0
C      1  0.4518160000000  0.5635140000000  0.4731280000000 1.0
C      1  0.5477680000000  0.5688220000000  0.5267490000000 1.0
C      1  0.4812400000000  0.4380090000000  0.5536920000000 1.0
C      1  0.5417900000000  0.4267320000000  0.4399130000000 1.0
C      1  0.4726120000000  0.5613270000000  0.4538740000000 1.0
C      1  0.5278870000000  0.5706900000000  0.5479360000000 1.0
C      1  0.4685600000000  0.5108740000000  0.4844630000000 1.0
C      1  0.5516500000000  0.4979500000000  0.5157840000000 1.0
C      1  0.5446040000000  0.4992820000000  0.4845890000000 1.0
C      1  0.4671850000000  0.4936320000000  0.5090310000000 1.0
C      1  0.4836110000000  0.4936000000000  0.4590360000000 1.0
C      1  0.5080120000000  0.5086260000000  0.5404470000000 1.0
C      1  0.4750010000000  0.5085340000000  0.5385840000000 1.0
C      1  0.5165190000000  0.4909300000000  0.4672860000000 1.0
C      1  0.4694230000000  0.5407250000000  0.4344320000000 1.0
C      1  0.5306150000000  0.5477670000000  0.5656720000000 1.0
C      1  0.5231130000000  0.4480840000000  0.4378750000000 1.0
C      1  0.4877100000000  0.4653350000000  0.5596320000000 1.0
C      1  0.4314200000000  0.5437750000000  0.4699120000000 1.0
C      1  0.5665450000000  0.5463150000000  0.5305020000000 1.0
C      1  0.4408060000000  0.4525620000000  0.5280120000000 1.0
C      1  0.5567350000000  0.4515340000000  0.4807470000000 1.0
C      1  0.4630330000000  0.5377500000000  0.5424740000000 1.0
C      1  0.5221600000000  0.5410810000000  0.4553570000000 1.0
C      1  0.5121550000000  0.4771320000000  0.5425320000000 1.0
C      1  0.4735220000000  0.4643040000000  0.4528190000000 1.0
C      1  0.5348730000000  0.5267840000000  0.4751000000000 1.0
C      1  0.4476710000000  0.5535880000000  0.5263350000000 1.0
C      1  0.5412590000000  0.4735040000000  0.5272420000000 1.0
C      1  0.4519670000000  0.4538750000000  0.4664240000000 1.0
C      1  0.4636990000000  0.5152560000000  0.4452520000000 1.0
C      1  0.5327230000000  0.5221950000000  0.5528590000000 1.0
C      1  0.5339130000000  0.4736270000000  0.4434870000000 1.0
C      1  0.4660110000000  0.4835010000000  0.5573180000000 1.0
C      1  0.4416740000000  0.5175860000000  0.4660530000000 1.0
C      1  0.5553700000000  0.5195910000000  0.5351070000000 1.0
C      1  0.4488740000000  0.4792350000000  0.5325000000000 1.0
C      1  0.5532000000000  0.4752720000000  0.4665510000000 1.0
C      1  0.5366550000000  0.4501470000000  0.5063880000000 1.0
C      1  0.4581930000000  0.4465290000000  0.4918760000000 1.0
C      1  0.4643850000000  0.5642100000000  0.5020160000000 1.0
C      1  0.5273820000000  0.5392070000000  0.4987090000000 1.0
C      1  0.5071530000000  0.4548240000000  0.5187590000000 1.0
C      1  0.4981880000000  0.4440550000000  0.4549450000000 1.0
C      1  0.4991300000000  0.5584840000000  0.4687840000000 1.0
C      1  0.4913130000000  0.5448890000000  0.5390320000000 1.0
C      1  0.5026300000000  0.4247030000000  0.4804790000000 1.0
C      1  0.4999270000000  0.4258780000000  0.5320640000000 1.0
C      1  0.5099840000000  0.5788640000000  0.4908420000000 1.0
C      1  0.5004920000000  0.5720440000000  0.5372990000000 1.0
C      1  0.4818010000000  0.4256830000000  0.5031420000000 1.0
C      1  0.5300370000000  0.4234180000000  0.4887080000000 1.0
C      1  0.4902030000000  0.5815470000000  0.5113730000000 1.0
C      1  0.5338620000000  0.5667540000000  0.5018710000000 1.0
C      1  0.5029300000000  0.5292810000000  0.5139770000000 1.0
C      1  0.4828910000000  0.5379100000000  0.4908880000000 1.0
C      1  0.4808630000000  0.4656600000000  0.5037390000000 1.0
C      1  0.5019260000000  0.4654430000000  0.4805570000000 1.0
END
