TITL C-26733-8285-31 -0.000565182902762714 125000 -322.446240658223 0 0 60 (C1) n - 1
REM
REM in /home/nfs/bkarasulu/CARBON/AIRSS/Generating-Clusters/AIREBO/Higher-Symm/Only-C60
REM
REM
REM
REM
REM
REM ./C.cell (28575a23ae977d3b5fae324c64b13b57)
REM
REM compiler GCC version 9.2.1 20190827 (Red Hat 9.2.1-1)
REM options -cpp -mtune=generic -march=x86-64 -g -O0 -fpre-include=/usr/include/finclude/math-vector-fortran.h
REM seed -838445402 -1987452462 1529610501 -733305521 -1747395739 1290072148 569926415 -715825342 1428515008 781143976 -448664090 1247971289 -588615889 -1194930992 414283519 782015558 883365415 -227487099 128535591 -1618851849 -88805195 -1809074572 -165892459 1172596197 1336493816 -2006406664 -775504192 1547409253 588282241 -1609111218 -1138962714 -2106477241 -640995243
REM
CELL 1.54180   50.00000   50.00000   50.00000   90.00000   90.00000   90.00000
LATT -1
SFAC C  
C      1  0.5684060000000  0.4708570000000  0.5147160000000 1.0
C      1  0.4300520000000  0.4698400000000  0.4873190000000 1.0
C      1  0.5621330000000  0.5029920000000  0.4640930000000 1.0
C      1  0.4389440000000  0.5034640000000  0.5372700000000 1.0
C      1  0.4796560000000  0.5546290000000  0.4974240000000 1.0
C      1  0.5222390000000  0.5540590000000  0.5018770000000 1.0
C      1  0.4696330000000  0.5575060000000  0.5277880000000 1.0
C      1  0.5330450000000  0.5563190000000  0.4711880000000 1.0
C      1  0.4601500000000  0.4868570000000  0.5066970000000 1.0
C      1  0.5388860000000  0.4866870000000  0.4934360000000 1.0
C      1  0.4529410000000  0.5282660000000  0.5327240000000 1.0
C      1  0.5483190000000  0.5275450000000  0.4678230000000 1.0
C      1  0.5570180000000  0.4904440000000  0.5321830000000 1.0
C      1  0.4410730000000  0.4887110000000  0.4686360000000 1.0
C      1  0.4767970000000  0.5229260000000  0.5093910000000 1.0
C      1  0.5222250000000  0.5225410000000  0.4891170000000 1.0
C      1  0.5085600000000  0.5523050000000  0.5629730000000 1.0
C      1  0.4854740000000  0.5512770000000  0.4390420000000 1.0
C      1  0.5540080000000  0.4578080000000  0.4496930000000 1.0
C      1  0.4448910000000  0.4571320000000  0.5507140000000 1.0
C      1  0.5517560000000  0.4854600000000  0.4449440000000 1.0
C      1  0.4490420000000  0.4848410000000  0.5559870000000 1.0
C      1  0.5145110000000  0.5446620000000  0.4227930000000 1.0
C      1  0.4984090000000  0.5405570000000  0.5871430000000 1.0
C      1  0.5061010000000  0.4421320000000  0.4642630000000 1.0
C      1  0.4940610000000  0.4413560000000  0.5348380000000 1.0
C      1  0.5105660000000  0.5215080000000  0.4473850000000 1.0
C      1  0.4917940000000  0.5134200000000  0.5470610000000 1.0
C      1  0.5519690000000  0.5423790000000  0.5288230000000 1.0
C      1  0.4459650000000  0.5407080000000  0.4699420000000 1.0
C      1  0.5451170000000  0.5143070000000  0.5128780000000 1.0
C      1  0.4533490000000  0.5134700000000  0.4866530000000 1.0
C      1  0.5276300000000  0.5302390000000  0.5482420000000 1.0
C      1  0.4711770000000  0.5257810000000  0.4526910000000 1.0
C      1  0.5243000000000  0.4923980000000  0.4360040000000 1.0
C      1  0.4773320000000  0.4893450000000  0.5642170000000 1.0
C      1  0.4850070000000  0.5175120000000  0.5786700000000 1.0
C      1  0.5122380000000  0.5132690000000  0.4138550000000 1.0
C      1  0.5214030000000  0.4501350000000  0.5228250000000 1.0
C      1  0.4780030000000  0.4494520000000  0.4773760000000 1.0
C      1  0.4614060000000  0.4413740000000  0.5253650000000 1.0
C      1  0.5382840000000  0.4422640000000  0.4747930000000 1.0
C      1  0.5418660000000  0.4552020000000  0.5016030000000 1.0
C      1  0.4578150000000  0.4549000000000  0.4991650000000 1.0
C      1  0.4667910000000  0.4953420000000  0.4539330000000 1.0
C      1  0.5308380000000  0.4975410000000  0.5460050000000 1.0
C      1  0.5141650000000  0.5618500000000  0.4514890000000 1.0
C      1  0.4892020000000  0.5663830000000  0.5470550000000 1.0
C      1  0.4940170000000  0.5343320000000  0.4742280000000 1.0
C      1  0.5056310000000  0.5338980000000  0.5236880000000 1.0
C      1  0.5287730000000  0.4389830000000  0.4391180000000 1.0
C      1  0.4703950000000  0.4361060000000  0.5586790000000 1.0
C      1  0.4902940000000  0.4785790000000  0.4647640000000 1.0
C      1  0.5079520000000  0.4787080000000  0.5357380000000 1.0
C      1  0.5072850000000  0.4920950000000  0.4866680000000 1.0
C      1  0.4911520000000  0.4922880000000  0.5133480000000 1.0
C      1  0.4268390000000  0.4880630000000  0.5137830000000 1.0
C      1  0.5725060000000  0.4874330000000  0.4878000000000 1.0
C      1  0.5087600000000  0.4667520000000  0.4409600000000 1.0
C      1  0.4918490000000  0.4628110000000  0.5611230000000 1.0
END
