TITL C-26736-6558-206 -0.00046535734489441 125000 -317.313190379611 0 0 60 (C1) n - 1
REM
REM in /home/nfs/bkarasulu/CARBON/AIRSS/Generating-Clusters/AIREBO/Higher-Symm/Only-C60
REM
REM
REM
REM
REM
REM ./C.cell (28575a23ae977d3b5fae324c64b13b57)
REM
REM compiler GCC version 9.2.1 20190827 (Red Hat 9.2.1-1)
REM options -cpp -mtune=generic -march=x86-64 -g -O0 -fpre-include=/usr/include/finclude/math-vector-fortran.h
REM seed -401946002 -1282558441 389659545 -1262880930 1359747025 -1971703540 -335573394 1629264570 525335474 -759207621 311064302 -1465147229 -2141063549 1956825416 -199860809 399696727 -178640349 977029604 1523015478 -1334861736 -189216377 -821712346 524280630 -1815672213 818569451 1363931731 -752590148 -867971853 -460316692 950812722 1799698697 -82342753 1502141457
REM
CELL 1.54180   50.00000   50.00000   50.00000   90.00000   90.00000   90.00000
LATT -1
SFAC C  
C      1  0.4766060000000  0.4818660000000  0.5585460000000 1.0
C      1  0.5517370000000  0.4717040000000  0.4534180000000 1.0
C      1  0.5221950000000  0.4177410000000  0.4960170000000 1.0
C      1  0.4867940000000  0.4293920000000  0.4819990000000 1.0
C      1  0.5428200000000  0.5488780000000  0.5571300000000 1.0
C      1  0.4618370000000  0.5427400000000  0.4395180000000 1.0
C      1  0.4820150000000  0.5206090000000  0.5704420000000 1.0
C      1  0.5233410000000  0.5254340000000  0.4301650000000 1.0
C      1  0.4389780000000  0.5123340000000  0.4832390000000 1.0
C      1  0.5502630000000  0.5053240000000  0.5173930000000 1.0
C      1  0.4954730000000  0.5145780000000  0.5098240000000 1.0
C      1  0.4842630000000  0.5109310000000  0.4792080000000 1.0
C      1  0.4564230000000  0.4733140000000  0.4530570000000 1.0
C      1  0.5633280000000  0.4673950000000  0.5512980000000 1.0
C      1  0.5293940000000  0.5027640000000  0.5441650000000 1.0
C      1  0.4593240000000  0.5067140000000  0.4564670000000 1.0
C      1  0.4940840000000  0.4692320000000  0.4265630000000 1.0
C      1  0.5137660000000  0.4801160000000  0.5730160000000 1.0
C      1  0.5359200000000  0.5539940000000  0.5302910000000 1.0
C      1  0.4612680000000  0.5542660000000  0.4661340000000 1.0
C      1  0.5025300000000  0.4595540000000  0.5220140000000 1.0
C      1  0.4992380000000  0.4605880000000  0.4766100000000 1.0
C      1  0.5625320000000  0.5566050000000  0.4857590000000 1.0
C      1  0.4343110000000  0.5584620000000  0.5122640000000 1.0
C      1  0.4410350000000  0.4787540000000  0.4782730000000 1.0
C      1  0.5607030000000  0.4732270000000  0.5240540000000 1.0
C      1  0.4521920000000  0.4603000000000  0.5025380000000 1.0
C      1  0.5519450000000  0.4571030000000  0.5024870000000 1.0
C      1  0.4792390000000  0.4438140000000  0.5068650000000 1.0
C      1  0.5229900000000  0.4486740000000  0.4978530000000 1.0
C      1  0.5409470000000  0.5266570000000  0.4509920000000 1.0
C      1  0.4675630000000  0.5158860000000  0.5400130000000 1.0
C      1  0.5654480000000  0.4925090000000  0.4897790000000 1.0
C      1  0.4280190000000  0.4971160000000  0.5109900000000 1.0
C      1  0.4801660000000  0.4603380000000  0.4484630000000 1.0
C      1  0.4990850000000  0.4625100000000  0.5518760000000 1.0
C      1  0.4895600000000  0.5431270000000  0.5209530000000 1.0
C      1  0.5033070000000  0.5387570000000  0.4780680000000 1.0
C      1  0.5514850000000  0.5023520000000  0.4564380000000 1.0
C      1  0.4511530000000  0.4953890000000  0.5626150000000 1.0
C      1  0.5327050000000  0.4873080000000  0.4848120000000 1.0
C      1  0.4574070000000  0.4974840000000  0.5154490000000 1.0
C      1  0.4775720000000  0.4810740000000  0.4934950000000 1.0
C      1  0.5143250000000  0.4867680000000  0.5065840000000 1.0
C      1  0.4879840000000  0.5609390000000  0.4728060000000 1.0
C      1  0.5092820000000  0.5612690000000  0.5258750000000 1.0
C      1  0.5428430000000  0.4797990000000  0.5653310000000 1.0
C      1  0.4352820000000  0.5130390000000  0.4368400000000 1.0
C      1  0.5319710000000  0.5254550000000  0.5673710000000 1.0
C      1  0.4821380000000  0.5208150000000  0.4355630000000 1.0
C      1  0.5187660000000  0.4795440000000  0.4562080000000 1.0
C      1  0.4978300000000  0.5003810000000  0.5394840000000 1.0
C      1  0.5335740000000  0.5407100000000  0.4772930000000 1.0
C      1  0.4595510000000  0.5446090000000  0.5235710000000 1.0
C      1  0.5474740000000  0.5363480000000  0.5080320000000 1.0
C      1  0.4462850000000  0.5417320000000  0.4885640000000 1.0
C      1  0.5077710000000  0.5093270000000  0.5771090000000 1.0
C      1  0.5050230000000  0.4988490000000  0.4317000000000 1.0
C      1  0.5664270000000  0.4611790000000  0.4767190000000 1.0
C      1  0.4325100000000  0.4523220000000  0.5204040000000 1.0
END
