TITL C-26732-6566-178 -0.000460401282271625 125000 -331.049293185308 0 0 60 (C2) n - 1
REM
REM in /home/nfs/bkarasulu/CARBON/AIRSS/Generating-Clusters/AIREBO/Higher-Symm/Only-C60
REM
REM
REM
REM
REM
REM ./C.cell (28575a23ae977d3b5fae324c64b13b57)
REM
REM compiler GCC version 9.2.1 20190827 (Red Hat 9.2.1-1)
REM options -cpp -mtune=generic -march=x86-64 -g -O0 -fpre-include=/usr/include/finclude/math-vector-fortran.h
REM seed 705889710 1207099618 -743532070 -260447951 1988063518 2077497090 -2130478733 292989803 714783263 -219127514 408717487 1128724624 -1814443094 1324047403 -1424968930 -1678433890 1936690103 262633224 -362460175 225145469 -77258064 -387256856 -103267401 -672821780 1120759996 1318927717 2032511210 1686788242 50337523 -152710185 1048815842 -1064142619 -1861560075
REM
CELL 1.54180   50.00000   50.00000   50.00000   90.00000   90.00000   90.00000
LATT -1
SFAC C  
C      1  0.4709300000000  0.4982800000000  0.5211570000000 1.0
C      1  0.4877040000000  0.5265820000000  0.5165600000000 1.0
C      1  0.5201420000000  0.5173970000000  0.5216500000000 1.0
C      1  0.5207410000000  0.4841240000000  0.5218490000000 1.0
C      1  0.4901450000000  0.4704810000000  0.5172470000000 1.0
C      1  0.4709180000000  0.5017390000000  0.4788490000000 1.0
C      1  0.4876790000000  0.4734310000000  0.4834440000000 1.0
C      1  0.5201250000000  0.4825890000000  0.4783480000000 1.0
C      1  0.5207480000000  0.5158640000000  0.4781470000000 1.0
C      1  0.4901610000000  0.5295230000000  0.4827540000000 1.0
C      1  0.4767380000000  0.5140290000000  0.4216160000000 1.0
C      1  0.5072040000000  0.5275300000000  0.4223450000000 1.0
C      1  0.5296510000000  0.5030690000000  0.4231560000000 1.0
C      1  0.5128900000000  0.4745410000000  0.4231890000000 1.0
C      1  0.4801390000000  0.4813120000000  0.4227800000000 1.0
C      1  0.4767370000000  0.4859860000000  0.5783860000000 1.0
C      1  0.5071970000000  0.4724660000000  0.5776530000000 1.0
C      1  0.5296570000000  0.4969130000000  0.5768400000000 1.0
C      1  0.5129140000000  0.5254510000000  0.5768100000000 1.0
C      1  0.4801580000000  0.5186990000000  0.5772220000000 1.0
C      1  0.4772010000000  0.4483430000000  0.5395730000000 1.0
C      1  0.4443300000000  0.5034900000000  0.5386540000000 1.0
C      1  0.4881300000000  0.5536550000000  0.5371320000000 1.0
C      1  0.5468650000000  0.5278680000000  0.5356710000000 1.0
C      1  0.5410270000000  0.4641310000000  0.5365520000000 1.0
C      1  0.4772300000000  0.5516710000000  0.4604310000000 1.0
C      1  0.4443190000000  0.4965410000000  0.4613440000000 1.0
C      1  0.4880920000000  0.4463550000000  0.4628760000000 1.0
C      1  0.5468410000000  0.4721050000000  0.4643240000000 1.0
C      1  0.5410440000000  0.5358450000000  0.4634420000000 1.0
C      1  0.4282320000000  0.4897540000000  0.4864510000000 1.0
C      1  0.4685630000000  0.5661110000000  0.4859100000000 1.0
C      1  0.5542780000000  0.5509890000000  0.4864420000000 1.0
C      1  0.5658650000000  0.4669030000000  0.4877600000000 1.0
C      1  0.4889830000000  0.4273670000000  0.4867380000000 1.0
C      1  0.4282360000000  0.5102860000000  0.5135570000000 1.0
C      1  0.4685250000000  0.4339060000000  0.5140960000000 1.0
C      1  0.5542490000000  0.4489790000000  0.5135510000000 1.0
C      1  0.5658880000000  0.5330570000000  0.5122310000000 1.0
C      1  0.4890270000000  0.5726360000000  0.5132660000000 1.0
C      1  0.4517600000000  0.5044980000000  0.5654350000000 1.0
C      1  0.4912090000000  0.5468020000000  0.5633510000000 1.0
C      1  0.5437030000000  0.5242750000000  0.5631630000000 1.0
C      1  0.5374220000000  0.4669640000000  0.5639790000000 1.0
C      1  0.4810110000000  0.4557420000000  0.5654440000000 1.0
C      1  0.4517500000000  0.4955300000000  0.4345640000000 1.0
C      1  0.4911740000000  0.4532050000000  0.4366560000000 1.0
C      1  0.5436800000000  0.4757000000000  0.4368330000000 1.0
C      1  0.5374350000000  0.5330150000000  0.4360150000000 1.0
C      1  0.4810310000000  0.5442690000000  0.4345590000000 1.0
C      1  0.5063350000000  0.5570070000000  0.4944020000000 1.0
C      1  0.5493310000000  0.5125850000000  0.4947750000000 1.0
C      1  0.5290980000000  0.4543290000000  0.4953500000000 1.0
C      1  0.4613070000000  0.4549190000000  0.4943270000000 1.0
C      1  0.4490850000000  0.5223590000000  0.4949480000000 1.0
C      1  0.5063010000000  0.4429880000000  0.5056000000000 1.0
C      1  0.5493230000000  0.4873860000000  0.5052170000000 1.0
C      1  0.5291270000000  0.5456530000000  0.5046470000000 1.0
C      1  0.4613350000000  0.5451000000000  0.5056780000000 1.0
C      1  0.4490820000000  0.4776770000000  0.5050550000000 1.0
END
