TITL C-26737-6152-119 -0.000443276093453523 125000 -357.039504578283 0 0 60 (C1) n - 1
REM
REM in /home/nfs/bkarasulu/CARBON/AIRSS/Generating-Clusters/AIREBO/Higher-Symm/Only-C60
REM
REM
REM
REM
REM
REM ./C.cell (28575a23ae977d3b5fae324c64b13b57)
REM
REM compiler GCC version 9.2.1 20190827 (Red Hat 9.2.1-1)
REM options -cpp -mtune=generic -march=x86-64 -g -O0 -fpre-include=/usr/include/finclude/math-vector-fortran.h
REM seed -202497502 -1223735036 1477632954 -1449192229 887198054 -1543253967 -632773607 417530404 -1430211508 1764406148 227634147 152668391 1932663950 -1805092555 2136838000 944889590 -1286513029 786341858 999783923 902708840 -1995271981 145215048 1806780096 -201354725 36317008 -35512021 -359140597 -1414998610 1031030605 204453561 1472461385 -1531263192 -363394674
REM
CELL 1.54180   50.00000   50.00000   50.00000   90.00000   90.00000   90.00000
LATT -1
SFAC C  
C      1  0.4906320000000  0.4752690000000  0.4503360000000 1.0
C      1  0.5412090000000  0.4769350000000  0.4585050000000 1.0
C      1  0.5593990000000  0.4698730000000  0.5168710000000 1.0
C      1  0.5168410000000  0.4687160000000  0.5606990000000 1.0
C      1  0.4586110000000  0.4712470000000  0.5436710000000 1.0
C      1  0.4464020000000  0.4699670000000  0.4786020000000 1.0
C      1  0.4867540000000  0.5276690000000  0.4436530000000 1.0
C      1  0.5480400000000  0.5329970000000  0.4670470000000 1.0
C      1  0.5478860000000  0.5304180000000  0.5183140000000 1.0
C      1  0.5080870000000  0.5270680000000  0.5473700000000 1.0
C      1  0.4579230000000  0.5225550000000  0.5413400000000 1.0
C      1  0.4484850000000  0.5299680000000  0.4919030000000 1.0
C      1  0.5560120000000  0.5176110000000  0.4920600000000 1.0
C      1  0.5355040000000  0.5154950000000  0.5412010000000 1.0
C      1  0.4857540000000  0.5111830000000  0.5469310000000 1.0
C      1  0.4417630000000  0.5094190000000  0.5149760000000 1.0
C      1  0.4661980000000  0.5170750000000  0.4664260000000 1.0
C      1  0.5198460000000  0.5252480000000  0.4516310000000 1.0
C      1  0.5509270000000  0.4857550000000  0.4886950000000 1.0
C      1  0.5365380000000  0.4835330000000  0.5374490000000 1.0
C      1  0.4882070000000  0.4817060000000  0.5485670000000 1.0
C      1  0.4487770000000  0.4768340000000  0.5113090000000 1.0
C      1  0.4621530000000  0.4866000000000  0.4593810000000 1.0
C      1  0.5145540000000  0.4922120000000  0.4471430000000 1.0
C      1  0.4601680000000  0.5504840000000  0.4692580000000 1.0
C      1  0.5051210000000  0.5546270000000  0.4459770000000 1.0
C      1  0.5491050000000  0.5641690000000  0.4696350000000 1.0
C      1  0.5473520000000  0.5574910000000  0.5197290000000 1.0
C      1  0.5048100000000  0.5549300000000  0.5481510000000 1.0
C      1  0.4609090000000  0.5441730000000  0.5177520000000 1.0
C      1  0.4499100000000  0.4390620000000  0.4747340000000 1.0
C      1  0.4945750000000  0.4485830000000  0.4523180000000 1.0
C      1  0.5379150000000  0.4549200000000  0.4821480000000 1.0
C      1  0.5373990000000  0.4500260000000  0.5319480000000 1.0
C      1  0.4914070000000  0.4484220000000  0.5537290000000 1.0
C      1  0.4501900000000  0.4461190000000  0.5246390000000 1.0
C      1  0.5489420000000  0.5049100000000  0.5687950000000 1.0
C      1  0.4392160000000  0.5102470000000  0.5633800000000 1.0
C      1  0.4140580000000  0.4958190000000  0.5060700000000 1.0
C      1  0.4751760000000  0.5117720000000  0.4196340000000 1.0
C      1  0.5574100000000  0.5208000000000  0.4386650000000 1.0
C      1  0.5855760000000  0.5046430000000  0.4948860000000 1.0
C      1  0.5387760000000  0.4836420000000  0.5783660000000 1.0
C      1  0.4394070000000  0.4847100000000  0.5639570000000 1.0
C      1  0.4164450000000  0.4783580000000  0.4878100000000 1.0
C      1  0.4622460000000  0.4909030000000  0.4269150000000 1.0
C      1  0.5454990000000  0.4966520000000  0.4329580000000 1.0
C      1  0.5869040000000  0.4828590000000  0.5078900000000 1.0
C      1  0.5259580000000  0.5732690000000  0.5099620000000 1.0
C      1  0.5018340000000  0.5698630000000  0.5243120000000 1.0
C      1  0.4780070000000  0.5651730000000  0.5099980000000 1.0
C      1  0.4779840000000  0.5689130000000  0.4814630000000 1.0
C      1  0.5023990000000  0.5720240000000  0.4677160000000 1.0
C      1  0.5264100000000  0.5764210000000  0.4819590000000 1.0
C      1  0.5190290000000  0.4338590000000  0.5189950000000 1.0
C      1  0.4939630000000  0.4312440000000  0.5317800000000 1.0
C      1  0.4706550000000  0.4290390000000  0.5160180000000 1.0
C      1  0.4721800000000  0.4270410000000  0.4878600000000 1.0
C      1  0.4968490000000  0.4325840000000  0.4754070000000 1.0
C      1  0.5197150000000  0.4368980000000  0.4911020000000 1.0
END
