TITL C-26734-8308-50 -0.00011321122400085 125000 -342.705724131209 0 0 60 (C1) n - 1
REM
REM in /home/nfs/bkarasulu/CARBON/AIRSS/Generating-Clusters/AIREBO/Higher-Symm/Only-C60
REM
REM
REM
REM
REM
REM ./C.cell (28575a23ae977d3b5fae324c64b13b57)
REM
REM compiler GCC version 9.2.1 20190827 (Red Hat 9.2.1-1)
REM options -cpp -mtune=generic -march=x86-64 -g -O0 -fpre-include=/usr/include/finclude/math-vector-fortran.h
REM seed 1151268916 648154261 1138021065 2009195321 -1362352370 -976666409 332297378 573737368 -2134526148 -1198748777 -1919573862 1236236064 956472124 -71621016 1248228618 1191770728 1536107447 204918164 -2066054117 106728258 1747438138 -1120340713 -1086088128 2014361538 1685884097 -1456470393 -2068744964 -873877105 -1986394451 -1742453892 2063761872 -920150794 -149091527
REM
CELL 1.54180   50.00000   50.00000   50.00000   90.00000   90.00000   90.00000
LATT -1
SFAC C  
C      1  0.5104810000000  0.4524850000000  0.4361240000000 1.0
C      1  0.4449170000000  0.4463750000000  0.4871230000000 1.0
C      1  0.4546340000000  0.4446820000000  0.5341960000000 1.0
C      1  0.5005990000000  0.4406920000000  0.5525230000000 1.0
C      1  0.5485340000000  0.4475610000000  0.5167180000000 1.0
C      1  0.5452740000000  0.4530100000000  0.4696050000000 1.0
C      1  0.5184490000000  0.5499900000000  0.4358310000000 1.0
C      1  0.4488150000000  0.5518360000000  0.4810170000000 1.0
C      1  0.4553880000000  0.5487260000000  0.5285270000000 1.0
C      1  0.4988570000000  0.5496160000000  0.5548770000000 1.0
C      1  0.5521220000000  0.5588870000000  0.5185230000000 1.0
C      1  0.5517670000000  0.5533770000000  0.4707040000000 1.0
C      1  0.4419620000000  0.5780390000000  0.4844770000000 1.0
C      1  0.4552610000000  0.5765660000000  0.5266020000000 1.0
C      1  0.5035950000000  0.5799930000000  0.5513960000000 1.0
C      1  0.5557810000000  0.5856710000000  0.5137450000000 1.0
C      1  0.5449920000000  0.5804530000000  0.4713010000000 1.0
C      1  0.4955200000000  0.5677810000000  0.4477140000000 1.0
C      1  0.4391520000000  0.4196530000000  0.4889180000000 1.0
C      1  0.4549040000000  0.4170970000000  0.5305860000000 1.0
C      1  0.5046200000000  0.4095990000000  0.5544000000000 1.0
C      1  0.5538600000000  0.4212740000000  0.5114980000000 1.0
C      1  0.5410430000000  0.4254570000000  0.4712750000000 1.0
C      1  0.4895730000000  0.4339770000000  0.4499670000000 1.0
C      1  0.4863880000000  0.5171930000000  0.4723370000000 1.0
C      1  0.4701800000000  0.5141290000000  0.4997200000000 1.0
C      1  0.4876590000000  0.5121290000000  0.5269410000000 1.0
C      1  0.5195180000000  0.5185320000000  0.5257780000000 1.0
C      1  0.5381880000000  0.5185050000000  0.4989280000000 1.0
C      1  0.5200870000000  0.5167070000000  0.4721020000000 1.0
C      1  0.4794950000000  0.4830320000000  0.4767080000000 1.0
C      1  0.4669660000000  0.4835280000000  0.5083340000000 1.0
C      1  0.4842230000000  0.4815520000000  0.5359360000000 1.0
C      1  0.5159040000000  0.4839230000000  0.5280100000000 1.0
C      1  0.5289080000000  0.4884280000000  0.4988900000000 1.0
C      1  0.5107180000000  0.4856890000000  0.4716910000000 1.0
C      1  0.4478800000000  0.4601580000000  0.5112640000000 1.0
C      1  0.4770810000000  0.4553400000000  0.5481790000000 1.0
C      1  0.5228050000000  0.4519880000000  0.5332650000000 1.0
C      1  0.5489000000000  0.4652560000000  0.4949840000000 1.0
C      1  0.5256710000000  0.4665420000000  0.4539940000000 1.0
C      1  0.4691580000000  0.4540210000000  0.4683440000000 1.0
C      1  0.4502940000000  0.5357730000000  0.5038810000000 1.0
C      1  0.4769100000000  0.5362230000000  0.5431350000000 1.0
C      1  0.5245390000000  0.5515620000000  0.5327700000000 1.0
C      1  0.5555670000000  0.5419710000000  0.4965230000000 1.0
C      1  0.5339430000000  0.5374720000000  0.4546180000000 1.0
C      1  0.4750410000000  0.5462930000000  0.4642950000000 1.0
C      1  0.5156770000000  0.4185930000000  0.5230520000000 1.0
C      1  0.5288970000000  0.4059690000000  0.4963910000000 1.0
C      1  0.5092310000000  0.4191670000000  0.4728170000000 1.0
C      1  0.4779100000000  0.4225840000000  0.4799830000000 1.0
C      1  0.4652060000000  0.4031200000000  0.5012800000000 1.0
C      1  0.4850340000000  0.4057860000000  0.5279600000000 1.0
C      1  0.5165140000000  0.5825240000000  0.5200290000000 1.0
C      1  0.5304630000000  0.5985610000000  0.4961440000000 1.0
C      1  0.5127750000000  0.5838500000000  0.4714380000000 1.0
C      1  0.4811670000000  0.5780550000000  0.4770350000000 1.0
C      1  0.4660840000000  0.5948990000000  0.4997070000000 1.0
C      1  0.4849220000000  0.5881460000000  0.5258890000000 1.0
END
