TITL C-26730-8313-131 0.0177255442499684 125000 -352.132180899673 0 0 60 (C1) n - 1
REM
REM in /home/nfs/bkarasulu/CARBON/AIRSS/Generating-Clusters/AIREBO/Higher-Symm/Only-C60
REM
REM
REM
REM
REM
REM ./C.cell (28575a23ae977d3b5fae324c64b13b57)
REM
REM compiler GCC version 9.2.1 20190827 (Red Hat 9.2.1-1)
REM options -cpp -mtune=generic -march=x86-64 -g -O0 -fpre-include=/usr/include/finclude/math-vector-fortran.h
REM seed 411411430 1791802803 1701232488 -1000839355 226048484 41196475 565910922 842050854 -323222043 327673303 -1634873787 -544179357 1732194312 -114272085 1808555989 -1242685184 -1782370343 -2075631697 53756772 -3899532 -1407529179 553065366 1915405232 -822275449 1267159378 500662413 -475441382 1553136785 -71383742 -1910880301 1534811659 2120020068 2117672411
REM
CELL 1.54180   50.00000   50.00000   50.00000   90.00000   90.00000   90.00000
LATT -1
SFAC C  
C      1  0.4686790000000  0.5910640000000  0.4881970000000 1.0
C      1  0.4836260000000  0.5394150000000  0.5694780000000 1.0
C      1  0.4773620000000  0.4519070000000  0.5615060000000 1.0
C      1  0.4773150000000  0.4334480000000  0.4727850000000 1.0
C      1  0.4773970000000  0.4973950000000  0.4154950000000 1.0
C      1  0.4246060000000  0.4839790000000  0.4703190000000 1.0
C      1  0.4163890000000  0.5378350000000  0.4828620000000 1.0
C      1  0.4143950000000  0.5228130000000  0.5121230000000 1.0
C      1  0.4218010000000  0.5052340000000  0.5396040000000 1.0
C      1  0.4221690000000  0.4598330000000  0.5190900000000 1.0
C      1  0.5633160000000  0.5272160000000  0.5348840000000 1.0
C      1  0.5756370000000  0.4832860000000  0.5198720000000 1.0
C      1  0.5726560000000  0.4541410000000  0.4830000000000 1.0
C      1  0.5755240000000  0.5003530000000  0.4737270000000 1.0
C      1  0.5655010000000  0.5447830000000  0.4907720000000 1.0
C      1  0.4621140000000  0.5333430000000  0.4811590000000 1.0
C      1  0.4718580000000  0.5255600000000  0.5261790000000 1.0
C      1  0.4635090000000  0.4938790000000  0.5180770000000 1.0
C      1  0.4589890000000  0.4660630000000  0.5052200000000 1.0
C      1  0.4709710000000  0.4866570000000  0.4684410000000 1.0
C      1  0.5198700000000  0.4729200000000  0.5627810000000 1.0
C      1  0.5160670000000  0.4360410000000  0.5009960000000 1.0
C      1  0.5166640000000  0.4740020000000  0.4320000000000 1.0
C      1  0.5128050000000  0.5274880000000  0.4712990000000 1.0
C      1  0.5052720000000  0.5319120000000  0.5241430000000 1.0
C      1  0.5176700000000  0.4545190000000  0.4575160000000 1.0
C      1  0.5127070000000  0.5197110000000  0.4402160000000 1.0
C      1  0.5139330000000  0.5778780000000  0.5107260000000 1.0
C      1  0.5191770000000  0.5047200000000  0.5652000000000 1.0
C      1  0.5151130000000  0.4362960000000  0.5335630000000 1.0
C      1  0.4386070000000  0.4800860000000  0.5365430000000 1.0
C      1  0.4305350000000  0.4601890000000  0.4879300000000 1.0
C      1  0.4470330000000  0.4876590000000  0.4529920000000 1.0
C      1  0.4405570000000  0.5508310000000  0.4782480000000 1.0
C      1  0.4392800000000  0.5317190000000  0.5321610000000 1.0
C      1  0.5044920000000  0.4516490000000  0.5546170000000 1.0
C      1  0.5044110000000  0.4394930000000  0.4762200000000 1.0
C      1  0.5038890000000  0.4979380000000  0.4252270000000 1.0
C      1  0.4946690000000  0.5893950000000  0.4955910000000 1.0
C      1  0.5045640000000  0.5256600000000  0.5560720000000 1.0
C      1  0.5658170000000  0.4748950000000  0.4643430000000 1.0
C      1  0.5632550000000  0.5256460000000  0.4700450000000 1.0
C      1  0.5524600000000  0.5450330000000  0.5159160000000 1.0
C      1  0.5642190000000  0.4994630000000  0.5400170000000 1.0
C      1  0.5648730000000  0.4585480000000  0.5101940000000 1.0
C      1  0.5407450000000  0.4478600000000  0.5176570000000 1.0
C      1  0.5451060000000  0.4685790000000  0.4466180000000 1.0
C      1  0.5401510000000  0.5277630000000  0.4547780000000 1.0
C      1  0.5255530000000  0.5535850000000  0.5177220000000 1.0
C      1  0.5471920000000  0.4897090000000  0.5599060000000 1.0
C      1  0.4480360000000  0.5777800000000  0.4762480000000 1.0
C      1  0.4617050000000  0.5423850000000  0.5533310000000 1.0
C      1  0.4543820000000  0.4658680000000  0.5592240000000 1.0
C      1  0.4513610000000  0.4375650000000  0.4782720000000 1.0
C      1  0.4521830000000  0.4935360000000  0.4259650000000 1.0
C      1  0.5202390000000  0.4890360000000  0.5015880000000 1.0
C      1  0.5895150000000  0.4971330000000  0.4987770000000 1.0
C      1  0.4136130000000  0.5058690000000  0.4825940000000 1.0
C      1  0.5040090000000  0.5141520000000  0.4969090000000 1.0
C      1  0.4751300000000  0.5072280000000  0.4909490000000 1.0
END
