TITL C-26735-8354-66 -0.00097480780187748 125000 -359.769053817464 0 0 60 (C1) n - 1
REM
REM in /home/nfs/bkarasulu/CARBON/AIRSS/Generating-Clusters/AIREBO/Higher-Symm/Only-C60
REM
REM
REM
REM
REM
REM ./C.cell (28575a23ae977d3b5fae324c64b13b57)
REM
REM compiler GCC version 9.2.1 20190827 (Red Hat 9.2.1-1)
REM options -cpp -mtune=generic -march=x86-64 -g -O0 -fpre-include=/usr/include/finclude/math-vector-fortran.h
REM seed 1552634444 -500688914 1451809908 -1793046437 323013684 2004535025 -1158965495 -1795592541 -1930096982 118126411 1295098025 545344999 -56280474 499025439 1890449148 -1151190000 -60515524 507323739 213638339 1551675869 857377970 -436888130 606665203 1515859121 -1248976493 355537414 622585341 1195233010 1321055862 2006329353 1034486876 54483637 -253710089
REM
CELL 1.54180   50.00000   50.00000   50.00000   90.00000   90.00000   90.00000
LATT -1
SFAC C  
C      1  0.5671150000000  0.5786170000000  0.5214200000000 1.0
C      1  0.5634200000000  0.4575940000000  0.5181060000000 1.0
C      1  0.4987900000000  0.4236830000000  0.5221320000000 1.0
C      1  0.4313740000000  0.4245560000000  0.5305450000000 1.0
C      1  0.4380540000000  0.5417580000000  0.5172690000000 1.0
C      1  0.5028420000000  0.5761010000000  0.5209950000000 1.0
C      1  0.5294820000000  0.4944620000000  0.5709030000000 1.0
C      1  0.5088240000000  0.4725360000000  0.5716210000000 1.0
C      1  0.4793720000000  0.4784270000000  0.5694880000000 1.0
C      1  0.4695850000000  0.5059190000000  0.5683380000000 1.0
C      1  0.4901710000000  0.5278420000000  0.5698220000000 1.0
C      1  0.5197480000000  0.5221200000000  0.5700550000000 1.0
C      1  0.4516330000000  0.4365700000000  0.5175500000000 1.0
C      1  0.4324730000000  0.5185530000000  0.5023830000000 1.0
C      1  0.4806960000000  0.5662440000000  0.5062520000000 1.0
C      1  0.5477990000000  0.5620640000000  0.5125030000000 1.0
C      1  0.5671390000000  0.4803010000000  0.5021200000000 1.0
C      1  0.5215590000000  0.4338340000000  0.5080320000000 1.0
C      1  0.4861760000000  0.4716280000000  0.4801190000000 1.0
C      1  0.4691180000000  0.4956750000000  0.4827460000000 1.0
C      1  0.4830460000000  0.5214690000000  0.4791010000000 1.0
C      1  0.5100150000000  0.5211460000000  0.4817910000000 1.0
C      1  0.5226800000000  0.4987290000000  0.4905510000000 1.0
C      1  0.5129880000000  0.4749780000000  0.4809580000000 1.0
C      1  0.5628900000000  0.5082200000000  0.4648400000000 1.0
C      1  0.5307550000000  0.4584780000000  0.4595270000000 1.0
C      1  0.4737500000000  0.4468080000000  0.4769030000000 1.0
C      1  0.4438300000000  0.4925940000000  0.4610640000000 1.0
C      1  0.4670720000000  0.5451080000000  0.4617730000000 1.0
C      1  0.5277150000000  0.5429550000000  0.4685980000000 1.0
C      1  0.4649840000000  0.5484720000000  0.5217850000000 1.0
C      1  0.5238100000000  0.5581650000000  0.5268890000000 1.0
C      1  0.5463290000000  0.5026040000000  0.5099510000000 1.0
C      1  0.5368210000000  0.4510170000000  0.5242710000000 1.0
C      1  0.4773910000000  0.4409540000000  0.5291840000000 1.0
C      1  0.4508200000000  0.4946690000000  0.5098490000000 1.0
C      1  0.5145900000000  0.5319360000000  0.5386410000000 1.0
C      1  0.5328820000000  0.5033030000000  0.5373010000000 1.0
C      1  0.5205130000000  0.4716390000000  0.5397040000000 1.0
C      1  0.4866230000000  0.4680840000000  0.5388630000000 1.0
C      1  0.4679390000000  0.4961900000000  0.5346860000000 1.0
C      1  0.4808790000000  0.5275990000000  0.5371160000000 1.0
C      1  0.5623370000000  0.5223740000000  0.4905130000000 1.0
C      1  0.5613200000000  0.4598370000000  0.4589300000000 1.0
C      1  0.4929670000000  0.4271750000000  0.4707820000000 1.0
C      1  0.4373940000000  0.4724570000000  0.4881880000000 1.0
C      1  0.4367810000000  0.5423140000000  0.4623390000000 1.0
C      1  0.5091760000000  0.5678230000000  0.4669540000000 1.0
C      1  0.4294070000000  0.5189420000000  0.4744430000000 1.0
C      1  0.4841940000000  0.5648070000000  0.4782030000000 1.0
C      1  0.5504680000000  0.5474790000000  0.4887110000000 1.0
C      1  0.5710370000000  0.4817520000000  0.4737750000000 1.0
C      1  0.5188200000000  0.4354470000000  0.4797970000000 1.0
C      1  0.4492080000000  0.4470180000000  0.4908830000000 1.0
C      1  0.5185090000000  0.4854040000000  0.4428730000000 1.0
C      1  0.4933580000000  0.4842450000000  0.4310920000000 1.0
C      1  0.4707010000000  0.4995360000000  0.4413180000000 1.0
C      1  0.4798510000000  0.5264260000000  0.4397610000000 1.0
C      1  0.5068590000000  0.5285800000000  0.4352030000000 1.0
C      1  0.5339180000000  0.5147830000000  0.4504950000000 1.0
END
