TITL C-26735-8354-63 -0.000318021136537004 125000 -343.184150180316 0 0 60 (C1) n - 1
REM
REM in /home/nfs/bkarasulu/CARBON/AIRSS/Generating-Clusters/AIREBO/Higher-Symm/Only-C60
REM
REM
REM
REM
REM
REM ./C.cell (28575a23ae977d3b5fae324c64b13b57)
REM
REM compiler GCC version 9.2.1 20190827 (Red Hat 9.2.1-1)
REM options -cpp -mtune=generic -march=x86-64 -g -O0 -fpre-include=/usr/include/finclude/math-vector-fortran.h
REM seed 2096827372 -759010139 1030037700 -1806033842 978182513 -1655419681 -754834365 -1267334084 -1448562785 100777426 -1602053878 1837495398 -438891221 1430600037 145147624 -1947489492 -691806659 563497740 -1156933190 -690004289 1068389054 1647164814 733463142 -1018077195 1837598953 650195292 -1762119920 1504379760 -675880287 1448839656 -834720342 1016642995 -1252453318
REM
CELL 1.54180   50.00000   50.00000   50.00000   90.00000   90.00000   90.00000
LATT -1
SFAC C  
C      1  0.4393960000000  0.5332170000000  0.5086460000000 1.0
C      1  0.4951960000000  0.5406990000000  0.5623470000000 1.0
C      1  0.5557630000000  0.5347990000000  0.5251230000000 1.0
C      1  0.5478440000000  0.5340470000000  0.4615390000000 1.0
C      1  0.4780350000000  0.5366770000000  0.4413430000000 1.0
C      1  0.4399320000000  0.4671870000000  0.5073180000000 1.0
C      1  0.5001690000000  0.4623750000000  0.5600380000000 1.0
C      1  0.5540360000000  0.4656140000000  0.5291570000000 1.0
C      1  0.5449260000000  0.4603250000000  0.4581390000000 1.0
C      1  0.4736570000000  0.4659130000000  0.4377770000000 1.0
C      1  0.4828950000000  0.5615130000000  0.4552060000000 1.0
C      1  0.4520340000000  0.5703540000000  0.5008700000000 1.0
C      1  0.4747890000000  0.5642930000000  0.5488230000000 1.0
C      1  0.5233540000000  0.5746250000000  0.5271770000000 1.0
C      1  0.5373680000000  0.5574460000000  0.4745760000000 1.0
C      1  0.4759280000000  0.4391830000000  0.4502000000000 1.0
C      1  0.4521910000000  0.4410940000000  0.5054730000000 1.0
C      1  0.4895270000000  0.4323100000000  0.5482490000000 1.0
C      1  0.5390460000000  0.4417860000000  0.5261680000000 1.0
C      1  0.5322780000000  0.4358980000000  0.4685130000000 1.0
C      1  0.5320570000000  0.4378360000000  0.4973860000000 1.0
C      1  0.5037140000000  0.4373540000000  0.4592680000000 1.0
C      1  0.4635650000000  0.4400690000000  0.4791130000000 1.0
C      1  0.4732460000000  0.4383990000000  0.5266740000000 1.0
C      1  0.5201220000000  0.4380580000000  0.5463030000000 1.0
C      1  0.5385510000000  0.5561340000000  0.5075440000000 1.0
C      1  0.5095820000000  0.5599440000000  0.4647100000000 1.0
C      1  0.4651970000000  0.5629820000000  0.4788330000000 1.0
C      1  0.4611430000000  0.5527530000000  0.5260080000000 1.0
C      1  0.5057420000000  0.5689390000000  0.5461420000000 1.0
C      1  0.5224620000000  0.4831680000000  0.4482100000000 1.0
C      1  0.4588050000000  0.4876380000000  0.4590630000000 1.0
C      1  0.4523180000000  0.4845910000000  0.5323870000000 1.0
C      1  0.5168570000000  0.4884850000000  0.5516040000000 1.0
C      1  0.5548340000000  0.4817410000000  0.5022490000000 1.0
C      1  0.5240610000000  0.5132030000000  0.4493770000000 1.0
C      1  0.4599400000000  0.5169880000000  0.4593870000000 1.0
C      1  0.4543090000000  0.5140020000000  0.5323490000000 1.0
C      1  0.5152820000000  0.5204300000000  0.5523420000000 1.0
C      1  0.5562480000000  0.5111730000000  0.5026980000000 1.0
C      1  0.5252580000000  0.5251120000000  0.5014900000000 1.0
C      1  0.5105610000000  0.5279760000000  0.4750960000000 1.0
C      1  0.4791300000000  0.5320770000000  0.4819100000000 1.0
C      1  0.4783780000000  0.5259030000000  0.5129200000000 1.0
C      1  0.5056720000000  0.5131430000000  0.5221860000000 1.0
C      1  0.5236910000000  0.4694980000000  0.5017530000000 1.0
C      1  0.5088670000000  0.4677100000000  0.4737420000000 1.0
C      1  0.4777260000000  0.4682200000000  0.4773340000000 1.0
C      1  0.4776270000000  0.4680160000000  0.5203880000000 1.0
C      1  0.5045520000000  0.4809980000000  0.5214380000000 1.0
C      1  0.4981890000000  0.4746710000000  0.4281370000000 1.0
C      1  0.4372980000000  0.4783350000000  0.4824260000000 1.0
C      1  0.4677800000000  0.4698860000000  0.5588600000000 1.0
C      1  0.5471220000000  0.4802000000000  0.5512290000000 1.0
C      1  0.5646680000000  0.4699630000000  0.4746930000000 1.0
C      1  0.5008590000000  0.5258180000000  0.4304940000000 1.0
C      1  0.4392350000000  0.5297940000000  0.4816220000000 1.0
C      1  0.4641460000000  0.5275780000000  0.5597860000000 1.0
C      1  0.5452290000000  0.5300810000000  0.5503920000000 1.0
C      1  0.5676150000000  0.5217830000000  0.4757760000000 1.0
END
