TITL C-26727-7196-1 0.00047979733021052 125000 -320.354297083254 0 0 60 (C1) n - 1
REM
REM in /home/nfs/bkarasulu/CARBON/AIRSS/Generating-Clusters/AIREBO/Higher-Symm/Only-C60
REM
REM
REM
REM
REM
REM ./C.cell (28575a23ae977d3b5fae324c64b13b57)
REM
REM compiler GCC version 9.2.1 20190827 (Red Hat 9.2.1-1)
REM options -cpp -mtune=generic -march=x86-64 -g -O0 -fpre-include=/usr/include/finclude/math-vector-fortran.h
REM seed -1426304442 -1984210436 -219733152 -746423078 1717995544 639161538 760906877 750524844 340734418 -1575606825 -428860805 -1786064960 -273413717 -1599887802 942768100 -1896714774 -245357087 1643525451 -1268925435 495420427 -1272084239 1312640650 1185298315 303890100 -272010237 -1127206512 1241631352 1396141021 -2204726 735290385 1870651216 478692315 1770313087
REM
CELL 1.54180   50.00000   50.00000   50.00000   90.00000   90.00000   90.00000
LATT -1
SFAC C  
C      1  0.4468690000000  0.4604320000000  0.5253350000000 1.0
C      1  0.5314230000000  0.4450900000000  0.4525650000000 1.0
C      1  0.4557680000000  0.5296530000000  0.4414370000000 1.0
C      1  0.5544610000000  0.4605310000000  0.4726850000000 1.0
C      1  0.4446900000000  0.5475990000000  0.4675470000000 1.0
C      1  0.5569510000000  0.5410810000000  0.5327450000000 1.0
C      1  0.4753530000000  0.4502620000000  0.5393890000000 1.0
C      1  0.5275420000000  0.5508130000000  0.5464170000000 1.0
C      1  0.4751710000000  0.5545350000000  0.4541110000000 1.0
C      1  0.5424570000000  0.5222500000000  0.5572870000000 1.0
C      1  0.4585270000000  0.4762730000000  0.5534250000000 1.0
C      1  0.5438060000000  0.4765370000000  0.4446370000000 1.0
C      1  0.4491650000000  0.5424330000000  0.5280620000000 1.0
C      1  0.5258610000000  0.5526150000000  0.4593110000000 1.0
C      1  0.4606600000000  0.4716560000000  0.4490910000000 1.0
C      1  0.5501120000000  0.5383020000000  0.4783790000000 1.0
C      1  0.4469660000000  0.4581140000000  0.4771130000000 1.0
C      1  0.5611140000000  0.4654020000000  0.5218570000000 1.0
C      1  0.4777300000000  0.5533630000000  0.5429200000000 1.0
C      1  0.5238480000000  0.4438160000000  0.5517130000000 1.0
C      1  0.4728500000000  0.4433970000000  0.4620330000000 1.0
C      1  0.5453140000000  0.4679880000000  0.5514390000000 1.0
C      1  0.4578990000000  0.5300900000000  0.5578680000000 1.0
C      1  0.5459300000000  0.5289480000000  0.4453820000000 1.0
C      1  0.4865520000000  0.5161880000000  0.5540810000000 1.0
C      1  0.5379480000000  0.4869360000000  0.5172380000000 1.0
C      1  0.5129630000000  0.5567700000000  0.4877570000000 1.0
C      1  0.5144220000000  0.5163660000000  0.4476600000000 1.0
C      1  0.4852620000000  0.4891940000000  0.4458190000000 1.0
C      1  0.5163160000000  0.4810470000000  0.5393640000000 1.0
C      1  0.4492860000000  0.4891780000000  0.4832480000000 1.0
C      1  0.5277360000000  0.5127630000000  0.4765920000000 1.0
C      1  0.4471730000000  0.5173560000000  0.5103730000000 1.0
C      1  0.4885980000000  0.5506900000000  0.5144600000000 1.0
C      1  0.5190920000000  0.4304280000000  0.5265580000000 1.0
C      1  0.4917880000000  0.4450340000000  0.4886010000000 1.0
C      1  0.4847700000000  0.4889030000000  0.5358790000000 1.0
C      1  0.5312140000000  0.5169080000000  0.5083140000000 1.0
C      1  0.5149810000000  0.4598790000000  0.4783910000000 1.0
C      1  0.5127520000000  0.4802200000000  0.4523030000000 1.0
C      1  0.4842300000000  0.5164110000000  0.4416430000000 1.0
C      1  0.5137010000000  0.5101410000000  0.5530150000000 1.0
C      1  0.4403060000000  0.5190710000000  0.4812560000000 1.0
C      1  0.5340780000000  0.4842650000000  0.4858570000000 1.0
C      1  0.4598360000000  0.4887360000000  0.5156200000000 1.0
C      1  0.4932260000000  0.4375190000000  0.5155030000000 1.0
C      1  0.5206880000000  0.5432800000000  0.5161860000000 1.0
C      1  0.4814860000000  0.5530920000000  0.4840060000000 1.0
C      1  0.4351950000000  0.4461790000000  0.5034180000000 1.0
C      1  0.5716190000000  0.4552990000000  0.4985410000000 1.0
C      1  0.4373960000000  0.5545390000000  0.4995140000000 1.0
C      1  0.5627060000000  0.5429230000000  0.5061150000000 1.0
C      1  0.4482850000000  0.4981340000000  0.4334930000000 1.0
C      1  0.5032160000000  0.4316680000000  0.4527070000000 1.0
C      1  0.5554900000000  0.4945960000000  0.5673070000000 1.0
C      1  0.4500980000000  0.4998440000000  0.5681440000000 1.0
C      1  0.5543610000000  0.5015600000000  0.4354080000000 1.0
C      1  0.4982250000000  0.4460480000000  0.5626250000000 1.0
C      1  0.5009150000000  0.5635700000000  0.5579250000000 1.0
C      1  0.5036220000000  0.5640830000000  0.4423300000000 1.0
END
