TITL C-26737-6152-110 -0.00066114200316211 125000 -323.139985074096 0 0 60 (C1) n - 1
REM
REM in /home/nfs/bkarasulu/CARBON/AIRSS/Generating-Clusters/AIREBO/Higher-Symm/Only-C60
REM
REM
REM
REM
REM
REM ./C.cell (28575a23ae977d3b5fae324c64b13b57)
REM
REM compiler GCC version 9.2.1 20190827 (Red Hat 9.2.1-1)
REM options -cpp -mtune=generic -march=x86-64 -g -O0 -fpre-include=/usr/include/finclude/math-vector-fortran.h
REM seed 1210967521 1783793276 -1463658041 -749573340 1826957881 145401834 341094386 -753370970 -1352854938 -977613331 -1899367014 120079600 1182926259 -753866875 -1083190646 996660199 665483325 -574936539 -1472969902 1974215838 -1849747589 368103509 -435421045 454003344 -10641070 2045623403 -1896635924 -651022486 -1158960157 -1162413789 2023813976 325188232 -1846721170
REM
CELL 1.54180   50.00000   50.00000   50.00000   90.00000   90.00000   90.00000
LATT -1
SFAC C  
C      1  0.5263440000000  0.4510080000000  0.4440320000000 1.0
C      1  0.4723860000000  0.4587490000000  0.4418130000000 1.0
C      1  0.4491060000000  0.4493130000000  0.4593590000000 1.0
C      1  0.4491860000000  0.4604440000000  0.5351240000000 1.0
C      1  0.4977490000000  0.4572230000000  0.5725450000000 1.0
C      1  0.5453230000000  0.4548980000000  0.5215730000000 1.0
C      1  0.5680460000000  0.4553510000000  0.5020600000000 1.0
C      1  0.5024040000000  0.4991210000000  0.4715970000000 1.0
C      1  0.4723360000000  0.4919300000000  0.4808290000000 1.0
C      1  0.4733460000000  0.5030960000000  0.5110280000000 1.0
C      1  0.4907400000000  0.4929640000000  0.5384380000000 1.0
C      1  0.5150360000000  0.5070620000000  0.5191390000000 1.0
C      1  0.5395300000000  0.4961190000000  0.5036880000000 1.0
C      1  0.5319160000000  0.4823260000000  0.4735380000000 1.0
C      1  0.5013760000000  0.5613720000000  0.4643570000000 1.0
C      1  0.4712140000000  0.5648940000000  0.4786550000000 1.0
C      1  0.4636290000000  0.5669940000000  0.5119360000000 1.0
C      1  0.4879600000000  0.5743920000000  0.5345110000000 1.0
C      1  0.5170160000000  0.5620180000000  0.5317360000000 1.0
C      1  0.5305730000000  0.5639910000000  0.5073410000000 1.0
C      1  0.5274320000000  0.5658280000000  0.4737680000000 1.0
C      1  0.4600450000000  0.5334060000000  0.5158670000000 1.0
C      1  0.4819870000000  0.5424910000000  0.5403200000000 1.0
C      1  0.5134370000000  0.5301200000000  0.5440760000000 1.0
C      1  0.5397390000000  0.5351640000000  0.4952950000000 1.0
C      1  0.5478320000000  0.5407120000000  0.4628760000000 1.0
C      1  0.4890850000000  0.5303170000000  0.4696910000000 1.0
C      1  0.4564710000000  0.5386660000000  0.4676820000000 1.0
C      1  0.4481380000000  0.4684590000000  0.4852970000000 1.0
C      1  0.4615690000000  0.4823780000000  0.5523630000000 1.0
C      1  0.5061320000000  0.4638830000000  0.5460210000000 1.0
C      1  0.5590920000000  0.4856430000000  0.5262000000000 1.0
C      1  0.5610810000000  0.4640280000000  0.4745640000000 1.0
C      1  0.5205020000000  0.4839530000000  0.4415440000000 1.0
C      1  0.4563650000000  0.4872830000000  0.4510500000000 1.0
C      1  0.4333780000000  0.4982840000000  0.4869150000000 1.0
C      1  0.4431810000000  0.5068360000000  0.5561860000000 1.0
C      1  0.4962210000000  0.5076240000000  0.5920500000000 1.0
C      1  0.5594250000000  0.5052970000000  0.5495410000000 1.0
C      1  0.5726020000000  0.4929810000000  0.4671970000000 1.0
C      1  0.5321750000000  0.5081820000000  0.4272220000000 1.0
C      1  0.4532270000000  0.5101760000000  0.4307190000000 1.0
C      1  0.5887400000000  0.4718850000000  0.5157400000000 1.0
C      1  0.5504820000000  0.4441360000000  0.4527360000000 1.0
C      1  0.4978900000000  0.4593880000000  0.4349820000000 1.0
C      1  0.4266410000000  0.4699350000000  0.4517870000000 1.0
C      1  0.4472050000000  0.4538460000000  0.5116020000000 1.0
C      1  0.4733780000000  0.4690450000000  0.5786170000000 1.0
C      1  0.5209790000000  0.4468490000000  0.5297020000000 1.0
C      1  0.4986400000000  0.5100880000000  0.5667310000000 1.0
C      1  0.5438230000000  0.5238560000000  0.5556060000000 1.0
C      1  0.5575790000000  0.5129350000000  0.4804630000000 1.0
C      1  0.5406450000000  0.5304280000000  0.4346730000000 1.0
C      1  0.4473560000000  0.5331320000000  0.4393940000000 1.0
C      1  0.4400540000000  0.5248930000000  0.4903070000000 1.0
C      1  0.4382450000000  0.5252650000000  0.5398750000000 1.0
C      1  0.4919980000000  0.5530660000000  0.5021610000000 1.0
C      1  0.5023400000000  0.3975380000000  0.5188130000000 1.0
C      1  0.5108250000000  0.4219760000000  0.5230070000000 1.0
C      1  0.5086160000000  0.5287290000000  0.4974790000000 1.0
END
