TITL C-26726-4881-90 -2.29957050977716e-05 125000 -342.615258504428 0 0 60 (C1) n - 1
REM
REM in /home/nfs/bkarasulu/CARBON/AIRSS/Generating-Clusters/AIREBO/Higher-Symm/Only-C60
REM
REM
REM
REM
REM
REM ./C.cell (28575a23ae977d3b5fae324c64b13b57)
REM
REM compiler GCC version 9.2.1 20190827 (Red Hat 9.2.1-1)
REM options -cpp -mtune=generic -march=x86-64 -g -O0 -fpre-include=/usr/include/finclude/math-vector-fortran.h
REM seed -1713973445 -740507425 -464863631 1633821560 -2041144225 204510836 1379073936 -1650372542 1013453483 -1459569297 -1812457379 -1897014775 -233508653 1463572310 -57221219 -1127148924 873938084 -1560292030 -142265880 1551807046 -424431834 -1519156742 1200262245 555795443 1831586461 -932796486 -1207962561 -191819495 -522603229 398275998 498747091 644068698 -15734080
REM
CELL 1.54180   50.00000   50.00000   50.00000   90.00000   90.00000   90.00000
LATT -1
SFAC C  
C      1  0.5240150000000  0.5368820000000  0.5123890000000 1.0
C      1  0.5201500000000  0.5352980000000  0.4804990000000 1.0
C      1  0.4886690000000  0.5369210000000  0.4751870000000 1.0
C      1  0.4728810000000  0.5360510000000  0.5033440000000 1.0
C      1  0.4951640000000  0.5376750000000  0.5262070000000 1.0
C      1  0.5241090000000  0.4643040000000  0.5134290000000 1.0
C      1  0.5192910000000  0.4627470000000  0.4818600000000 1.0
C      1  0.4877490000000  0.4644390000000  0.4757060000000 1.0
C      1  0.4731490000000  0.4636400000000  0.5040250000000 1.0
C      1  0.4951830000000  0.4652830000000  0.5274000000000 1.0
C      1  0.5618610000000  0.5262780000000  0.4804220000000 1.0
C      1  0.5012990000000  0.5298890000000  0.4321920000000 1.0
C      1  0.4391130000000  0.5278790000000  0.4792560000000 1.0
C      1  0.4596640000000  0.5316500000000  0.5535960000000 1.0
C      1  0.5369710000000  0.5286410000000  0.5546030000000 1.0
C      1  0.5641130000000  0.4681770000000  0.4802720000000 1.0
C      1  0.5002670000000  0.4718710000000  0.4358940000000 1.0
C      1  0.4359240000000  0.4698150000000  0.4786230000000 1.0
C      1  0.4613780000000  0.4735720000000  0.5522210000000 1.0
C      1  0.5392180000000  0.4705100000000  0.5529760000000 1.0
C      1  0.5056760000000  0.5575710000000  0.4369320000000 1.0
C      1  0.4426000000000  0.5559610000000  0.4774230000000 1.0
C      1  0.4595500000000  0.5592430000000  0.5467870000000 1.0
C      1  0.5325500000000  0.5566900000000  0.5542520000000 1.0
C      1  0.5606750000000  0.5544320000000  0.4833990000000 1.0
C      1  0.5024260000000  0.4437540000000  0.4388800000000 1.0
C      1  0.4418470000000  0.4420830000000  0.4766280000000 1.0
C      1  0.4608570000000  0.4454160000000  0.5488730000000 1.0
C      1  0.5337300000000  0.4427710000000  0.5507950000000 1.0
C      1  0.5599960000000  0.4406110000000  0.4859580000000 1.0
C      1  0.4691070000000  0.4371110000000  0.4744130000000 1.0
C      1  0.4669020000000  0.4374670000000  0.5229510000000 1.0
C      1  0.5090810000000  0.4376400000000  0.5390490000000 1.0
C      1  0.5393720000000  0.4363660000000  0.5041400000000 1.0
C      1  0.5130910000000  0.4361790000000  0.4634000000000 1.0
C      1  0.4692060000000  0.5634820000000  0.4746020000000 1.0
C      1  0.4655270000000  0.5637330000000  0.5200080000000 1.0
C      1  0.5107580000000  0.5639650000000  0.5385910000000 1.0
C      1  0.5407830000000  0.5627030000000  0.5009120000000 1.0
C      1  0.5163930000000  0.5625460000000  0.4620920000000 1.0
C      1  0.5159270000000  0.5135120000000  0.5652220000000 1.0
C      1  0.5660530000000  0.5118970000000  0.5041260000000 1.0
C      1  0.5246150000000  0.5147570000000  0.4333590000000 1.0
C      1  0.4491520000000  0.5131610000000  0.4576090000000 1.0
C      1  0.4411360000000  0.5167180000000  0.5391910000000 1.0
C      1  0.5196820000000  0.4845810000000  0.5669570000000 1.0
C      1  0.5708550000000  0.4830960000000  0.5027910000000 1.0
C      1  0.5243030000000  0.4860510000000  0.4386290000000 1.0
C      1  0.4441960000000  0.4844030000000  0.4564140000000 1.0
C      1  0.4438950000000  0.4878710000000  0.5355710000000 1.0
C      1  0.5384370000000  0.5137920000000  0.4635950000000 1.0
C      1  0.4797430000000  0.5187320000000  0.4511460000000 1.0
C      1  0.4477760000000  0.5151500000000  0.5067090000000 1.0
C      1  0.4879950000000  0.5196390000000  0.5512720000000 1.0
C      1  0.5446810000000  0.5178470000000  0.5268820000000 1.0
C      1  0.5397660000000  0.4802340000000  0.4656910000000 1.0
C      1  0.4772010000000  0.4852300000000  0.4526030000000 1.0
C      1  0.4474000000000  0.4816060000000  0.5046240000000 1.0
C      1  0.4901580000000  0.4861360000000  0.5518700000000 1.0
C      1  0.5467350000000  0.4843410000000  0.5255530000000 1.0
END
