TITL C-26737-6152-56 0.0017055906756716 125000 -342.178685577803 0 0 60 (C1) n - 1
REM
REM in /home/nfs/bkarasulu/CARBON/AIRSS/Generating-Clusters/AIREBO/Higher-Symm/Only-C60
REM
REM
REM
REM
REM
REM ./C.cell (28575a23ae977d3b5fae324c64b13b57)
REM
REM compiler GCC version 9.2.1 20190827 (Red Hat 9.2.1-1)
REM options -cpp -mtune=generic -march=x86-64 -g -O0 -fpre-include=/usr/include/finclude/math-vector-fortran.h
REM seed 1168584728 -921517803 -1788923498 354650298 -1255713584 -677646159 468287591 -513226795 -1417684486 151483433 -1437826602 1781822384 670472999 -328903529 407144393 2116272992 -66484372 1551897559 1242423806 -547565994 635444716 -1304589284 -254415170 938592811 1206241619 1759090703 2015863659 125558695 1929954626 -92519536 -1821354255 1913118570 -111904036
REM
CELL 1.54180   50.00000   50.00000   50.00000   90.00000   90.00000   90.00000
LATT -1
SFAC C  
C      1  0.5165470000000  0.5179920000000  0.5627900000000 1.0
C      1  0.5929340000000  0.5060000000000  0.4759370000000 1.0
C      1  0.4236040000000  0.4900230000000  0.5134780000000 1.0
C      1  0.5103300000000  0.5429120000000  0.5460920000000 1.0
C      1  0.4653660000000  0.5503370000000  0.4623930000000 1.0
C      1  0.5289200000000  0.5748550000000  0.4451570000000 1.0
C      1  0.5350670000000  0.5542100000000  0.4615280000000 1.0
C      1  0.5353510000000  0.5600440000000  0.5399590000000 1.0
C      1  0.5394890000000  0.5070800000000  0.5232410000000 1.0
C      1  0.4516960000000  0.5325630000000  0.4792950000000 1.0
C      1  0.4844360000000  0.4581530000000  0.5927740000000 1.0
C      1  0.4862250000000  0.4854080000000  0.4830560000000 1.0
C      1  0.5245530000000  0.4336360000000  0.4736230000000 1.0
C      1  0.4355400000000  0.4201090000000  0.5506530000000 1.0
C      1  0.5454420000000  0.4464890000000  0.4973390000000 1.0
C      1  0.4910150000000  0.4582250000000  0.4907580000000 1.0
C      1  0.4629950000000  0.5307470000000  0.5441000000000 1.0
C      1  0.4866780000000  0.5061000000000  0.5100450000000 1.0
C      1  0.5143330000000  0.5043270000000  0.4800890000000 1.0
C      1  0.5516440000000  0.5533890000000  0.5179890000000 1.0
C      1  0.4930280000000  0.4509560000000  0.4366620000000 1.0
C      1  0.5388000000000  0.4903120000000  0.4379740000000 1.0
C      1  0.4700580000000  0.5051250000000  0.5548540000000 1.0
C      1  0.4646040000000  0.4849920000000  0.5366020000000 1.0
C      1  0.4535450000000  0.4983040000000  0.5104240000000 1.0
C      1  0.5386670000000  0.5036960000000  0.5523580000000 1.0
C      1  0.4627230000000  0.4446780000000  0.5829400000000 1.0
C      1  0.5144010000000  0.4632840000000  0.5550560000000 1.0
C      1  0.4554600000000  0.4378180000000  0.5568710000000 1.0
C      1  0.4773390000000  0.4394460000000  0.5103590000000 1.0
C      1  0.4784360000000  0.5548440000000  0.5025600000000 1.0
C      1  0.4838720000000  0.4957590000000  0.4191850000000 1.0
C      1  0.4437960000000  0.5093160000000  0.4678990000000 1.0
C      1  0.5398000000000  0.4736220000000  0.5450270000000 1.0
C      1  0.5704240000000  0.5161000000000  0.4863450000000 1.0
C      1  0.5097980000000  0.5942390000000  0.4447360000000 1.0
C      1  0.5415890000000  0.4661550000000  0.5146260000000 1.0
C      1  0.5582030000000  0.5242560000000  0.5126750000000 1.0
C      1  0.4944190000000  0.5348740000000  0.5180210000000 1.0
C      1  0.4550400000000  0.5322150000000  0.5123950000000 1.0
C      1  0.5405250000000  0.5241060000000  0.4767970000000 1.0
C      1  0.4799040000000  0.5509100000000  0.5516420000000 1.0
C      1  0.4829480000000  0.5950990000000  0.4491430000000 1.0
C      1  0.4768090000000  0.4741560000000  0.4359310000000 1.0
C      1  0.4941130000000  0.5023780000000  0.5709480000000 1.0
C      1  0.5436420000000  0.5542100000000  0.4906770000000 1.0
C      1  0.4684660000000  0.4538780000000  0.5358060000000 1.0
C      1  0.5008530000000  0.4750570000000  0.5775100000000 1.0
C      1  0.5186640000000  0.5067620000000  0.4483810000000 1.0
C      1  0.5554850000000  0.4215660000000  0.4809450000000 1.0
C      1  0.4654940000000  0.5783600000000  0.4619310000000 1.0
C      1  0.4970230000000  0.5164990000000  0.4333670000000 1.0
C      1  0.5156410000000  0.4875800000000  0.5096670000000 1.0
C      1  0.4818090000000  0.5380300000000  0.4428980000000 1.0
C      1  0.4311260000000  0.4814700000000  0.4615820000000 1.0
C      1  0.5390310000000  0.4628880000000  0.4362970000000 1.0
C      1  0.5190740000000  0.4460520000000  0.4468440000000 1.0
C      1  0.4651550000000  0.4848620000000  0.4615670000000 1.0
C      1  0.4991470000000  0.4661650000000  0.5304180000000 1.0
C      1  0.4989250000000  0.4273840000000  0.4897870000000 1.0
END
