TITL C-26735-8354-101 -0.000324510859848713 125000 -320.033225197868 0 0 60 (C1) n - 1
REM
REM in /home/nfs/bkarasulu/CARBON/AIRSS/Generating-Clusters/AIREBO/Higher-Symm/Only-C60
REM
REM
REM
REM
REM
REM ./C.cell (28575a23ae977d3b5fae324c64b13b57)
REM
REM compiler GCC version 9.2.1 20190827 (Red Hat 9.2.1-1)
REM options -cpp -mtune=generic -march=x86-64 -g -O0 -fpre-include=/usr/include/finclude/math-vector-fortran.h
REM seed 1197471825 1313550759 1783325771 1014601108 820201266 -1645785996 106124106 -115175529 -438221892 -1469429796 -1317418470 -237888534 -992276388 -1656740589 874020944 258025115 -661443715 1365053130 -846735552 469027171 80526913 1288665757 -33054431 182956222 -1289191246 -2074436986 968257846 -235435728 477347110 1221794307 -764024019 804078752 -1799487251
REM
CELL 1.54180   50.00000   50.00000   50.00000   90.00000   90.00000   90.00000
LATT -1
SFAC C  
C      1  0.4709970000000  0.4803110000000  0.5579860000000 1.0
C      1  0.4634470000000  0.4307570000000  0.5139640000000 1.0
C      1  0.4888330000000  0.4250020000000  0.4629930000000 1.0
C      1  0.4638220000000  0.4938050000000  0.4447650000000 1.0
C      1  0.4618320000000  0.5469840000000  0.4509990000000 1.0
C      1  0.4648420000000  0.5689150000000  0.5021040000000 1.0
C      1  0.4779980000000  0.5389760000000  0.5569940000000 1.0
C      1  0.4729190000000  0.5460730000000  0.5259800000000 1.0
C      1  0.4870130000000  0.5099860000000  0.5579340000000 1.0
C      1  0.4767750000000  0.4657050000000  0.5278290000000 1.0
C      1  0.4669070000000  0.4577480000000  0.4962580000000 1.0
C      1  0.4867920000000  0.4547010000000  0.4732980000000 1.0
C      1  0.4784850000000  0.5200500000000  0.4413800000000 1.0
C      1  0.4800930000000  0.5613790000000  0.4732000000000 1.0
C      1  0.5237880000000  0.4569760000000  0.5141510000000 1.0
C      1  0.5164700000000  0.4619820000000  0.4861830000000 1.0
C      1  0.5054960000000  0.5169820000000  0.4615390000000 1.0
C      1  0.5067100000000  0.5419350000000  0.4815660000000 1.0
C      1  0.5029150000000  0.5374720000000  0.5149950000000 1.0
C      1  0.5114860000000  0.5123250000000  0.5358150000000 1.0
C      1  0.5078040000000  0.4785540000000  0.5334020000000 1.0
C      1  0.5218040000000  0.5493620000000  0.5691350000000 1.0
C      1  0.5197360000000  0.4709510000000  0.5639960000000 1.0
C      1  0.5117460000000  0.4288570000000  0.5285730000000 1.0
C      1  0.5364070000000  0.4276290000000  0.4570110000000 1.0
C      1  0.5091280000000  0.4889910000000  0.4448180000000 1.0
C      1  0.5138040000000  0.5556170000000  0.4525640000000 1.0
C      1  0.5162570000000  0.5683210000000  0.5098540000000 1.0
C      1  0.5123180000000  0.4143950000000  0.4534040000000 1.0
C      1  0.4844970000000  0.4748480000000  0.4490340000000 1.0
C      1  0.4922760000000  0.5498430000000  0.4355330000000 1.0
C      1  0.4959120000000  0.5813070000000  0.4957000000000 1.0
C      1  0.4946640000000  0.5549850000000  0.5716510000000 1.0
C      1  0.4971090000000  0.4838400000000  0.5758380000000 1.0
C      1  0.4849310000000  0.4323140000000  0.5337330000000 1.0
C      1  0.4415230000000  0.4745430000000  0.4879230000000 1.0
C      1  0.4455680000000  0.5000650000000  0.4658100000000 1.0
C      1  0.4450140000000  0.5295720000000  0.4720540000000 1.0
C      1  0.4450230000000  0.5428660000000  0.4978300000000 1.0
C      1  0.4462650000000  0.5272430000000  0.5280070000000 1.0
C      1  0.4343410000000  0.4995330000000  0.5439720000000 1.0
C      1  0.4446400000000  0.4761410000000  0.5239840000000 1.0
C      1  0.5335190000000  0.4752980000000  0.4440150000000 1.0
C      1  0.5380410000000  0.5666890000000  0.4469530000000 1.0
C      1  0.5379960000000  0.5543000000000  0.5242150000000 1.0
C      1  0.5300100000000  0.5370650000000  0.5448890000000 1.0
C      1  0.5409790000000  0.4528040000000  0.5622410000000 1.0
C      1  0.5401410000000  0.4387540000000  0.5376710000000 1.0
C      1  0.5356170000000  0.4550020000000  0.4634560000000 1.0
C      1  0.4402520000000  0.5039600000000  0.5049250000000 1.0
C      1  0.6346960000000  0.5101710000000  0.5110520000000 1.0
C      1  0.4728730000000  0.4969880000000  0.4982690000000 1.0
C      1  0.3813920000000  0.5085280000000  0.5011920000000 1.0
C      1  0.6095450000000  0.5064010000000  0.5047140000000 1.0
C      1  0.5003150000000  0.4917930000000  0.4836460000000 1.0
C      1  0.5844330000000  0.5040200000000  0.4961640000000 1.0
C      1  0.3553310000000  0.5091110000000  0.4984850000000 1.0
C      1  0.5334260000000  0.4980410000000  0.4827590000000 1.0
C      1  0.5585760000000  0.5021250000000  0.4900950000000 1.0
C      1  0.4074740000000  0.5053750000000  0.5037810000000 1.0
END
