TITL C-26726-4881-183 0.00148054650672469 125000 -321.094908528103 0 0 60 (C1) n - 1
REM
REM in /home/nfs/bkarasulu/CARBON/AIRSS/Generating-Clusters/AIREBO/Higher-Symm/Only-C60
REM
REM
REM
REM
REM
REM ./C.cell (28575a23ae977d3b5fae324c64b13b57)
REM
REM compiler GCC version 9.2.1 20190827 (Red Hat 9.2.1-1)
REM options -cpp -mtune=generic -march=x86-64 -g -O0 -fpre-include=/usr/include/finclude/math-vector-fortran.h
REM seed 2008677548 371509828 848630833 -2029427458 -1970589489 1641045293 -1790739093 -751926319 936872386 1736074176 1089135696 1213702639 -718721254 1325140103 -1268788935 285027018 -1930446271 1712487214 309637972 510013751 369765402 -1710202535 1118505162 -521003770 785553644 1117767830 -534667660 -522714326 628075878 -2062336966 2069907066 282479383 933873578
REM
CELL 1.54180   50.00000   50.00000   50.00000   90.00000   90.00000   90.00000
LATT -1
SFAC C  
C      1  0.4666230000000  0.5387710000000  0.4600280000000 1.0
C      1  0.4679240000000  0.4893810000000  0.4363740000000 1.0
C      1  0.4861090000000  0.5258360000000  0.5152120000000 1.0
C      1  0.5033760000000  0.5144160000000  0.4902970000000 1.0
C      1  0.4783380000000  0.4638300000000  0.4368810000000 1.0
C      1  0.5624310000000  0.5355390000000  0.5077880000000 1.0
C      1  0.5235310000000  0.4177840000000  0.4704870000000 1.0
C      1  0.4744920000000  0.5369190000000  0.4327380000000 1.0
C      1  0.4505850000000  0.5004610000000  0.4940830000000 1.0
C      1  0.5362910000000  0.4617490000000  0.5819450000000 1.0
C      1  0.4319690000000  0.5565600000000  0.5675350000000 1.0
C      1  0.4554750000000  0.5266760000000  0.5084550000000 1.0
C      1  0.5215260000000  0.4707860000000  0.4951760000000 1.0
C      1  0.5185960000000  0.4604510000000  0.5610080000000 1.0
C      1  0.5552290000000  0.4494630000000  0.4953830000000 1.0
C      1  0.5230740000000  0.5230880000000  0.4248400000000 1.0
C      1  0.5765670000000  0.4639740000000  0.4844010000000 1.0
C      1  0.5160240000000  0.5307260000000  0.5512850000000 1.0
C      1  0.5543980000000  0.5520000000000  0.4814460000000 1.0
C      1  0.4894680000000  0.4154030000000  0.5026170000000 1.0
C      1  0.5509380000000  0.5108720000000  0.5126370000000 1.0
C      1  0.5368010000000  0.6006170000000  0.5391900000000 1.0
C      1  0.5254340000000  0.4398560000000  0.5374820000000 1.0
C      1  0.4636880000000  0.4936710000000  0.5556450000000 1.0
C      1  0.5303170000000  0.4989440000000  0.4921790000000 1.0
C      1  0.4446360000000  0.4951870000000  0.5297650000000 1.0
C      1  0.4899260000000  0.5118700000000  0.5438960000000 1.0
C      1  0.5488610000000  0.4405180000000  0.5214050000000 1.0
C      1  0.4435620000000  0.4874350000000  0.5776700000000 1.0
C      1  0.4430120000000  0.4727710000000  0.5066400000000 1.0
C      1  0.5574800000000  0.5667610000000  0.5099860000000 1.0
C      1  0.5035090000000  0.4639020000000  0.5144020000000 1.0
C      1  0.4816090000000  0.4341950000000  0.4538050000000 1.0
C      1  0.5022960000000  0.4602890000000  0.4607620000000 1.0
C      1  0.5231610000000  0.5136140000000  0.4557630000000 1.0
C      1  0.4637050000000  0.4993020000000  0.4657820000000 1.0
C      1  0.4972820000000  0.4937310000000  0.4654450000000 1.0
C      1  0.5292950000000  0.5481900000000  0.4664770000000 1.0
C      1  0.5286900000000  0.5477250000000  0.4356760000000 1.0
C      1  0.4718350000000  0.5121130000000  0.4198510000000 1.0
C      1  0.5306980000000  0.4480230000000  0.4749030000000 1.0
C      1  0.5329650000000  0.5762430000000  0.5254860000000 1.0
C      1  0.5236000000000  0.5531970000000  0.5444770000000 1.0
C      1  0.5069710000000  0.5603250000000  0.4816020000000 1.0
C      1  0.4696770000000  0.5267990000000  0.5667840000000 1.0
C      1  0.5127270000000  0.5787080000000  0.5010760000000 1.0
C      1  0.4964560000000  0.4146720000000  0.4750390000000 1.0
C      1  0.4414220000000  0.5249660000000  0.4645930000000 1.0
C      1  0.4557000000000  0.5463760000000  0.5771050000000 1.0
C      1  0.5720350000000  0.4857530000000  0.4681050000000 1.0
C      1  0.5008320000000  0.4341680000000  0.5203520000000 1.0
C      1  0.5498610000000  0.5003820000000  0.4663420000000 1.0
C      1  0.5195900000000  0.4602810000000  0.4325270000000 1.0
C      1  0.4783110000000  0.4490780000000  0.4841990000000 1.0
C      1  0.4840320000000  0.5409190000000  0.4843640000000 1.0
C      1  0.4333950000000  0.5272810000000  0.5286620000000 1.0
C      1  0.5035510000000  0.4811590000000  0.5386640000000 1.0
C      1  0.4206830000000  0.5450420000000  0.5451370000000 1.0
C      1  0.4858960000000  0.4693710000000  0.5642980000000 1.0
C      1  0.4535340000000  0.4518840000000  0.4938490000000 1.0
END
