TITL C-26735-8354-94 -0.000673030512825856 125000 -328.668396341936 0 0 60 (C1) n - 1
REM
REM in /home/nfs/bkarasulu/CARBON/AIRSS/Generating-Clusters/AIREBO/Higher-Symm/Only-C60
REM
REM
REM
REM
REM
REM ./C.cell (28575a23ae977d3b5fae324c64b13b57)
REM
REM compiler GCC version 9.2.1 20190827 (Red Hat 9.2.1-1)
REM options -cpp -mtune=generic -march=x86-64 -g -O0 -fpre-include=/usr/include/finclude/math-vector-fortran.h
REM seed 783364831 1373737233 -2147041575 -692125704 740493615 -880471899 56131786 1004444517 137507434 -1334034996 -1954395697 -438071485 -1090518464 1362660022 -467485665 757838912 713391071 -410754929 689258625 1739825369 214870736 1487773341 167596422 1513268501 -426008969 -1345937807 630960308 1429957008 -930345397 784890495 340369205 -514575328 24585952
REM
CELL 1.54180   50.00000   50.00000   50.00000   90.00000   90.00000   90.00000
LATT -1
SFAC C  
C      1  0.5420710000000  0.4761390000000  0.5521770000000 1.0
C      1  0.4480470000000  0.5255930000000  0.4564670000000 1.0
C      1  0.4713750000000  0.4901460000000  0.4837740000000 1.0
C      1  0.5386770000000  0.5028580000000  0.5232500000000 1.0
C      1  0.4652300000000  0.4872420000000  0.5146490000000 1.0
C      1  0.5299420000000  0.5203950000000  0.4783380000000 1.0
C      1  0.5213520000000  0.5701600000000  0.4866950000000 1.0
C      1  0.4756590000000  0.4331060000000  0.5055490000000 1.0
C      1  0.4761820000000  0.5515890000000  0.4670600000000 1.0
C      1  0.5232200000000  0.4335290000000  0.5317820000000 1.0
C      1  0.5120910000000  0.4930650000000  0.4752960000000 1.0
C      1  0.4879200000000  0.5045400000000  0.5331620000000 1.0
C      1  0.5442950000000  0.5810050000000  0.4681310000000 1.0
C      1  0.4484410000000  0.4258140000000  0.5200520000000 1.0
C      1  0.5252930000000  0.4465130000000  0.5014670000000 1.0
C      1  0.4769820000000  0.5496790000000  0.5002060000000 1.0
C      1  0.5172700000000  0.5476210000000  0.5275990000000 1.0
C      1  0.4875650000000  0.4450560000000  0.4579790000000 1.0
C      1  0.5131650000000  0.5166620000000  0.5193570000000 1.0
C      1  0.4978190000000  0.4748110000000  0.4951230000000 1.0
C      1  0.5330090000000  0.5309180000000  0.5509620000000 1.0
C      1  0.4722360000000  0.4704050000000  0.4490630000000 1.0
C      1  0.5427280000000  0.5273020000000  0.4411900000000 1.0
C      1  0.4638930000000  0.4726130000000  0.5516200000000 1.0
C      1  0.4899670000000  0.4736580000000  0.5616860000000 1.0
C      1  0.5275410000000  0.5243140000000  0.4178190000000 1.0
C      1  0.5739940000000  0.5092850000000  0.5082150000000 1.0
C      1  0.4267760000000  0.4941810000000  0.4867750000000 1.0
C      1  0.5065870000000  0.5085870000000  0.4095710000000 1.0
C      1  0.4973980000000  0.4926440000000  0.5796060000000 1.0
C      1  0.5017390000000  0.5277990000000  0.4916190000000 1.0
C      1  0.5025500000000  0.4783920000000  0.5240310000000 1.0
C      1  0.5140230000000  0.4805770000000  0.4483490000000 1.0
C      1  0.4821350000000  0.5226410000000  0.5581110000000 1.0
C      1  0.4620020000000  0.5020820000000  0.4415830000000 1.0
C      1  0.5346390000000  0.5012410000000  0.5678490000000 1.0
C      1  0.4454700000000  0.4777790000000  0.4687130000000 1.0
C      1  0.5613100000000  0.5262720000000  0.5335720000000 1.0
C      1  0.5446130000000  0.4710980000000  0.4884340000000 1.0
C      1  0.4517480000000  0.5335760000000  0.5136250000000 1.0
C      1  0.5157140000000  0.4602670000000  0.5450260000000 1.0
C      1  0.4754330000000  0.5186270000000  0.4753760000000 1.0
C      1  0.5674360000000  0.4871870000000  0.5324120000000 1.0
C      1  0.4203800000000  0.5185610000000  0.4730260000000 1.0
C      1  0.5484430000000  0.4624480000000  0.5210540000000 1.0
C      1  0.4385800000000  0.5421240000000  0.4850890000000 1.0
C      1  0.4965590000000  0.4444550000000  0.4878490000000 1.0
C      1  0.5053380000000  0.5638930000000  0.5082240000000 1.0
C      1  0.5562200000000  0.5052480000000  0.4516590000000 1.0
C      1  0.4447150000000  0.4941970000000  0.5481880000000 1.0
C      1  0.4623470000000  0.4564890000000  0.5249740000000 1.0
C      1  0.5349260000000  0.5486820000000  0.4635030000000 1.0
C      1  0.5283700000000  0.4099260000000  0.5407060000000 1.0
C      1  0.4760140000000  0.5673710000000  0.4470100000000 1.0
C      1  0.4911640000000  0.4908710000000  0.4295900000000 1.0
C      1  0.5096750000000  0.5234110000000  0.5742840000000 1.0
C      1  0.4546580000000  0.5229590000000  0.5452250000000 1.0
C      1  0.5433270000000  0.4777640000000  0.4559530000000 1.0
C      1  0.4376720000000  0.5026550000000  0.5154340000000 1.0
C      1  0.5560750000000  0.5019810000000  0.4849110000000 1.0
END
