TITL C-26737-6152-74 0.00105025594733302 125000 -306.797394468855 0 0 60 (C1) n - 1
REM
REM in /home/nfs/bkarasulu/CARBON/AIRSS/Generating-Clusters/AIREBO/Higher-Symm/Only-C60
REM
REM
REM
REM
REM
REM ./C.cell (28575a23ae977d3b5fae324c64b13b57)
REM
REM compiler GCC version 9.2.1 20190827 (Red Hat 9.2.1-1)
REM options -cpp -mtune=generic -march=x86-64 -g -O0 -fpre-include=/usr/include/finclude/math-vector-fortran.h
REM seed -102403911 1040172026 1609418377 -910688313 -1925601541 882514509 -707731068 2077632491 2078187816 572105287 425663550 2097897546 -142257324 1374813879 1586800721 23049928 358102215 1942838329 -220075212 773166570 248837504 1758690190 435181153 -160202160 73478795 399410215 -640711 1295979958 1093538371 -158996513 2133734553 96242644 1445348716
REM
CELL 1.54180   50.00000   50.00000   50.00000   90.00000   90.00000   90.00000
LATT -1
SFAC C  
C      1  0.5178890000000  0.5119550000000  0.5128360000000 1.0
C      1  0.5359180000000  0.5079850000000  0.4838470000000 1.0
C      1  0.5462000000000  0.4567180000000  0.4390010000000 1.0
C      1  0.5445620000000  0.4619160000000  0.5621860000000 1.0
C      1  0.5203860000000  0.4803800000000  0.5635470000000 1.0
C      1  0.5223540000000  0.4747930000000  0.4327340000000 1.0
C      1  0.4893950000000  0.5280000000000  0.4444720000000 1.0
C      1  0.5019940000000  0.5280130000000  0.5655730000000 1.0
C      1  0.4850840000000  0.5178760000000  0.5196900000000 1.0
C      1  0.4784300000000  0.5149770000000  0.4864220000000 1.0
C      1  0.4633460000000  0.4625850000000  0.4448430000000 1.0
C      1  0.4620920000000  0.4616980000000  0.5540570000000 1.0
C      1  0.4874350000000  0.5001050000000  0.4572020000000 1.0
C      1  0.4928620000000  0.5063010000000  0.5507070000000 1.0
C      1  0.4615710000000  0.4749010000000  0.5163320000000 1.0
C      1  0.4598270000000  0.4747890000000  0.4844840000000 1.0
C      1  0.4493290000000  0.5033940000000  0.4731750000000 1.0
C      1  0.4552390000000  0.5029260000000  0.5281420000000 1.0
C      1  0.5233340000000  0.4221590000000  0.4748130000000 1.0
C      1  0.5279440000000  0.4213140000000  0.5253930000000 1.0
C      1  0.4427560000000  0.5321530000000  0.4883490000000 1.0
C      1  0.4474710000000  0.5311000000000  0.5171970000000 1.0
C      1  0.5218920000000  0.4504200000000  0.5169910000000 1.0
C      1  0.5203790000000  0.4516640000000  0.4845330000000 1.0
C      1  0.4904250000000  0.4640350000000  0.4742080000000 1.0
C      1  0.4901810000000  0.4590860000000  0.5257010000000 1.0
C      1  0.4838020000000  0.5790010000000  0.5170420000000 1.0
C      1  0.4907390000000  0.5687000000000  0.4873960000000 1.0
C      1  0.5183410000000  0.5530120000000  0.5493090000000 1.0
C      1  0.5171270000000  0.5430690000000  0.4484130000000 1.0
C      1  0.4408490000000  0.4504680000000  0.5097860000000 1.0
C      1  0.4356990000000  0.4486290000000  0.4813860000000 1.0
C      1  0.5327470000000  0.5010840000000  0.5414230000000 1.0
C      1  0.5372120000000  0.4984020000000  0.4512460000000 1.0
C      1  0.4456950000000  0.4838960000000  0.5519080000000 1.0
C      1  0.4467910000000  0.4843780000000  0.4472270000000 1.0
C      1  0.5591620000000  0.5482540000000  0.5400500000000 1.0
C      1  0.5630690000000  0.5416310000000  0.4571490000000 1.0
C      1  0.5007140000000  0.4830430000000  0.5078200000000 1.0
C      1  0.5099210000000  0.4913850000000  0.4795350000000 1.0
C      1  0.5369980000000  0.5379580000000  0.5169530000000 1.0
C      1  0.5623570000000  0.5235380000000  0.4846850000000 1.0
C      1  0.4799840000000  0.4329100000000  0.4830750000000 1.0
C      1  0.4765740000000  0.4315720000000  0.5110750000000 1.0
C      1  0.4895900000000  0.5606430000000  0.4542720000000 1.0
C      1  0.4886030000000  0.5659530000000  0.5482200000000 1.0
C      1  0.5410590000000  0.4693350000000  0.5318640000000 1.0
C      1  0.5403810000000  0.4685010000000  0.4674210000000 1.0
C      1  0.4563430000000  0.4403680000000  0.5356860000000 1.0
C      1  0.4583380000000  0.4412990000000  0.4629270000000 1.0
C      1  0.5403350000000  0.5277400000000  0.5551030000000 1.0
C      1  0.5397260000000  0.5291950000000  0.4446490000000 1.0
C      1  0.4916310000000  0.4727070000000  0.5559110000000 1.0
C      1  0.4937750000000  0.4708170000000  0.4410550000000 1.0
C      1  0.5228050000000  0.5608820000000  0.4877120000000 1.0
C      1  0.5160150000000  0.5709080000000  0.5199540000000 1.0
C      1  0.4718640000000  0.5485200000000  0.5262290000000 1.0
C      1  0.4690120000000  0.5457830000000  0.4754920000000 1.0
C      1  0.5547490000000  0.5556560000000  0.4860990000000 1.0
C      1  0.5496970000000  0.5695210000000  0.5154900000000 1.0
END
