TITL C-26736-6558-80 -0.000787256354942461 125000 -335.384110314436 0 0 60 (C1) n - 1
REM
REM in /home/nfs/bkarasulu/CARBON/AIRSS/Generating-Clusters/AIREBO/Higher-Symm/Only-C60
REM
REM
REM
REM
REM
REM ./C.cell (28575a23ae977d3b5fae324c64b13b57)
REM
REM compiler GCC version 9.2.1 20190827 (Red Hat 9.2.1-1)
REM options -cpp -mtune=generic -march=x86-64 -g -O0 -fpre-include=/usr/include/finclude/math-vector-fortran.h
REM seed 1531705567 -783609694 -1451811258 115724713 823823945 814721207 -123206 1112664690 2124036878 1055895644 2003649992 -44328519 1240359836 1406683901 -959723388 -2049442144 -1823304565 -1402698731 1421024198 -459575954 1237713847 -385114439 509676783 -1880874286 -1464538024 2005521670 1709518682 1691571826 1277839495 -1738916097 1589964726 -2054168761 -932777145
REM
CELL 1.54180   50.00000   50.00000   50.00000   90.00000   90.00000   90.00000
LATT -1
SFAC C  
C      1  0.5312260000000  0.5587610000000  0.4829260000000 1.0
C      1  0.4680230000000  0.5566130000000  0.5249810000000 1.0
C      1  0.5330530000000  0.4407320000000  0.4791440000000 1.0
C      1  0.4679360000000  0.4413870000000  0.5224790000000 1.0
C      1  0.4438180000000  0.5441300000000  0.5332580000000 1.0
C      1  0.5563610000000  0.5486470000000  0.4807820000000 1.0
C      1  0.4460250000000  0.4583300000000  0.5257260000000 1.0
C      1  0.5576440000000  0.4521360000000  0.4744660000000 1.0
C      1  0.4717100000000  0.4727920000000  0.4832280000000 1.0
C      1  0.5247160000000  0.4815740000000  0.5103140000000 1.0
C      1  0.4711480000000  0.5243750000000  0.4822670000000 1.0
C      1  0.5179910000000  0.5126670000000  0.4982690000000 1.0
C      1  0.4827010000000  0.4643370000000  0.5611170000000 1.0
C      1  0.5223320000000  0.4562340000000  0.4348720000000 1.0
C      1  0.4812510000000  0.5390050000000  0.5674480000000 1.0
C      1  0.5228040000000  0.5465100000000  0.4372400000000 1.0
C      1  0.4878980000000  0.5563190000000  0.4658780000000 1.0
C      1  0.5143080000000  0.5529750000000  0.5345730000000 1.0
C      1  0.4885470000000  0.4423310000000  0.4643570000000 1.0
C      1  0.5131100000000  0.4458900000000  0.5355620000000 1.0
C      1  0.5626550000000  0.4857760000000  0.4741980000000 1.0
C      1  0.4406080000000  0.4921520000000  0.5237410000000 1.0
C      1  0.5664130000000  0.5172890000000  0.4709280000000 1.0
C      1  0.4305740000000  0.5212650000000  0.5233880000000 1.0
C      1  0.5713910000000  0.5260270000000  0.5256190000000 1.0
C      1  0.4142930000000  0.5300990000000  0.4682700000000 1.0
C      1  0.5733810000000  0.4687310000000  0.5289800000000 1.0
C      1  0.4163440000000  0.4663530000000  0.4714450000000 1.0
C      1  0.5362090000000  0.5112990000000  0.5760790000000 1.0
C      1  0.4651200000000  0.5120490000000  0.4318160000000 1.0
C      1  0.5320570000000  0.4862800000000  0.5752480000000 1.0
C      1  0.4657270000000  0.4866720000000  0.4321440000000 1.0
C      1  0.4857680000000  0.4400500000000  0.5443100000000 1.0
C      1  0.5159560000000  0.4374370000000  0.4567290000000 1.0
C      1  0.4879290000000  0.5582710000000  0.5447790000000 1.0
C      1  0.5153240000000  0.5630020000000  0.4598780000000 1.0
C      1  0.4431440000000  0.5132330000000  0.4774800000000 1.0
C      1  0.5512880000000  0.5145700000000  0.5391860000000 1.0
C      1  0.4426830000000  0.4835600000000  0.4799760000000 1.0
C      1  0.5457440000000  0.4854940000000  0.5347400000000 1.0
C      1  0.5267400000000  0.5291790000000  0.5512120000000 1.0
C      1  0.4834490000000  0.5274930000000  0.4516520000000 1.0
C      1  0.5197970000000  0.4728120000000  0.5489330000000 1.0
C      1  0.4835320000000  0.4725820000000  0.4528800000000 1.0
C      1  0.4836830000000  0.4453590000000  0.4969030000000 1.0
C      1  0.5163810000000  0.4494680000000  0.5035070000000 1.0
C      1  0.4810430000000  0.5526780000000  0.4979210000000 1.0
C      1  0.5133240000000  0.5457870000000  0.5043800000000 1.0
C      1  0.5297600000000  0.4805700000000  0.4778460000000 1.0
C      1  0.4711790000000  0.4875880000000  0.5133890000000 1.0
C      1  0.5336450000000  0.5127720000000  0.4692410000000 1.0
C      1  0.4880560000000  0.5155080000000  0.5106640000000 1.0
C      1  0.4911160000000  0.4886710000000  0.5401280000000 1.0
C      1  0.5134710000000  0.4843310000000  0.4498810000000 1.0
C      1  0.4955390000000  0.5191040000000  0.5438390000000 1.0
C      1  0.5130380000000  0.5161250000000  0.4444050000000 1.0
C      1  0.4236180000000  0.4698750000000  0.5044760000000 1.0
C      1  0.5691810000000  0.4762710000000  0.5037840000000 1.0
C      1  0.4224700000000  0.5255650000000  0.4977580000000 1.0
C      1  0.5757680000000  0.5329030000000  0.4993760000000 1.0
END
