TITL C-26735-8354-52 -0.000338025788032785 125000 -299.523648904006 0 0 60 (C1) n - 1
REM
REM in /home/nfs/bkarasulu/CARBON/AIRSS/Generating-Clusters/AIREBO/Higher-Symm/Only-C60
REM
REM
REM
REM
REM
REM ./C.cell (28575a23ae977d3b5fae324c64b13b57)
REM
REM compiler GCC version 9.2.1 20190827 (Red Hat 9.2.1-1)
REM options -cpp -mtune=generic -march=x86-64 -g -O0 -fpre-include=/usr/include/finclude/math-vector-fortran.h
REM seed -76613241 199174784 1754908364 1724780526 -1115865401 2020947342 -290679658 -1354545020 2108177158 1707270732 1053004555 -1922418333 -194622782 -2122748695 1672040421 -2015840531 -2039165296 -105707956 -1938889610 -1412967267 1588849919 81483126 -215493165 960529941 -117861052 -277783955 -1178632828 1035233904 495640904 1562031042 -116794476 658269142 -232223505
REM
CELL 1.54180   50.00000   50.00000   50.00000   90.00000   90.00000   90.00000
LATT -1
SFAC C  
C      1  0.4438230000000  0.5256740000000  0.4820670000000 1.0
C      1  0.4787980000000  0.4426200000000  0.5245790000000 1.0
C      1  0.5246380000000  0.4784950000000  0.4440690000000 1.0
C      1  0.4587160000000  0.4700570000000  0.5266450000000 1.0
C      1  0.5473470000000  0.4716500000000  0.4909250000000 1.0
C      1  0.5381190000000  0.5336340000000  0.5259090000000 1.0
C      1  0.4965270000000  0.5427250000000  0.4772920000000 1.0
C      1  0.5173880000000  0.5579830000000  0.5243880000000 1.0
C      1  0.5257190000000  0.4560970000000  0.4697890000000 1.0
C      1  0.5247750000000  0.5156200000000  0.5485930000000 1.0
C      1  0.4711340000000  0.5262960000000  0.4617260000000 1.0
C      1  0.4727270000000  0.4954670000000  0.5443900000000 1.0
C      1  0.5472770000000  0.5230920000000  0.4962810000000 1.0
C      1  0.5131640000000  0.4458580000000  0.5266810000000 1.0
C      1  0.4823270000000  0.4953620000000  0.4698100000000 1.0
C      1  0.5387270000000  0.4676540000000  0.5213140000000 1.0
C      1  0.4685210000000  0.4807690000000  0.4963410000000 1.0
C      1  0.4425160000000  0.5252040000000  0.5164650000000 1.0
C      1  0.5248280000000  0.5319390000000  0.4722910000000 1.0
C      1  0.4857800000000  0.5502970000000  0.5222470000000 1.0
C      1  0.4956930000000  0.4669970000000  0.4814420000000 1.0
C      1  0.4691100000000  0.5247880000000  0.5328640000000 1.0
C      1  0.5268310000000  0.5129210000000  0.4459440000000 1.0
C      1  0.5251190000000  0.4828560000000  0.5461960000000 1.0
C      1  0.5076810000000  0.4602640000000  0.5615810000000 1.0
C      1  0.5594360000000  0.5142300000000  0.4657820000000 1.0
C      1  0.4695610000000  0.5672820000000  0.5079030000000 1.0
C      1  0.5096760000000  0.5384750000000  0.4314930000000 1.0
C      1  0.4808650000000  0.5387450000000  0.5600420000000 1.0
C      1  0.4768450000000  0.4711650000000  0.4465570000000 1.0
C      1  0.5625920000000  0.4881840000000  0.5337470000000 1.0
C      1  0.4463240000000  0.4782440000000  0.4712000000000 1.0
C      1  0.4257780000000  0.5065590000000  0.5387100000000 1.0
C      1  0.4698720000000  0.4459890000000  0.4768310000000 1.0
C      1  0.5380490000000  0.4291400000000  0.5106210000000 1.0
C      1  0.5428620000000  0.5588790000000  0.4794430000000 1.0
C      1  0.4818780000000  0.4695920000000  0.5648510000000 1.0
C      1  0.4393560000000  0.5005170000000  0.4608200000000 1.0
C      1  0.5429850000000  0.5664590000000  0.5036670000000 1.0
C      1  0.4864520000000  0.5463420000000  0.4389010000000 1.0
C      1  0.5052150000000  0.5355810000000  0.5654800000000 1.0
C      1  0.4980580000000  0.4596630000000  0.4381240000000 1.0
C      1  0.4346270000000  0.4837290000000  0.5463960000000 1.0
C      1  0.5668840000000  0.4875520000000  0.4680900000000 1.0
C      1  0.5627690000000  0.5131380000000  0.5371040000000 1.0
C      1  0.5440380000000  0.4323850000000  0.4859140000000 1.0
C      1  0.4603500000000  0.4358790000000  0.4981390000000 1.0
C      1  0.4691320000000  0.5630470000000  0.4773240000000 1.0
C      1  0.5059350000000  0.4289760000000  0.4753120000000 1.0
C      1  0.4990440000000  0.4269980000000  0.5021620000000 1.0
C      1  0.4982140000000  0.5763330000000  0.4816290000000 1.0
C      1  0.5009430000000  0.4986210000000  0.4302700000000 1.0
C      1  0.4826340000000  0.4985600000000  0.5767670000000 1.0
C      1  0.5073290000000  0.5840240000000  0.5060470000000 1.0
C      1  0.5782510000000  0.5094430000000  0.5005320000000 1.0
C      1  0.5799520000000  0.4801190000000  0.4957240000000 1.0
C      1  0.4307790000000  0.4747430000000  0.5078080000000 1.0
C      1  0.4280230000000  0.5007770000000  0.4990150000000 1.0
C      1  0.4752570000000  0.5086550000000  0.4329290000000 1.0
C      1  0.5127520000000  0.4976540000000  0.5748360000000 1.0
END
