TITL C-26733-8285-55 -0.000239392766004121 125000 -335.855545389607 0 0 60 (C1) n - 1
REM
REM in /home/nfs/bkarasulu/CARBON/AIRSS/Generating-Clusters/AIREBO/Higher-Symm/Only-C60
REM
REM
REM
REM
REM
REM ./C.cell (28575a23ae977d3b5fae324c64b13b57)
REM
REM compiler GCC version 9.2.1 20190827 (Red Hat 9.2.1-1)
REM options -cpp -mtune=generic -march=x86-64 -g -O0 -fpre-include=/usr/include/finclude/math-vector-fortran.h
REM seed -77569841 1354546024 -1983783772 -544186238 -1733742757 -1617408040 1619215229 641168306 -569583518 -1338711009 1302206539 -816575890 429493950 -1192724943 1866984318 -122213450 1093056428 1349803536 -1110628197 812508758 -602460843 -1362628305 -1810913597 -297511210 -1102069559 1000908382 -643363732 1547829223 1420734826 -267595014 809314555 1872335795 2124116129
REM
CELL 1.54180   50.00000   50.00000   50.00000   90.00000   90.00000   90.00000
LATT -1
SFAC C  
C      1  0.4696370000000  0.5371280000000  0.4479130000000 1.0
C      1  0.4601250000000  0.4647830000000  0.4532060000000 1.0
C      1  0.4658200000000  0.4405120000000  0.5183450000000 1.0
C      1  0.4614720000000  0.5038530000000  0.5536450000000 1.0
C      1  0.4738960000000  0.5616580000000  0.5179200000000 1.0
C      1  0.5139520000000  0.5208000000000  0.4320610000000 1.0
C      1  0.5187930000000  0.4416740000000  0.4592890000000 1.0
C      1  0.5145030000000  0.4443890000000  0.5441560000000 1.0
C      1  0.5205460000000  0.5240530000000  0.5691280000000 1.0
C      1  0.5169830000000  0.5744620000000  0.5008580000000 1.0
C      1  0.4870410000000  0.5407970000000  0.5363920000000 1.0
C      1  0.4822430000000  0.5457490000000  0.4740940000000 1.0
C      1  0.4762670000000  0.4901080000000  0.4483310000000 1.0
C      1  0.4801030000000  0.4458330000000  0.4920990000000 1.0
C      1  0.4761580000000  0.4788160000000  0.5445520000000 1.0
C      1  0.4997470000000  0.4872970000000  0.5226470000000 1.0
C      1  0.5003230000000  0.5175530000000  0.5163620000000 1.0
C      1  0.5019250000000  0.5222760000000  0.4862230000000 1.0
C      1  0.4987720000000  0.4941480000000  0.4726730000000 1.0
C      1  0.5007240000000  0.4722460000000  0.4949620000000 1.0
C      1  0.5284390000000  0.4934210000000  0.4571590000000 1.0
C      1  0.5317620000000  0.4587990000000  0.4929100000000 1.0
C      1  0.5283990000000  0.4813960000000  0.5386020000000 1.0
C      1  0.5253500000000  0.5313600000000  0.5301960000000 1.0
C      1  0.5325620000000  0.5329030000000  0.4784100000000 1.0
C      1  0.4414600000000  0.5719230000000  0.4836250000000 1.0
C      1  0.4385630000000  0.5097020000000  0.4231760000000 1.0
C      1  0.4544730000000  0.4175930000000  0.4610170000000 1.0
C      1  0.4379520000000  0.4501090000000  0.5564230000000 1.0
C      1  0.4548360000000  0.5472380000000  0.5734260000000 1.0
C      1  0.4599960000000  0.5135000000000  0.4398540000000 1.0
C      1  0.4639840000000  0.4425150000000  0.4674420000000 1.0
C      1  0.4585230000000  0.4555830000000  0.5391160000000 1.0
C      1  0.4666690000000  0.5299170000000  0.5557240000000 1.0
C      1  0.4642160000000  0.5598460000000  0.4930050000000 1.0
C      1  0.5857160000000  0.4827700000000  0.5215500000000 1.0
C      1  0.5844850000000  0.5130810000000  0.5190250000000 1.0
C      1  0.5940620000000  0.5224880000000  0.4907400000000 1.0
C      1  0.5841340000000  0.4961090000000  0.4774940000000 1.0
C      1  0.5899440000000  0.4708180000000  0.4937890000000 1.0
C      1  0.5141030000000  0.5522690000000  0.5523720000000 1.0
C      1  0.5127190000000  0.5587100000000  0.4741060000000 1.0
C      1  0.5051570000000  0.4887610000000  0.4337340000000 1.0
C      1  0.5102280000000  0.4338290000000  0.4904250000000 1.0
C      1  0.5042430000000  0.4719670000000  0.5591720000000 1.0
C      1  0.5142280000000  0.5423120000000  0.4443540000000 1.0
C      1  0.5169330000000  0.4586890000000  0.4413280000000 1.0
C      1  0.5182410000000  0.4331640000000  0.5223810000000 1.0
C      1  0.5151090000000  0.5001310000000  0.5721540000000 1.0
C      1  0.5205580000000  0.5706650000000  0.5250530000000 1.0
C      1  0.5600850000000  0.5254160000000  0.4900510000000 1.0
C      1  0.5520020000000  0.4982210000000  0.4722000000000 1.0
C      1  0.5553000000000  0.4762550000000  0.4965970000000 1.0
C      1  0.5528790000000  0.4899840000000  0.5258780000000 1.0
C      1  0.5524290000000  0.5227310000000  0.5222780000000 1.0
C      1  0.4199940000000  0.4434960000000  0.5743310000000 1.0
C      1  0.4454580000000  0.5632130000000  0.5919660000000 1.0
C      1  0.4184550000000  0.5812770000000  0.4752400000000 1.0
C      1  0.4197350000000  0.5062820000000  0.4052660000000 1.0
C      1  0.4475900000000  0.3934250000000  0.4535750000000 1.0
END
