TITL C-26737-6152-211 0.00138283436425999 125000 -327.621181293581 0 0 60 (C1) n - 1
REM
REM in /home/nfs/bkarasulu/CARBON/AIRSS/Generating-Clusters/AIREBO/Higher-Symm/Only-C60
REM
REM
REM
REM
REM
REM ./C.cell (28575a23ae977d3b5fae324c64b13b57)
REM
REM compiler GCC version 9.2.1 20190827 (Red Hat 9.2.1-1)
REM options -cpp -mtune=generic -march=x86-64 -g -O0 -fpre-include=/usr/include/finclude/math-vector-fortran.h
REM seed -207728815 -1040903916 -1084851831 -1116403697 1344071956 1625403678 859459806 -1525922125 -819719004 1462521844 1140648302 1353459038 -979827726 -345808074 1562850219 1879810454 -1330747134 1582708088 -102712679 -148803541 -99859180 476471512 47772044 1872273305 460427081 -340420029 -138789914 -1883337174 478965925 -235190454 -1835278932 1083187352 -629547005
REM
CELL 1.54180   50.00000   50.00000   50.00000   90.00000   90.00000   90.00000
LATT -1
SFAC C  
C      1  0.5106340000000  0.5682300000000  0.4774290000000 1.0
C      1  0.5489450000000  0.4835190000000  0.5290000000000 1.0
C      1  0.4848470000000  0.5219560000000  0.5503640000000 1.0
C      1  0.4943780000000  0.5460450000000  0.5300700000000 1.0
C      1  0.4828660000000  0.4320940000000  0.4718980000000 1.0
C      1  0.5079180000000  0.4518510000000  0.5240020000000 1.0
C      1  0.4278360000000  0.4676800000000  0.4816420000000 1.0
C      1  0.4369290000000  0.5151370000000  0.5055360000000 1.0
C      1  0.5521900000000  0.5245070000000  0.4816380000000 1.0
C      1  0.5313810000000  0.5175220000000  0.4572260000000 1.0
C      1  0.5185330000000  0.4778990000000  0.5432560000000 1.0
C      1  0.4737290000000  0.4999580000000  0.4424280000000 1.0
C      1  0.5112960000000  0.4384800000000  0.4750940000000 1.0
C      1  0.5547630000000  0.5327820000000  0.5145200000000 1.0
C      1  0.4748640000000  0.4937690000000  0.5632050000000 1.0
C      1  0.4742490000000  0.4506800000000  0.5193480000000 1.0
C      1  0.4839120000000  0.5513570000000  0.4811660000000 1.0
C      1  0.5273030000000  0.5501520000000  0.5226060000000 1.0
C      1  0.4474340000000  0.5148030000000  0.4727910000000 1.0
C      1  0.4451800000000  0.4661390000000  0.5108460000000 1.0
C      1  0.5610970000000  0.4778450000000  0.4977250000000 1.0
C      1  0.5247530000000  0.4852880000000  0.4477820000000 1.0
C      1  0.5283180000000  0.5020160000000  0.5627210000000 1.0
C      1  0.4779960000000  0.5244000000000  0.4612820000000 1.0
C      1  0.5204910000000  0.4538000000000  0.4514660000000 1.0
C      1  0.4392440000000  0.4325290000000  0.5173790000000 1.0
C      1  0.4172730000000  0.4933730000000  0.4312320000000 1.0
C      1  0.4793810000000  0.4484010000000  0.5514640000000 1.0
C      1  0.4848680000000  0.5605480000000  0.4481160000000 1.0
C      1  0.5248720000000  0.5490180000000  0.5555110000000 1.0
C      1  0.5586820000000  0.4476430000000  0.4941380000000 1.0
C      1  0.5788860000000  0.5543810000000  0.5030270000000 1.0
C      1  0.4290210000000  0.5408400000000  0.4845830000000 1.0
C      1  0.5547520000000  0.5059710000000  0.5615760000000 1.0
C      1  0.5575070000000  0.4881430000000  0.4509000000000 1.0
C      1  0.4449800000000  0.4915600000000  0.5578250000000 1.0
C      1  0.5168580000000  0.5682700000000  0.4466650000000 1.0
C      1  0.4473910000000  0.5465250000000  0.5112140000000 1.0
C      1  0.4481020000000  0.4949260000000  0.4369980000000 1.0
C      1  0.5062090000000  0.5726840000000  0.5479480000000 1.0
C      1  0.4862000000000  0.4509870000000  0.4468560000000 1.0
C      1  0.4986670000000  0.4257290000000  0.5442150000000 1.0
C      1  0.5560240000000  0.5570260000000  0.4831460000000 1.0
C      1  0.5477770000000  0.4514470000000  0.5243970000000 1.0
C      1  0.4319080000000  0.4384120000000  0.4856240000000 1.0
C      1  0.5853760000000  0.5109100000000  0.5593030000000 1.0
C      1  0.5502090000000  0.5100540000000  0.4299080000000 1.0
C      1  0.4535700000000  0.5191370000000  0.5415070000000 1.0
C      1  0.4291860000000  0.4892990000000  0.4630180000000 1.0
C      1  0.4912330000000  0.4722090000000  0.5595650000000 1.0
C      1  0.5088670000000  0.5360260000000  0.4539360000000 1.0
C      1  0.5652760000000  0.5112420000000  0.5314360000000 1.0
C      1  0.5631590000000  0.4957400000000  0.4771760000000 1.0
C      1  0.4410150000000  0.4918450000000  0.5247620000000 1.0
C      1  0.4929880000000  0.4806960000000  0.4421010000000 1.0
C      1  0.4636160000000  0.4336300000000  0.4931100000000 1.0
C      1  0.5129580000000  0.5249970000000  0.5630020000000 1.0
C      1  0.5261050000000  0.4412900000000  0.4998780000000 1.0
C      1  0.5314890000000  0.5652470000000  0.4948210000000 1.0
C      1  0.4745100000000  0.5513580000000  0.5086200000000 1.0
END
