TITL C-26729-7230-99 -0.000506305541341951 125000 -321.015581828822 0 0 60 (C1) n - 1
REM
REM in /home/nfs/bkarasulu/CARBON/AIRSS/Generating-Clusters/AIREBO/Higher-Symm/Only-C60
REM
REM
REM
REM
REM
REM ./C.cell (28575a23ae977d3b5fae324c64b13b57)
REM
REM compiler GCC version 9.2.1 20190827 (Red Hat 9.2.1-1)
REM options -cpp -mtune=generic -march=x86-64 -g -O0 -fpre-include=/usr/include/finclude/math-vector-fortran.h
REM seed 1260352945 1479686362 -1809161401 48163136 1106920437 213197977 -171422897 -1652668371 1650529439 1423951782 -584164821 -570349339 79756104 -370659264 1903028554 -181208042 -1853797395 2004526701 -136545548 -1058326957 -93723030 -1602018429 -1653667510 -63470808 -626056519 -1823247313 -1478019266 136976327 1454424147 622780404 546606779 -1947993639 404152461
REM
CELL 1.54180   50.00000   50.00000   50.00000   90.00000   90.00000   90.00000
LATT -1
SFAC C  
C      1  0.4671650000000  0.5240190000000  0.5258120000000 1.0
C      1  0.4638150000000  0.4736570000000  0.5272030000000 1.0
C      1  0.4644960000000  0.4739540000000  0.4752770000000 1.0
C      1  0.4651700000000  0.5251820000000  0.4710580000000 1.0
C      1  0.5225700000000  0.4701040000000  0.5273260000000 1.0
C      1  0.5249440000000  0.5275840000000  0.5258530000000 1.0
C      1  0.5404800000000  0.5246490000000  0.4699040000000 1.0
C      1  0.5317080000000  0.4740280000000  0.4729150000000 1.0
C      1  0.4148760000000  0.4694620000000  0.5416020000000 1.0
C      1  0.4151700000000  0.4640780000000  0.4896270000000 1.0
C      1  0.4139460000000  0.5264230000000  0.4681060000000 1.0
C      1  0.4189850000000  0.5404220000000  0.5253230000000 1.0
C      1  0.5766770000000  0.5246020000000  0.5298460000000 1.0
C      1  0.5872390000000  0.5397460000000  0.4598970000000 1.0
C      1  0.5764760000000  0.4946680000000  0.4776010000000 1.0
C      1  0.5727150000000  0.4668280000000  0.5338930000000 1.0
C      1  0.4375220000000  0.5166460000000  0.4850530000000 1.0
C      1  0.4389140000000  0.5293530000000  0.5127060000000 1.0
C      1  0.4332700000000  0.4716800000000  0.5175180000000 1.0
C      1  0.4382310000000  0.4860550000000  0.4871050000000 1.0
C      1  0.5575180000000  0.4789390000000  0.4892990000000 1.0
C      1  0.5534390000000  0.4817260000000  0.5190610000000 1.0
C      1  0.5544700000000  0.5112840000000  0.5259520000000 1.0
C      1  0.5699420000000  0.5208790000000  0.4693050000000 1.0
C      1  0.5261060000000  0.5407220000000  0.4961960000000 1.0
C      1  0.5162630000000  0.4989740000000  0.5420450000000 1.0
C      1  0.5205220000000  0.4560560000000  0.4975880000000 1.0
C      1  0.5273110000000  0.5002520000000  0.4583160000000 1.0
C      1  0.4708090000000  0.4572930000000  0.5008070000000 1.0
C      1  0.4671380000000  0.4993560000000  0.5419480000000 1.0
C      1  0.4747220000000  0.5391060000000  0.4981820000000 1.0
C      1  0.4745450000000  0.4989130000000  0.4585840000000 1.0
C      1  0.4869300000000  0.4984350000000  0.4334640000000 1.0
C      1  0.4838720000000  0.5657780000000  0.4990170000000 1.0
C      1  0.4773280000000  0.4996220000000  0.5679710000000 1.0
C      1  0.4808780000000  0.4312270000000  0.4990240000000 1.0
C      1  0.5148150000000  0.5020420000000  0.4333170000000 1.0
C      1  0.5088680000000  0.4304130000000  0.4972710000000 1.0
C      1  0.5052390000000  0.4996380000000  0.5679660000000 1.0
C      1  0.5113710000000  0.5685530000000  0.4976250000000 1.0
C      1  0.4621790000000  0.4996500000000  0.5901570000000 1.0
C      1  0.4654100000000  0.4092170000000  0.4987530000000 1.0
C      1  0.4730110000000  0.4941290000000  0.4107830000000 1.0
C      1  0.4671170000000  0.5868590000000  0.5001100000000 1.0
C      1  0.5202260000000  0.5002030000000  0.5902950000000 1.0
C      1  0.5259130000000  0.5916630000000  0.4986790000000 1.0
C      1  0.5284340000000  0.5074750000000  0.4107060000000 1.0
C      1  0.5230470000000  0.4075570000000  0.4963040000000 1.0
C      1  0.4927020000000  0.5574010000000  0.5532300000000 1.0
C      1  0.4901400000000  0.4405470000000  0.5544330000000 1.0
C      1  0.4871490000000  0.4607440000000  0.4565490000000 1.0
C      1  0.4738090000000  0.5487850000000  0.4515000000000 1.0
C      1  0.5360010000000  0.4503920000000  0.5476000000000 1.0
C      1  0.5381700000000  0.5484040000000  0.5455990000000 1.0
C      1  0.5202760000000  0.5494470000000  0.4637440000000 1.0
C      1  0.5253140000000  0.4359340000000  0.4401790000000 1.0
C      1  0.4999110000000  0.5569390000000  0.4488150000000 1.0
C      1  0.4940060000000  0.5391800000000  0.5339760000000 1.0
C      1  0.4914190000000  0.4588840000000  0.5352780000000 1.0
C      1  0.5133270000000  0.4542410000000  0.4567480000000 1.0
END
