TITL C-26739-6686-182 0.000536202095867043 125000 -300.331528494134 0 0 60 (C5) n - 1
REM
REM in /home/nfs/bkarasulu/CARBON/AIRSS/Generating-Clusters/AIREBO/Higher-Symm/Only-C60
REM
REM
REM
REM
REM
REM ./C.cell (28575a23ae977d3b5fae324c64b13b57)
REM
REM compiler GCC version 9.2.1 20190827 (Red Hat 9.2.1-1)
REM options -cpp -mtune=generic -march=x86-64 -g -O0 -fpre-include=/usr/include/finclude/math-vector-fortran.h
REM seed -26362930 -795850987 114434264 -1145285451 1975264078 2083491928 -1452592800 -139676135 202150792 1813770792 547095876 1761939481 1743651422 1077441424 -864247336 1204415659 610145493 1269078375 -726740993 465468313 -759095986 569136126 528813619 -1410648545 2015208421 1181203113 -481408637 -2095076289 -770216731 -2095056185 1357870133 1370267565 687309363
REM
CELL 1.54180   50.00000   50.00000   50.00000   90.00000   90.00000   90.00000
LATT -1
SFAC C  
C      1  0.5247630000000  0.4705230000000  0.5762380000000 1.0
C      1  0.5247700000000  0.4183890000000  0.4955180000000 1.0
C      1  0.5247690000000  0.4790430000000  0.4209960000000 1.0
C      1  0.5247550000000  0.5686650000000  0.4556550000000 1.0
C      1  0.5247490000000  0.5633940000000  0.5516000000000 1.0
C      1  0.4832540000000  0.5640380000000  0.5263710000000 1.0
C      1  0.4832620000000  0.4947060000000  0.5690520000000 1.0
C      1  0.4832710000000  0.4326880000000  0.5163060000000 1.0
C      1  0.4832720000000  0.4636910000000  0.4410240000000 1.0
C      1  0.4832610000000  0.5448680000000  0.4472450000000 1.0
C      1  0.5595930000000  0.5019590000000  0.5245920000000 1.0
C      1  0.5595970000000  0.4772250000000  0.5094570000000 1.0
C      1  0.5595970000000  0.4839760000000  0.4812570000000 1.0
C      1  0.5595940000000  0.5128820000000  0.4789630000000 1.0
C      1  0.5595910000000  0.5239960000000  0.5057460000000 1.0
C      1  0.4705340000000  0.5247810000000  0.4913780000000 1.0
C      1  0.4705280000000  0.5158550000000  0.5209060000000 1.0
C      1  0.4705390000000  0.4850120000000  0.5215410000000 1.0
C      1  0.4705380000000  0.4748780000000  0.4924060000000 1.0
C      1  0.4705400000000  0.4994570000000  0.4737640000000 1.0
C      1  0.4331760000000  0.4747220000000  0.5060270000000 1.0
C      1  0.4331720000000  0.4864470000000  0.4778270000000 1.0
C      1  0.4331660000000  0.5168900000000  0.4802630000000 1.0
C      1  0.4331700000000  0.5239790000000  0.5099700000000 1.0
C      1  0.4331670000000  0.4979180000000  0.5258930000000 1.0
C      1  0.4881150000000  0.5349140000000  0.5398590000000 1.0
C      1  0.4881280000000  0.4728790000000  0.5455220000000 1.0
C      1  0.4881300000000  0.4483220000000  0.4882750000000 1.0
C      1  0.4881300000000  0.4951810000000  0.4472310000000 1.0
C      1  0.4881200000000  0.5486960000000  0.4791110000000 1.0
C      1  0.4973670000000  0.4470810000000  0.5588500000000 1.0
C      1  0.4973710000000  0.4276770000000  0.4678560000000 1.0
C      1  0.4973660000000  0.5082210000000  0.4212840000000 1.0
C      1  0.4973530000000  0.5774030000000  0.4834950000000 1.0
C      1  0.4973510000000  0.5396170000000  0.5685140000000 1.0
C      1  0.4548450000000  0.4752700000000  0.4557400000000 1.0
C      1  0.4548360000000  0.5344450000000  0.4628050000000 1.0
C      1  0.4548300000000  0.5460160000000  0.5212680000000 1.0
C      1  0.4548370000000  0.4939820000000  0.5503370000000 1.0
C      1  0.4548440000000  0.4502610000000  0.5098390000000 1.0
C      1  0.5087910000000  0.4711060000000  0.5027830000000 1.0
C      1  0.5087960000000  0.4884250000000  0.4733800000000 1.0
C      1  0.5087900000000  0.5217420000000  0.4807650000000 1.0
C      1  0.5087840000000  0.5250130000000  0.5147330000000 1.0
C      1  0.5087920000000  0.4937190000000  0.5283410000000 1.0
C      1  0.5148900000000  0.5814270000000  0.5011990000000 1.0
C      1  0.5148930000000  0.5240270000000  0.5778110000000 1.0
C      1  0.5149060000000  0.4334220000000  0.5468920000000 1.0
C      1  0.5149100000000  0.4348300000000  0.4511720000000 1.0
C      1  0.5149020000000  0.5263030000000  0.4229300000000 1.0
C      1  0.5478250000000  0.5036880000000  0.5500830000000 1.0
C      1  0.5478320000000  0.4535140000000  0.5189770000000 1.0
C      1  0.5478340000000  0.4675900000000  0.4616500000000 1.0
C      1  0.5478270000000  0.5264650000000  0.4573230000000 1.0
C      1  0.5478200000000  0.5487720000000  0.5119790000000 1.0
C      1  0.5168290000000  0.5397810000000  0.4530730000000 1.0
C      1  0.5168220000000  0.5569250000000  0.5233320000000 1.0
C      1  0.5168300000000  0.4954050000000  0.5613480000000 1.0
C      1  0.5168370000000  0.4402370000000  0.5145840000000 1.0
C      1  0.5168390000000  0.4676620000000  0.4476680000000 1.0
END
