TITL C-26740-8352-84 -0.00225755863942484 125000 -318.627082160011 0 0 60 (C1) n - 1
REM
REM in /home/nfs/bkarasulu/CARBON/AIRSS/Generating-Clusters/AIREBO/Higher-Symm/Only-C60
REM
REM
REM
REM
REM
REM ./C.cell (28575a23ae977d3b5fae324c64b13b57)
REM
REM compiler GCC version 9.2.1 20190827 (Red Hat 9.2.1-1)
REM options -cpp -mtune=generic -march=x86-64 -g -O0 -fpre-include=/usr/include/finclude/math-vector-fortran.h
REM seed 646096921 -1926417005 -1447234449 1799091480 101957890 2083619369 -1443019853 1798224091 -1186361825 1767135905 -49597838 -1299259996 756874860 -1451791145 1507535146 -1698151111 -1835191264 -1440745556 882969153 305832161 -1566129248 504436672 1683945541 -961475979 -853706409 -779297501 594600001 -1141809057 1810755811 171319194 811115109 896970304 -77171359
REM
CELL 1.54180   50.00000   50.00000   50.00000   90.00000   90.00000   90.00000
LATT -1
SFAC C  
C      1  0.4812340000000  0.5296650000000  0.5658860000000 1.0
C      1  0.4864090000000  0.5732110000000  0.4852920000000 1.0
C      1  0.4841460000000  0.5134140000000  0.4308750000000 1.0
C      1  0.4792460000000  0.4359310000000  0.4667240000000 1.0
C      1  0.4968500000000  0.4370110000000  0.5503810000000 1.0
C      1  0.5076030000000  0.5382900000000  0.5625340000000 1.0
C      1  0.5129510000000  0.5667200000000  0.4794430000000 1.0
C      1  0.5126310000000  0.5019540000000  0.4256150000000 1.0
C      1  0.5065300000000  0.4334490000000  0.4734540000000 1.0
C      1  0.5174800000000  0.4563310000000  0.5551120000000 1.0
C      1  0.4810090000000  0.4905950000000  0.5572340000000 1.0
C      1  0.4861590000000  0.5633750000000  0.5259900000000 1.0
C      1  0.4895500000000  0.5307930000000  0.4551910000000 1.0
C      1  0.4852760000000  0.4791140000000  0.4513520000000 1.0
C      1  0.4997800000000  0.4232140000000  0.5213310000000 1.0
C      1  0.5103260000000  0.4842150000000  0.5559460000000 1.0
C      1  0.5102310000000  0.5497800000000  0.5358290000000 1.0
C      1  0.5152800000000  0.5454070000000  0.4601750000000 1.0
C      1  0.5134360000000  0.4766330000000  0.4412720000000 1.0
C      1  0.5115540000000  0.4384440000000  0.5010930000000 1.0
C      1  0.4855760000000  0.4819270000000  0.4838110000000 1.0
C      1  0.4857100000000  0.4815760000000  0.5163790000000 1.0
C      1  0.4829660000000  0.5115200000000  0.5304980000000 1.0
C      1  0.4869600000000  0.5354150000000  0.5066400000000 1.0
C      1  0.4894150000000  0.5142400000000  0.4818390000000 1.0
C      1  0.5179070000000  0.4758720000000  0.4750520000000 1.0
C      1  0.5153810000000  0.4696620000000  0.5083870000000 1.0
C      1  0.5166360000000  0.5105670000000  0.5351960000000 1.0
C      1  0.5207180000000  0.5317560000000  0.5089160000000 1.0
C      1  0.5212030000000  0.5138380000000  0.4716140000000 1.0
C      1  0.5479890000000  0.5373850000000  0.4892980000000 1.0
C      1  0.5452760000000  0.4967540000000  0.4547080000000 1.0
C      1  0.5435070000000  0.4553320000000  0.4839720000000 1.0
C      1  0.5401990000000  0.4779350000000  0.5303510000000 1.0
C      1  0.5443260000000  0.5295340000000  0.5407500000000 1.0
C      1  0.4622860000000  0.5493730000000  0.4878440000000 1.0
C      1  0.4622470000000  0.4878260000000  0.4358860000000 1.0
C      1  0.4627000000000  0.4570670000000  0.4876700000000 1.0
C      1  0.4572530000000  0.4793180000000  0.5356760000000 1.0
C      1  0.4595360000000  0.5342210000000  0.5400970000000 1.0
C      1  0.4581500000000  0.5798570000000  0.5027370000000 1.0
C      1  0.4536370000000  0.5263680000000  0.4384570000000 1.0
C      1  0.4505530000000  0.4483890000000  0.4577160000000 1.0
C      1  0.4707000000000  0.4319810000000  0.5308200000000 1.0
C      1  0.4509050000000  0.5188750000000  0.5684490000000 1.0
C      1  0.5357680000000  0.5671580000000  0.4980760000000 1.0
C      1  0.5359670000000  0.5202110000000  0.4326680000000 1.0
C      1  0.5301110000000  0.4410660000000  0.4562950000000 1.0
C      1  0.5441450000000  0.4471780000000  0.5428760000000 1.0
C      1  0.5318570000000  0.5205500000000  0.5706250000000 1.0
C      1  0.5540710000000  0.5492610000000  0.5205730000000 1.0
C      1  0.5540810000000  0.5291260000000  0.4602450000000 1.0
C      1  0.5505810000000  0.4681420000000  0.4540530000000 1.0
C      1  0.5517290000000  0.4533360000000  0.5111260000000 1.0
C      1  0.5497790000000  0.4983520000000  0.5518200000000 1.0
C      1  0.4487800000000  0.5515950000000  0.5191560000000 1.0
C      1  0.4504790000000  0.5365200000000  0.4615190000000 1.0
C      1  0.4435850000000  0.4668760000000  0.4374170000000 1.0
C      1  0.4578240000000  0.4530960000000  0.5176250000000 1.0
C      1  0.4418200000000  0.4934000000000  0.5624360000000 1.0
END
