TITL C-26732-6566-107 0.000410640154027369 125000 -333.433070366674 0 0 60 (C1) n - 1
REM
REM in /home/nfs/bkarasulu/CARBON/AIRSS/Generating-Clusters/AIREBO/Higher-Symm/Only-C60
REM
REM
REM
REM
REM
REM ./C.cell (28575a23ae977d3b5fae324c64b13b57)
REM
REM compiler GCC version 9.2.1 20190827 (Red Hat 9.2.1-1)
REM options -cpp -mtune=generic -march=x86-64 -g -O0 -fpre-include=/usr/include/finclude/math-vector-fortran.h
REM seed -2124382476 -1258033016 -1738107575 -1495676070 1392543799 -1134787907 -1422997496 477038521 -1878273676 -971217038 -926553067 -420538936 -637818050 2106136865 1376456816 1299321564 1112981563 582031147 43440482 1579797474 -864231368 -1407273791 -712106369 1927021192 -1972970114 -2059673911 -1756163029 -1325856460 1568185231 -1362139792 229550665 798766060 545655783
REM
CELL 1.54180   50.00000   50.00000   50.00000   90.00000   90.00000   90.00000
LATT -1
SFAC C  
C      1  0.4451670000000  0.4865330000000  0.5480140000000 1.0
C      1  0.4286170000000  0.5118170000000  0.5460280000000 1.0
C      1  0.4327700000000  0.5341310000000  0.5265940000000 1.0
C      1  0.4400290000000  0.5369420000000  0.4988090000000 1.0
C      1  0.4427810000000  0.5371280000000  0.4689830000000 1.0
C      1  0.4460030000000  0.5135690000000  0.4527450000000 1.0
C      1  0.4288720000000  0.4887830000000  0.4545400000000 1.0
C      1  0.4331460000000  0.4661390000000  0.4736630000000 1.0
C      1  0.4411990000000  0.4632440000000  0.5013330000000 1.0
C      1  0.4441320000000  0.4626540000000  0.5308990000000 1.0
C      1  0.5581590000000  0.4920780000000  0.4289010000000 1.0
C      1  0.5421360000000  0.4522380000000  0.4484780000000 1.0
C      1  0.5234940000000  0.4355640000000  0.4828020000000 1.0
C      1  0.5183590000000  0.4377650000000  0.5323810000000 1.0
C      1  0.5215480000000  0.4786170000000  0.5614610000000 1.0
C      1  0.5580040000000  0.5077970000000  0.5710370000000 1.0
C      1  0.5422970000000  0.5477660000000  0.5516400000000 1.0
C      1  0.5238440000000  0.5648720000000  0.5168360000000 1.0
C      1  0.5188600000000  0.5622640000000  0.4675070000000 1.0
C      1  0.5215440000000  0.5210210000000  0.4388640000000 1.0
C      1  0.5499220000000  0.5298090000000  0.5297290000000 1.0
C      1  0.5393890000000  0.5435350000000  0.5065760000000 1.0
C      1  0.5370520000000  0.5419900000000  0.4783880000000 1.0
C      1  0.5401110000000  0.5201420000000  0.4606170000000 1.0
C      1  0.5559360000000  0.4958340000000  0.4580040000000 1.0
C      1  0.5500810000000  0.4702460000000  0.4702850000000 1.0
C      1  0.5393080000000  0.4565900000000  0.4934400000000 1.0
C      1  0.5366710000000  0.4580160000000  0.5216210000000 1.0
C      1  0.5398270000000  0.4797460000000  0.5394790000000 1.0
C      1  0.5555940000000  0.5041190000000  0.5419330000000 1.0
C      1  0.4738170000000  0.4579500000000  0.5049960000000 1.0
C      1  0.4773230000000  0.4651790000000  0.5380430000000 1.0
C      1  0.4774790000000  0.4948310000000  0.5548730000000 1.0
C      1  0.4592890000000  0.5231440000000  0.5540900000000 1.0
C      1  0.4663300000000  0.5437670000000  0.5280880000000 1.0
C      1  0.4719930000000  0.5431650000000  0.4945430000000 1.0
C      1  0.4784950000000  0.5345180000000  0.4628490000000 1.0
C      1  0.4777830000000  0.5048830000000  0.4461940000000 1.0
C      1  0.4589270000000  0.4767380000000  0.4452330000000 1.0
C      1  0.4650220000000  0.4549450000000  0.4703630000000 1.0
C      1  0.5340850000000  0.5077880000000  0.5856220000000 1.0
C      1  0.5197620000000  0.5445790000000  0.5669100000000 1.0
C      1  0.5184670000000  0.5808540000000  0.5425870000000 1.0
C      1  0.5080340000000  0.5819710000000  0.4846380000000 1.0
C      1  0.5101090000000  0.5440090000000  0.4240870000000 1.0
C      1  0.5341120000000  0.4920500000000  0.4144970000000 1.0
C      1  0.5197440000000  0.4557030000000  0.4330260000000 1.0
C      1  0.5192540000000  0.4197420000000  0.4569660000000 1.0
C      1  0.5073210000000  0.4184910000000  0.5148380000000 1.0
C      1  0.5104160000000  0.4554750000000  0.5762140000000 1.0
C      1  0.4900150000000  0.5325570000000  0.5585460000000 1.0
C      1  0.4923800000000  0.5596180000000  0.5404480000000 1.0
C      1  0.4913370000000  0.5664450000000  0.5069940000000 1.0
C      1  0.4991030000000  0.5521590000000  0.4500270000000 1.0
C      1  0.5064570000000  0.4942870000000  0.4325890000000 1.0
C      1  0.4896070000000  0.4670780000000  0.4411760000000 1.0
C      1  0.4920010000000  0.4396210000000  0.4589730000000 1.0
C      1  0.4912650000000  0.4348430000000  0.4926280000000 1.0
C      1  0.4989640000000  0.4475390000000  0.5503960000000 1.0
C      1  0.5062540000000  0.5051230000000  0.5679800000000 1.0
END
