TITL C-26734-8308-99 0.00210719791429484 125000 -344.079058759885 0 0 60 (C1) n - 1
REM
REM in /home/nfs/bkarasulu/CARBON/AIRSS/Generating-Clusters/AIREBO/Higher-Symm/Only-C60
REM
REM
REM
REM
REM
REM ./C.cell (28575a23ae977d3b5fae324c64b13b57)
REM
REM compiler GCC version 9.2.1 20190827 (Red Hat 9.2.1-1)
REM options -cpp -mtune=generic -march=x86-64 -g -O0 -fpre-include=/usr/include/finclude/math-vector-fortran.h
REM seed 1825830935 1577672300 -168716426 -798113338 -1699556135 -1444953879 347914392 1485221532 672370703 -204404096 1503145638 -1139710542 -530725028 1026955004 417902075 1535191031 509322379 167847433 -453341729 -905305152 -1862044092 -1447345505 -456628105 -1124025650 1912965234 -1912863922 -601431175 1903651681 520455393 1415277167 751864400 1105413013 494047803
REM
CELL 1.54180   50.00000   50.00000   50.00000   90.00000   90.00000   90.00000
LATT -1
SFAC C  
C      1  0.5417530000000  0.4644110000000  0.4459670000000 1.0
C      1  0.4589570000000  0.4632070000000  0.5624840000000 1.0
C      1  0.5397130000000  0.5294280000000  0.4346520000000 1.0
C      1  0.4605100000000  0.5294080000000  0.5658070000000 1.0
C      1  0.4677000000000  0.5417510000000  0.4932880000000 1.0
C      1  0.5315490000000  0.5417610000000  0.5064210000000 1.0
C      1  0.4681850000000  0.4594910000000  0.4805890000000 1.0
C      1  0.5323150000000  0.4596370000000  0.5201730000000 1.0
C      1  0.4863280000000  0.4406060000000  0.5267630000000 1.0
C      1  0.5157750000000  0.4418030000000  0.4661720000000 1.0
C      1  0.4896860000000  0.5709370000000  0.5253570000000 1.0
C      1  0.5096240000000  0.5710590000000  0.4745600000000 1.0
C      1  0.4860870000000  0.5176240000000  0.5285760000000 1.0
C      1  0.5133670000000  0.5177360000000  0.4706950000000 1.0
C      1  0.4822520000000  0.4864540000000  0.5243560000000 1.0
C      1  0.5193160000000  0.4863400000000  0.4739010000000 1.0
C      1  0.5006130000000  0.4201730000000  0.4854000000000 1.0
C      1  0.4935900000000  0.4175970000000  0.5096600000000 1.0
C      1  0.5015000000000  0.5950300000000  0.4862750000000 1.0
C      1  0.4977310000000  0.5949780000000  0.5137240000000 1.0
C      1  0.4540190000000  0.4798290000000  0.5117430000000 1.0
C      1  0.5465650000000  0.4779290000000  0.4877840000000 1.0
C      1  0.4540710000000  0.5200700000000  0.5254020000000 1.0
C      1  0.5450920000000  0.5204490000000  0.4732430000000 1.0
C      1  0.4642500000000  0.5576170000000  0.5172860000000 1.0
C      1  0.5350560000000  0.5577570000000  0.4827200000000 1.0
C      1  0.4568190000000  0.4418450000000  0.4998350000000 1.0
C      1  0.5464990000000  0.4407680000000  0.5053190000000 1.0
C      1  0.4856460000000  0.4809620000000  0.4335460000000 1.0
C      1  0.5132080000000  0.4798320000000  0.5636360000000 1.0
C      1  0.4886440000000  0.5117070000000  0.4298800000000 1.0
C      1  0.5105010000000  0.5105640000000  0.5688330000000 1.0
C      1  0.4222940000000  0.4906720000000  0.5060700000000 1.0
C      1  0.5776940000000  0.4909360000000  0.4920200000000 1.0
C      1  0.4377350000000  0.5153500000000  0.5039560000000 1.0
C      1  0.5609670000000  0.5145530000000  0.4945680000000 1.0
C      1  0.4515040000000  0.4876510000000  0.4787500000000 1.0
C      1  0.5482540000000  0.4873080000000  0.5206990000000 1.0
C      1  0.4500670000000  0.5216660000000  0.4750020000000 1.0
C      1  0.5490890000000  0.5211580000000  0.5238380000000 1.0
C      1  0.4460400000000  0.5092090000000  0.5795710000000 1.0
C      1  0.5553600000000  0.5081330000000  0.4241990000000 1.0
C      1  0.4466550000000  0.4817400000000  0.5774420000000 1.0
C      1  0.5557770000000  0.4814000000000  0.4306970000000 1.0
C      1  0.5469730000000  0.4470100000000  0.4736320000000 1.0
C      1  0.4570540000000  0.4540070000000  0.5315980000000 1.0
C      1  0.5513140000000  0.5468730000000  0.4577000000000 1.0
C      1  0.4483720000000  0.5456290000000  0.5424810000000 1.0
C      1  0.5006460000000  0.5411040000000  0.5159500000000 1.0
C      1  0.4987090000000  0.5411010000000  0.4836050000000 1.0
C      1  0.5036120000000  0.4635850000000  0.5142580000000 1.0
C      1  0.4975540000000  0.4636270000000  0.4841770000000 1.0
C      1  0.4632220000000  0.5102970000000  0.4482080000000 1.0
C      1  0.5361350000000  0.5099060000000  0.5511430000000 1.0
C      1  0.4582490000000  0.4782230000000  0.4468960000000 1.0
C      1  0.5423960000000  0.4784100000000  0.5530110000000 1.0
C      1  0.5090950000000  0.4690260000000  0.4464800000000 1.0
C      1  0.4888750000000  0.4682500000000  0.5509770000000 1.0
C      1  0.5122200000000  0.5224850000000  0.4400050000000 1.0
C      1  0.4872180000000  0.5219310000000  0.5590170000000 1.0
END
