TITL C-26733-8285-89 -0.000809878399162275 125000 -335.237374130251 0 0 60 (C1) n - 1
REM
REM in /home/nfs/bkarasulu/CARBON/AIRSS/Generating-Clusters/AIREBO/Higher-Symm/Only-C60
REM
REM
REM
REM
REM
REM ./C.cell (28575a23ae977d3b5fae324c64b13b57)
REM
REM compiler GCC version 9.2.1 20190827 (Red Hat 9.2.1-1)
REM options -cpp -mtune=generic -march=x86-64 -g -O0 -fpre-include=/usr/include/finclude/math-vector-fortran.h
REM seed -296673096 1978511741 1236684024 1264388069 -1003881240 381626992 2019162938 2138431586 864718392 1637559453 1006953889 287388905 -1263291430 -689099397 1206356176 1177455950 -751580773 -1660783667 -2010020033 -578272191 -1736536636 -526353521 614493678 2024139506 -515069484 -685932657 1858371660 678171406 -298141375 1915829862 1016119564 2095165948 1235872833
REM
CELL 1.54180   50.00000   50.00000   50.00000   90.00000   90.00000   90.00000
LATT -1
SFAC C  
C      1  0.5336060000000  0.4512870000000  0.5025880000000 1.0
C      1  0.4513230000000  0.5125430000000  0.5345930000000 1.0
C      1  0.5080430000000  0.5366200000000  0.4562900000000 1.0
C      1  0.5220550000000  0.5431320000000  0.5018270000000 1.0
C      1  0.4877860000000  0.4374090000000  0.4883780000000 1.0
C      1  0.4668520000000  0.5440420000000  0.5010830000000 1.0
C      1  0.4515150000000  0.4967120000000  0.4853920000000 1.0
C      1  0.5487300000000  0.5129640000000  0.4689920000000 1.0
C      1  0.5417500000000  0.4988740000000  0.5204010000000 1.0
C      1  0.5093270000000  0.4720600000000  0.5511190000000 1.0
C      1  0.5003500000000  0.5220400000000  0.5427110000000 1.0
C      1  0.5035360000000  0.4828860000000  0.4640410000000 1.0
C      1  0.5210710000000  0.5094290000000  0.4518680000000 1.0
C      1  0.4472840000000  0.5213690000000  0.5068050000000 1.0
C      1  0.4856190000000  0.4314840000000  0.5153760000000 1.0
C      1  0.5153180000000  0.4950690000000  0.5362260000000 1.0
C      1  0.4734160000000  0.4873160000000  0.4624750000000 1.0
C      1  0.4739630000000  0.5170810000000  0.5568060000000 1.0
C      1  0.4329670000000  0.4742290000000  0.4954500000000 1.0
C      1  0.5548940000000  0.4728070000000  0.5123050000000 1.0
C      1  0.5352830000000  0.5158500000000  0.4962560000000 1.0
C      1  0.5178510000000  0.5547850000000  0.4747330000000 1.0
C      1  0.4954490000000  0.5408690000000  0.5174220000000 1.0
C      1  0.5105060000000  0.4552930000000  0.4810910000000 1.0
C      1  0.5654380000000  0.5416770000000  0.5250370000000 1.0
C      1  0.5455430000000  0.5219330000000  0.5634510000000 1.0
C      1  0.5284170000000  0.5626060000000  0.5461450000000 1.0
C      1  0.5643440000000  0.4671110000000  0.4825070000000 1.0
C      1  0.4334800000000  0.5421460000000  0.4690290000000 1.0
C      1  0.4333170000000  0.4670740000000  0.5228080000000 1.0
C      1  0.5484580000000  0.4751230000000  0.4386820000000 1.0
C      1  0.4647190000000  0.5218110000000  0.4402740000000 1.0
C      1  0.4641780000000  0.4844710000000  0.5589830000000 1.0
C      1  0.5325750000000  0.4378440000000  0.4637880000000 1.0
C      1  0.4719070000000  0.5660250000000  0.4575650000000 1.0
C      1  0.4714050000000  0.4422250000000  0.5367340000000 1.0
C      1  0.5591080000000  0.5169430000000  0.5384710000000 1.0
C      1  0.5416190000000  0.5574440000000  0.5209870000000 1.0
C      1  0.5217950000000  0.5377460000000  0.5592470000000 1.0
C      1  0.5597970000000  0.4857210000000  0.4626010000000 1.0
C      1  0.4376270000000  0.4872820000000  0.5420440000000 1.0
C      1  0.4447730000000  0.5171170000000  0.4602820000000 1.0
C      1  0.5591110000000  0.4403790000000  0.4738170000000 1.0
C      1  0.4433360000000  0.4424600000000  0.5324000000000 1.0
C      1  0.4550300000000  0.5587570000000  0.4794330000000 1.0
C      1  0.5247750000000  0.4600480000000  0.4446290000000 1.0
C      1  0.4819480000000  0.4642540000000  0.5513880000000 1.0
C      1  0.4836130000000  0.5428950000000  0.4453620000000 1.0
C      1  0.4826820000000  0.5693250000000  0.5260980000000 1.0
C      1  0.5669650000000  0.5333240000000  0.4623430000000 1.0
C      1  0.5266800000000  0.5065120000000  0.4239110000000 1.0
C      1  0.5729950000000  0.4635790000000  0.5318620000000 1.0
C      1  0.4201720000000  0.5308310000000  0.5048510000000 1.0
C      1  0.4177580000000  0.4606660000000  0.4770350000000 1.0
C      1  0.5370760000000  0.4266080000000  0.5114900000000 1.0
C      1  0.5275590000000  0.4586570000000  0.5658010000000 1.0
C      1  0.4624510000000  0.4819060000000  0.4387770000000 1.0
C      1  0.4682400000000  0.5337300000000  0.5784140000000 1.0
C      1  0.4721830000000  0.4259350000000  0.4690030000000 1.0
C      1  0.5204330000000  0.5816860000000  0.4705250000000 1.0
END
