TITL C-26740-8352-76 -0.000407922700317273 125000 -332.90966086785 0 0 60 (C1) n - 1
REM
REM in /home/nfs/bkarasulu/CARBON/AIRSS/Generating-Clusters/AIREBO/Higher-Symm/Only-C60
REM
REM
REM
REM
REM
REM ./C.cell (28575a23ae977d3b5fae324c64b13b57)
REM
REM compiler GCC version 9.2.1 20190827 (Red Hat 9.2.1-1)
REM options -cpp -mtune=generic -march=x86-64 -g -O0 -fpre-include=/usr/include/finclude/math-vector-fortran.h
REM seed 872948119 2077449418 1415614864 -499291095 1481745011 -1692229008 1352311420 269298293 1362993175 138217716 836514033 1323499615 1813993340 740610092 1225571296 1818250010 -511922759 -1182942667 531415392 -1775355593 -1684530988 -38680511 918576552 1497446228 -1622266874 430354626 1352899067 1476069267 -472451210 -1304966621 -808106022 757623224 -1306100325
REM
CELL 1.54180   50.00000   50.00000   50.00000   90.00000   90.00000   90.00000
LATT -1
SFAC C  
C      1  0.4476820000000  0.5215340000000  0.4734500000000 1.0
C      1  0.5526080000000  0.5220260000000  0.5256380000000 1.0
C      1  0.4558290000000  0.4603930000000  0.4664270000000 1.0
C      1  0.5448910000000  0.4568490000000  0.5332030000000 1.0
C      1  0.4450860000000  0.4935270000000  0.5385940000000 1.0
C      1  0.5531960000000  0.4920480000000  0.4604350000000 1.0
C      1  0.4556830000000  0.5200020000000  0.5398140000000 1.0
C      1  0.5393150000000  0.5166240000000  0.4594480000000 1.0
C      1  0.4997150000000  0.5399830000000  0.4753280000000 1.0
C      1  0.4995740000000  0.5380760000000  0.5277720000000 1.0
C      1  0.5060060000000  0.4668570000000  0.4725950000000 1.0
C      1  0.4952500000000  0.4728580000000  0.5278090000000 1.0
C      1  0.5323230000000  0.4299910000000  0.5055990000000 1.0
C      1  0.4770450000000  0.4210110000000  0.4915470000000 1.0
C      1  0.5324950000000  0.5856970000000  0.5047130000000 1.0
C      1  0.4668430000000  0.5874000000000  0.5000740000000 1.0
C      1  0.5420070000000  0.4741160000000  0.4403780000000 1.0
C      1  0.4578310000000  0.4768280000000  0.5588050000000 1.0
C      1  0.5274180000000  0.5294550000000  0.4374160000000 1.0
C      1  0.4662530000000  0.5325910000000  0.5630470000000 1.0
C      1  0.5037200000000  0.4672100000000  0.5783370000000 1.0
C      1  0.4957420000000  0.4658330000000  0.4208880000000 1.0
C      1  0.5142200000000  0.5278090000000  0.5767660000000 1.0
C      1  0.4894720000000  0.5264780000000  0.4253870000000 1.0
C      1  0.4664500000000  0.4808070000000  0.4197620000000 1.0
C      1  0.5338150000000  0.4799840000000  0.5795460000000 1.0
C      1  0.4635680000000  0.5077360000000  0.4224880000000 1.0
C      1  0.5380340000000  0.5065770000000  0.5763330000000 1.0
C      1  0.4414840000000  0.5191620000000  0.4401030000000 1.0
C      1  0.5598660000000  0.5172800000000  0.5582830000000 1.0
C      1  0.4467070000000  0.4632700000000  0.4355580000000 1.0
C      1  0.5526070000000  0.4608850000000  0.5644710000000 1.0
C      1  0.5224640000000  0.4500000000000  0.5561760000000 1.0
C      1  0.4762220000000  0.4503280000000  0.4432260000000 1.0
C      1  0.5342020000000  0.5366220000000  0.5506790000000 1.0
C      1  0.4678660000000  0.5362230000000  0.4497970000000 1.0
C      1  0.4785320000000  0.4907990000000  0.5131850000000 1.0
C      1  0.5216340000000  0.4862060000000  0.4870490000000 1.0
C      1  0.4757620000000  0.5215270000000  0.5162960000000 1.0
C      1  0.5215180000000  0.5185570000000  0.4849130000000 1.0
C      1  0.5223350000000  0.4850920000000  0.4168980000000 1.0
C      1  0.4781510000000  0.4883720000000  0.5820830000000 1.0
C      1  0.5174770000000  0.5120740000000  0.4152570000000 1.0
C      1  0.4840250000000  0.5152020000000  0.5813490000000 1.0
C      1  0.5615280000000  0.4873680000000  0.4878330000000 1.0
C      1  0.4388290000000  0.4870380000000  0.5109030000000 1.0
C      1  0.5699110000000  0.5083140000000  0.5036920000000 1.0
C      1  0.4291900000000  0.5072480000000  0.4943270000000 1.0
C      1  0.5123070000000  0.4549690000000  0.5101420000000 1.0
C      1  0.4857660000000  0.4500880000000  0.4907020000000 1.0
C      1  0.5134200000000  0.5631830000000  0.5093470000000 1.0
C      1  0.4851220000000  0.5647660000000  0.4936740000000 1.0
C      1  0.4942430000000  0.5439550000000  0.5563070000000 1.0
C      1  0.5050400000000  0.5472800000000  0.4467850000000 1.0
C      1  0.4850340000000  0.4643200000000  0.5515320000000 1.0
C      1  0.5147150000000  0.4613310000000  0.4475340000000 1.0
C      1  0.4609730000000  0.4712970000000  0.4948530000000 1.0
C      1  0.5430740000000  0.4682940000000  0.5044780000000 1.0
C      1  0.4707200000000  0.5353940000000  0.4896260000000 1.0
C      1  0.5272050000000  0.5332550000000  0.5113460000000 1.0
END
