TITL C-26738-6379-3 0.000629117966934359 125000 -321.275499271139 0 0 60 (C1) n - 1
REM
REM in /home/nfs/bkarasulu/CARBON/AIRSS/Generating-Clusters/AIREBO/Higher-Symm/Only-C60
REM
REM
REM
REM
REM
REM ./C.cell (28575a23ae977d3b5fae324c64b13b57)
REM
REM compiler GCC version 9.2.1 20190827 (Red Hat 9.2.1-1)
REM options -cpp -mtune=generic -march=x86-64 -g -O0 -fpre-include=/usr/include/finclude/math-vector-fortran.h
REM seed -878717820 1131655504 1133975692 -173585755 -541653384 -1155861392 -73007733 701852115 1135572424 -550215144 602200748 -132006733 1606564091 -538273141 -867412902 1097484338 -2112456696 1061289852 1838060266 516621156 2058364967 -100871735 1626665464 -1826401657 -884310778 1202401800 -1513767074 172134886 -1664766853 -1824687785 -1842821590 2067281536 -56409838
REM
CELL 1.54180   50.00000   50.00000   50.00000   90.00000   90.00000   90.00000
LATT -1
SFAC C  
C      1  0.4885590000000  0.4945340000000  0.4809200000000 1.0
C      1  0.5204840000000  0.4978240000000  0.4802030000000 1.0
C      1  0.5296410000000  0.4921320000000  0.5069380000000 1.0
C      1  0.5095940000000  0.5040560000000  0.5249750000000 1.0
C      1  0.4837060000000  0.5011480000000  0.5109660000000 1.0
C      1  0.4836190000000  0.5675510000000  0.4803560000000 1.0
C      1  0.5152160000000  0.5641360000000  0.4876260000000 1.0
C      1  0.5199060000000  0.5664130000000  0.5212300000000 1.0
C      1  0.4869670000000  0.5596580000000  0.5269950000000 1.0
C      1  0.4675780000000  0.5698730000000  0.5040130000000 1.0
C      1  0.4396680000000  0.4611230000000  0.4600750000000 1.0
C      1  0.5166270000000  0.4615570000000  0.4282640000000 1.0
C      1  0.5718720000000  0.4517180000000  0.4819890000000 1.0
C      1  0.5193880000000  0.4610910000000  0.5731740000000 1.0
C      1  0.4380430000000  0.4648860000000  0.5361760000000 1.0
C      1  0.4765680000000  0.5001560000000  0.4408120000000 1.0
C      1  0.5538040000000  0.5009130000000  0.4585520000000 1.0
C      1  0.5540000000000  0.5038140000000  0.5392610000000 1.0
C      1  0.4814370000000  0.5047790000000  0.5629530000000 1.0
C      1  0.4342810000000  0.5010110000000  0.4991170000000 1.0
C      1  0.4632820000000  0.4804800000000  0.5248940000000 1.0
C      1  0.4681920000000  0.4747540000000  0.4705260000000 1.0
C      1  0.5181880000000  0.4744030000000  0.4581700000000 1.0
C      1  0.5559710000000  0.4710120000000  0.5028280000000 1.0
C      1  0.5135020000000  0.4831800000000  0.5480040000000 1.0
C      1  0.4480890000000  0.5019530000000  0.4740450000000 1.0
C      1  0.5043170000000  0.5019500000000  0.4438490000000 1.0
C      1  0.5631730000000  0.5005480000000  0.4875600000000 1.0
C      1  0.5335060000000  0.5080170000000  0.5598180000000 1.0
C      1  0.4614180000000  0.5088400000000  0.5429260000000 1.0
C      1  0.5274810000000  0.4524620000000  0.5037420000000 1.0
C      1  0.5095790000000  0.4586150000000  0.5252670000000 1.0
C      1  0.4832630000000  0.4585710000000  0.5147410000000 1.0
C      1  0.4836820000000  0.4525770000000  0.4870190000000 1.0
C      1  0.5115580000000  0.4517740000000  0.4795190000000 1.0
C      1  0.5336550000000  0.5545720000000  0.4606800000000 1.0
C      1  0.5501290000000  0.5540330000000  0.5241300000000 1.0
C      1  0.4939240000000  0.5543440000000  0.5576960000000 1.0
C      1  0.4430590000000  0.5564490000000  0.5084830000000 1.0
C      1  0.4710890000000  0.5581000000000  0.4576880000000 1.0
C      1  0.5667610000000  0.4516430000000  0.4568690000000 1.0
C      1  0.5446360000000  0.4593480000000  0.5555970000000 1.0
C      1  0.4591570000000  0.4581050000000  0.5576090000000 1.0
C      1  0.4247980000000  0.4561380000000  0.4831090000000 1.0
C      1  0.4913240000000  0.4545280000000  0.4224270000000 1.0
C      1  0.4873090000000  0.4731340000000  0.5672460000000 1.0
C      1  0.4282280000000  0.4735710000000  0.5069180000000 1.0
C      1  0.4651040000000  0.4683360000000  0.4372800000000 1.0
C      1  0.5483090000000  0.4715480000000  0.4445170000000 1.0
C      1  0.5582220000000  0.4759380000000  0.5358120000000 1.0
C      1  0.5550120000000  0.5224940000000  0.5122640000000 1.0
C      1  0.5047500000000  0.5239730000000  0.5623930000000 1.0
C      1  0.4425710000000  0.5240190000000  0.5189870000000 1.0
C      1  0.4597580000000  0.5263670000000  0.4533860000000 1.0
C      1  0.5313210000000  0.5220750000000  0.4503030000000 1.0
C      1  0.5262390000000  0.5342250000000  0.4994790000000 1.0
C      1  0.5166950000000  0.5338080000000  0.5321150000000 1.0
C      1  0.4740430000000  0.5316420000000  0.5126860000000 1.0
C      1  0.4787420000000  0.5266190000000  0.4808010000000 1.0
C      1  0.5090080000000  0.5274790000000  0.4740220000000 1.0
END
