TITL C-26730-8313-28 0.000610828284813486 125000 -357.045818104965 0 0 60 (C1) n - 1
REM
REM in /home/nfs/bkarasulu/CARBON/AIRSS/Generating-Clusters/AIREBO/Higher-Symm/Only-C60
REM
REM
REM
REM
REM
REM ./C.cell (28575a23ae977d3b5fae324c64b13b57)
REM
REM compiler GCC version 9.2.1 20190827 (Red Hat 9.2.1-1)
REM options -cpp -mtune=generic -march=x86-64 -g -O0 -fpre-include=/usr/include/finclude/math-vector-fortran.h
REM seed 579693316 -1180321720 -1502038582 -1153863679 -1130090449 435391709 2012641122 515647682 -1596232302 1142052769 77444417 1244371353 612591490 -1532492171 1478875864 -49236403 1404667677 -753348306 -515797153 -527827902 1362499562 -898693436 -759861717 1997174197 -262250595 -1627902566 1555028684 -318709240 1753062985 -987986567 -922313693 -1623655063 -1315674427
REM
CELL 1.54180   50.00000   50.00000   50.00000   90.00000   90.00000   90.00000
LATT -1
SFAC C  
C      1  0.4507330000000  0.4671230000000  0.4387470000000 1.0
C      1  0.5505730000000  0.4709630000000  0.5561660000000 1.0
C      1  0.4494310000000  0.5283690000000  0.4521680000000 1.0
C      1  0.5502350000000  0.5316850000000  0.5549860000000 1.0
C      1  0.5533690000000  0.4719530000000  0.4477680000000 1.0
C      1  0.4524960000000  0.4645040000000  0.5594920000000 1.0
C      1  0.5534060000000  0.5271110000000  0.4465400000000 1.0
C      1  0.4620620000000  0.5299010000000  0.5588910000000 1.0
C      1  0.5325440000000  0.4492110000000  0.5159810000000 1.0
C      1  0.4652030000000  0.4484850000000  0.4839690000000 1.0
C      1  0.5321270000000  0.5515760000000  0.5138390000000 1.0
C      1  0.4648080000000  0.5513070000000  0.4848740000000 1.0
C      1  0.4602220000000  0.4388940000000  0.5119030000000 1.0
C      1  0.5350490000000  0.4489330000000  0.4859300000000 1.0
C      1  0.4627060000000  0.5592200000000  0.5139050000000 1.0
C      1  0.5345250000000  0.5516380000000  0.4837270000000 1.0
C      1  0.5275470000000  0.4868050000000  0.5495090000000 1.0
C      1  0.4667970000000  0.4830970000000  0.4642840000000 1.0
C      1  0.5280320000000  0.5147830000000  0.5479730000000 1.0
C      1  0.4687950000000  0.5121150000000  0.4617590000000 1.0
C      1  0.4667900000000  0.4819520000000  0.5361490000000 1.0
C      1  0.5283980000000  0.4856210000000  0.4523300000000 1.0
C      1  0.4697570000000  0.5122870000000  0.5323150000000 1.0
C      1  0.5283090000000  0.5137160000000  0.4510890000000 1.0
C      1  0.5147490000000  0.4704780000000  0.4718350000000 1.0
C      1  0.4906770000000  0.4838760000000  0.5136760000000 1.0
C      1  0.5141360000000  0.5299430000000  0.4693070000000 1.0
C      1  0.4925460000000  0.5158640000000  0.5110310000000 1.0
C      1  0.4883470000000  0.4725610000000  0.4850250000000 1.0
C      1  0.5154300000000  0.4740220000000  0.5274890000000 1.0
C      1  0.4876140000000  0.5261810000000  0.4824650000000 1.0
C      1  0.5171260000000  0.5257140000000  0.5243720000000 1.0
C      1  0.5768740000000  0.4756550000000  0.5165410000000 1.0
C      1  0.4195130000000  0.4775040000000  0.4874370000000 1.0
C      1  0.5767790000000  0.5259960000000  0.5156130000000 1.0
C      1  0.4194260000000  0.5269290000000  0.4896640000000 1.0
C      1  0.4215560000000  0.4755830000000  0.5150620000000 1.0
C      1  0.5786420000000  0.4753440000000  0.4883300000000 1.0
C      1  0.4229510000000  0.5254770000000  0.5175960000000 1.0
C      1  0.5783550000000  0.5252930000000  0.4873980000000 1.0
C      1  0.4446590000000  0.4602030000000  0.5267160000000 1.0
C      1  0.5614750000000  0.4598660000000  0.4727220000000 1.0
C      1  0.4483190000000  0.5369770000000  0.5289230000000 1.0
C      1  0.5611140000000  0.5400600000000  0.4711590000000 1.0
C      1  0.5592310000000  0.4593150000000  0.5310820000000 1.0
C      1  0.4396020000000  0.4637550000000  0.4706980000000 1.0
C      1  0.5589340000000  0.5426510000000  0.5295020000000 1.0
C      1  0.4362530000000  0.5428250000000  0.4737670000000 1.0
C      1  0.4871190000000  0.5673520000000  0.4686200000000 1.0
C      1  0.5109380000000  0.5727480000000  0.5247620000000 1.0
C      1  0.4881680000000  0.4324950000000  0.4686610000000 1.0
C      1  0.5085920000000  0.4299220000000  0.5266820000000 1.0
C      1  0.5118410000000  0.5698220000000  0.4696640000000 1.0
C      1  0.4836310000000  0.5734690000000  0.5234910000000 1.0
C      1  0.5128250000000  0.4305690000000  0.4713450000000 1.0
C      1  0.4817310000000  0.4264140000000  0.5230400000000 1.0
C      1  0.5885370000000  0.5001840000000  0.4777280000000 1.0
C      1  0.4143760000000  0.5001380000000  0.5282540000000 1.0
C      1  0.5850440000000  0.5010500000000  0.5274520000000 1.0
C      1  0.4089740000000  0.5025160000000  0.4785960000000 1.0
END
