TITL C-26738-6379-114 0.00194359064610852 125000 -324.307898387758 0 0 60 (C1) n - 1
REM
REM in /home/nfs/bkarasulu/CARBON/AIRSS/Generating-Clusters/AIREBO/Higher-Symm/Only-C60
REM
REM
REM
REM
REM
REM ./C.cell (28575a23ae977d3b5fae324c64b13b57)
REM
REM compiler GCC version 9.2.1 20190827 (Red Hat 9.2.1-1)
REM options -cpp -mtune=generic -march=x86-64 -g -O0 -fpre-include=/usr/include/finclude/math-vector-fortran.h
REM seed -1247804010 37627480 131853559 -1437939035 1746569498 1369729320 -1246627049 2113416044 -1683324385 -491486643 -1755503017 2028372906 177520968 -1268373443 1232231961 1651379819 -1910723344 -2090722346 192477827 597971368 -1817026060 214503669 -413514090 -1445120943 -878880293 381566111 -1446785255 2077073535 2095660077 -521224671 -1102826455 -1457672811 2121316850
REM
CELL 1.54180   50.00000   50.00000   50.00000   90.00000   90.00000   90.00000
LATT -1
SFAC C  
C      1  0.5274130000000  0.4457740000000  0.5127490000000 1.0
C      1  0.4523080000000  0.4415820000000  0.5112320000000 1.0
C      1  0.4148480000000  0.5036330000000  0.5134450000000 1.0
C      1  0.4739770000000  0.5557290000000  0.5151000000000 1.0
C      1  0.5484800000000  0.5596340000000  0.5131830000000 1.0
C      1  0.5856670000000  0.4970960000000  0.5147960000000 1.0
C      1  0.5014190000000  0.4482800000000  0.5046940000000 1.0
C      1  0.4469970000000  0.4620720000000  0.4928810000000 1.0
C      1  0.4266030000000  0.5289100000000  0.5063800000000 1.0
C      1  0.4995340000000  0.5525660000000  0.5071480000000 1.0
C      1  0.5535750000000  0.5388420000000  0.4951570000000 1.0
C      1  0.5731170000000  0.4733840000000  0.5041440000000 1.0
C      1  0.4743280000000  0.5121690000000  0.4356000000000 1.0
C      1  0.4989850000000  0.5245590000000  0.4324660000000 1.0
C      1  0.5220070000000  0.5104180000000  0.4202980000000 1.0
C      1  0.5227320000000  0.4817830000000  0.4267550000000 1.0
C      1  0.4988830000000  0.4693520000000  0.4294850000000 1.0
C      1  0.4727990000000  0.4852350000000  0.4270460000000 1.0
C      1  0.5241590000000  0.5019030000000  0.5819880000000 1.0
C      1  0.5160750000000  0.4787510000000  0.5672210000000 1.0
C      1  0.4881050000000  0.4749170000000  0.5692540000000 1.0
C      1  0.4762670000000  0.4980650000000  0.5818000000000 1.0
C      1  0.4843670000000  0.5219090000000  0.5680750000000 1.0
C      1  0.5122730000000  0.5257770000000  0.5706940000000 1.0
C      1  0.4626580000000  0.4587300000000  0.4409860000000 1.0
C      1  0.4590920000000  0.5213620000000  0.4575420000000 1.0
C      1  0.5088730000000  0.5426700000000  0.4562860000000 1.0
C      1  0.5366480000000  0.5272400000000  0.4451380000000 1.0
C      1  0.5390080000000  0.4940020000000  0.4524430000000 1.0
C      1  0.4928450000000  0.4513770000000  0.4549480000000 1.0
C      1  0.4339620000000  0.5319900000000  0.4559990000000 1.0
C      1  0.5053920000000  0.5723990000000  0.4521640000000 1.0
C      1  0.5619360000000  0.5432060000000  0.4488280000000 1.0
C      1  0.5684150000000  0.4848420000000  0.4509480000000 1.0
C      1  0.5021600000000  0.4251560000000  0.4544810000000 1.0
C      1  0.4382530000000  0.4473620000000  0.4431020000000 1.0
C      1  0.5429710000000  0.5064310000000  0.5387960000000 1.0
C      1  0.5293980000000  0.4762270000000  0.5382230000000 1.0
C      1  0.4711100000000  0.4680130000000  0.5457750000000 1.0
C      1  0.4577810000000  0.4947190000000  0.5362830000000 1.0
C      1  0.4708430000000  0.5250020000000  0.5405030000000 1.0
C      1  0.5300880000000  0.5333990000000  0.5479930000000 1.0
C      1  0.5339100000000  0.4426720000000  0.5414470000000 1.0
C      1  0.4469580000000  0.4440550000000  0.5426340000000 1.0
C      1  0.4244210000000  0.4940130000000  0.5401600000000 1.0
C      1  0.4559980000000  0.5555760000000  0.5394780000000 1.0
C      1  0.5542860000000  0.5572620000000  0.5445470000000 1.0
C      1  0.5766060000000  0.5045130000000  0.5426020000000 1.0
C      1  0.4727640000000  0.5160740000000  0.4845790000000 1.0
C      1  0.5025190000000  0.5317090000000  0.4843280000000 1.0
C      1  0.5284010000000  0.5160800000000  0.4905400000000 1.0
C      1  0.5258870000000  0.4852720000000  0.4809720000000 1.0
C      1  0.4977210000000  0.4677570000000  0.4806470000000 1.0
C      1  0.4726760000000  0.4839970000000  0.4877080000000 1.0
C      1  0.5423830000000  0.4725620000000  0.5063180000000 1.0
C      1  0.4807310000000  0.4460360000000  0.5223070000000 1.0
C      1  0.4452050000000  0.4912670000000  0.5063770000000 1.0
C      1  0.4572190000000  0.5292380000000  0.5094090000000 1.0
C      1  0.5202840000000  0.5553180000000  0.5245890000000 1.0
C      1  0.5556810000000  0.5101330000000  0.5093300000000 1.0
END
