TITL C-26741-8371-127 -0.00102704428695498 125000 -365.883115420006 0 0 60 (C1) n - 1
REM
REM in /home/nfs/bkarasulu/CARBON/AIRSS/Generating-Clusters/AIREBO/Higher-Symm/Only-C60
REM
REM
REM
REM
REM
REM ./C.cell (28575a23ae977d3b5fae324c64b13b57)
REM
REM compiler GCC version 9.2.1 20190827 (Red Hat 9.2.1-1)
REM options -cpp -mtune=generic -march=x86-64 -g -O0 -fpre-include=/usr/include/finclude/math-vector-fortran.h
REM seed 611141299 -1763256345 143550392 1075228248 -391438312 977193882 737788110 291944857 1808353586 267759183 -1936055224 1748986200 -559629401 1503359431 -1270004408 -1561284083 -2092781023 811027801 1607970001 1391888007 362662910 1955209729 -94449275 596114919 -1167679907 1180751714 -621433754 -1179415266 -1468393853 -1869261518 -1245671515 -268248465 2073798373
REM
CELL 1.54180   50.00000   50.00000   50.00000   90.00000   90.00000   90.00000
LATT -1
SFAC C  
C      1  0.4581260000000  0.5679520000000  0.5082340000000 1.0
C      1  0.4841370000000  0.5689580000000  0.4863570000000 1.0
C      1  0.5125820000000  0.5649330000000  0.5048370000000 1.0
C      1  0.5679100000000  0.5293750000000  0.5080810000000 1.0
C      1  0.5621000000000  0.5152600000000  0.4776850000000 1.0
C      1  0.5721220000000  0.4738750000000  0.5068020000000 1.0
C      1  0.5370360000000  0.4315520000000  0.5027850000000 1.0
C      1  0.5192260000000  0.4368530000000  0.4765230000000 1.0
C      1  0.4784430000000  0.4374140000000  0.5106050000000 1.0
C      1  0.4326130000000  0.4660470000000  0.5059510000000 1.0
C      1  0.4332430000000  0.4877140000000  0.4811640000000 1.0
C      1  0.4373990000000  0.5159940000000  0.4967910000000 1.0
C      1  0.5512830000000  0.4924420000000  0.4379540000000 1.0
C      1  0.5394570000000  0.4698520000000  0.4264930000000 1.0
C      1  0.5175370000000  0.4540040000000  0.4259900000000 1.0
C      1  0.4931090000000  0.4487680000000  0.4387340000000 1.0
C      1  0.4697310000000  0.4591690000000  0.4276850000000 1.0
C      1  0.4550640000000  0.4812810000000  0.4226360000000 1.0
C      1  0.4494630000000  0.5068050000000  0.4324960000000 1.0
C      1  0.4623100000000  0.5292180000000  0.4217040000000 1.0
C      1  0.4819040000000  0.5472240000000  0.4265440000000 1.0
C      1  0.5061450000000  0.5521750000000  0.4395040000000 1.0
C      1  0.5290360000000  0.5396900000000  0.4291390000000 1.0
C      1  0.5444320000000  0.5175470000000  0.4274070000000 1.0
C      1  0.5544850000000  0.4982340000000  0.5769710000000 1.0
C      1  0.5492130000000  0.4735090000000  0.5656880000000 1.0
C      1  0.5272130000000  0.4544740000000  0.5600200000000 1.0
C      1  0.5025600000000  0.4499180000000  0.5718960000000 1.0
C      1  0.4763250000000  0.4580210000000  0.5669120000000 1.0
C      1  0.4604050000000  0.4769400000000  0.5802480000000 1.0
C      1  0.4512590000000  0.5006800000000  0.5679270000000 1.0
C      1  0.4555460000000  0.5270010000000  0.5769670000000 1.0
C      1  0.4698470000000  0.5445850000000  0.5606230000000 1.0
C      1  0.4985470000000  0.5522230000000  0.5624030000000 1.0
C      1  0.5267790000000  0.5438000000000  0.5644130000000 1.0
C      1  0.5475980000000  0.5229630000000  0.5668970000000 1.0
C      1  0.4541340000000  0.5579790000000  0.4783980000000 1.0
C      1  0.5072100000000  0.5615760000000  0.4654740000000 1.0
C      1  0.5324210000000  0.5599740000000  0.4805170000000 1.0
C      1  0.5542440000000  0.5451990000000  0.4823570000000 1.0
C      1  0.5621030000000  0.4919450000000  0.4640350000000 1.0
C      1  0.5649910000000  0.4687930000000  0.4801990000000 1.0
C      1  0.5501810000000  0.4452760000000  0.4768400000000 1.0
C      1  0.4942910000000  0.4409260000000  0.4657440000000 1.0
C      1  0.4731440000000  0.4440640000000  0.4840890000000 1.0
C      1  0.4500710000000  0.4587030000000  0.4806980000000 1.0
C      1  0.4390110000000  0.5093400000000  0.4576710000000 1.0
C      1  0.4405730000000  0.5351590000000  0.4737080000000 1.0
C      1  0.4680720000000  0.4550490000000  0.5372110000000 1.0
C      1  0.4451870000000  0.4722750000000  0.5296480000000 1.0
C      1  0.4443930000000  0.4981310000000  0.5405050000000 1.0
C      1  0.4449350000000  0.5197230000000  0.5226280000000 1.0
C      1  0.4596410000000  0.5449410000000  0.5300310000000 1.0
C      1  0.4903420000000  0.5566960000000  0.5287660000000 1.0
C      1  0.5221870000000  0.5466060000000  0.5308390000000 1.0
C      1  0.5476110000000  0.5273430000000  0.5347290000000 1.0
C      1  0.5584190000000  0.5001440000000  0.5202650000000 1.0
C      1  0.5520190000000  0.4707190000000  0.5335330000000 1.0
C      1  0.5304410000000  0.4465090000000  0.5273180000000 1.0
C      1  0.5001920000000  0.4464830000000  0.5317320000000 1.0
END
