TITL C-26731-8310-18 4.08179773903866e-05 125000 -297.689057889943 0 0 60 (C1) n - 1
REM
REM in /home/nfs/bkarasulu/CARBON/AIRSS/Generating-Clusters/AIREBO/Higher-Symm/Only-C60
REM
REM
REM
REM
REM
REM ./C.cell (28575a23ae977d3b5fae324c64b13b57)
REM
REM compiler GCC version 9.2.1 20190827 (Red Hat 9.2.1-1)
REM options -cpp -mtune=generic -march=x86-64 -g -O0 -fpre-include=/usr/include/finclude/math-vector-fortran.h
REM seed 1644652409 -1641715039 1991829808 688921 -2035884866 1092357225 -919777714 486352204 -869403900 627910080 51499647 1087116200 -444297704 -1852745504 1471130875 369610533 664478133 -1963247425 -643520517 824705637 -1223072820 1401562256 1824638022 -1244109427 -1666642666 -421923337 -6222031 1795641230 -2024830567 1199997930 -644106575 -565048741 1067876402
REM
CELL 1.54180   50.00000   50.00000   50.00000   90.00000   90.00000   90.00000
LATT -1
SFAC C  
C      1  0.4889690000000  0.4439520000000  0.4905820000000 1.0
C      1  0.5106850000000  0.5150390000000  0.4518440000000 1.0
C      1  0.4775700000000  0.5559120000000  0.5148010000000 1.0
C      1  0.5200420000000  0.4907840000000  0.5540180000000 1.0
C      1  0.4421000000000  0.4345670000000  0.5160760000000 1.0
C      1  0.5543300000000  0.4704740000000  0.4324170000000 1.0
C      1  0.4540890000000  0.5424240000000  0.4687390000000 1.0
C      1  0.5465190000000  0.5372310000000  0.5437320000000 1.0
C      1  0.5689110000000  0.5255110000000  0.5256380000000 1.0
C      1  0.4296430000000  0.4597740000000  0.5117840000000 1.0
C      1  0.5632760000000  0.4744470000000  0.4591160000000 1.0
C      1  0.4250530000000  0.5340070000000  0.4771450000000 1.0
C      1  0.5501520000000  0.4849740000000  0.5393310000000 1.0
C      1  0.4606870000000  0.4624570000000  0.4868010000000 1.0
C      1  0.5398660000000  0.5129470000000  0.4672330000000 1.0
C      1  0.4486990000000  0.5380970000000  0.5170710000000 1.0
C      1  0.4624950000000  0.4246980000000  0.4997730000000 1.0
C      1  0.5422980000000  0.4905140000000  0.4169940000000 1.0
C      1  0.4673370000000  0.5625040000000  0.4830380000000 1.0
C      1  0.5366510000000  0.5210970000000  0.5632180000000 1.0
C      1  0.4462550000000  0.4886700000000  0.5132790000000 1.0
C      1  0.5462530000000  0.4772070000000  0.4884440000000 1.0
C      1  0.4456790000000  0.5093730000000  0.4894950000000 1.0
C      1  0.5491820000000  0.5065410000000  0.5054560000000 1.0
C      1  0.5026160000000  0.5405570000000  0.4972390000000 1.0
C      1  0.4959510000000  0.5120520000000  0.5428770000000 1.0
C      1  0.5042490000000  0.4577680000000  0.5176320000000 1.0
C      1  0.4925370000000  0.4908990000000  0.4641870000000 1.0
C      1  0.5247510000000  0.5116220000000  0.4210720000000 1.0
C      1  0.4898300000000  0.5832000000000  0.4986070000000 1.0
C      1  0.5247630000000  0.5007290000000  0.5862070000000 1.0
C      1  0.4724400000000  0.4110540000000  0.4750270000000 1.0
C      1  0.5273790000000  0.5685680000000  0.4765720000000 1.0
C      1  0.4729850000000  0.5344030000000  0.5667860000000 1.0
C      1  0.5378240000000  0.4369570000000  0.5467190000000 1.0
C      1  0.4739590000000  0.4717670000000  0.4344540000000 1.0
C      1  0.4923600000000  0.5458980000000  0.5437380000000 1.0
C      1  0.5137760000000  0.4576790000000  0.5493420000000 1.0
C      1  0.4889160000000  0.4578240000000  0.4595220000000 1.0
C      1  0.5081520000000  0.5466160000000  0.4642160000000 1.0
C      1  0.5421860000000  0.5610940000000  0.4956750000000 1.0
C      1  0.4622790000000  0.5115720000000  0.5644050000000 1.0
C      1  0.5479710000000  0.4360620000000  0.5207140000000 1.0
C      1  0.4650710000000  0.4952400000000  0.4354480000000 1.0
C      1  0.4240190000000  0.5382720000000  0.5066870000000 1.0
C      1  0.5735690000000  0.4978560000000  0.5358750000000 1.0
C      1  0.4330310000000  0.4681620000000  0.4815930000000 1.0
C      1  0.5646480000000  0.5034840000000  0.4646980000000 1.0
C      1  0.5326130000000  0.5354520000000  0.5127560000000 1.0
C      1  0.4687510000000  0.4943850000000  0.5382200000000 1.0
C      1  0.5339730000000  0.4523800000000  0.5032540000000 1.0
C      1  0.4659760000000  0.5120930000000  0.4623510000000 1.0
C      1  0.4964520000000  0.5783680000000  0.5319980000000 1.0
C      1  0.5063950000000  0.4728110000000  0.5794680000000 1.0
C      1  0.4858920000000  0.4252570000000  0.4555170000000 1.0
C      1  0.5098310000000  0.5411000000000  0.4300080000000 1.0
C      1  0.5213510000000  0.4979300000000  0.5207990000000 1.0
C      1  0.4750460000000  0.4712130000000  0.5156730000000 1.0
C      1  0.5179760000000  0.4936960000000  0.4847380000000 1.0
C      1  0.4737410000000  0.5227770000000  0.4999010000000 1.0
END
