TITL C-26737-6152-13 0.000224614472588016 125000 -306.527227132394 0 0 60 (C1) n - 1
REM
REM in /home/nfs/bkarasulu/CARBON/AIRSS/Generating-Clusters/AIREBO/Higher-Symm/Only-C60
REM
REM
REM
REM
REM
REM ./C.cell (28575a23ae977d3b5fae324c64b13b57)
REM
REM compiler GCC version 9.2.1 20190827 (Red Hat 9.2.1-1)
REM options -cpp -mtune=generic -march=x86-64 -g -O0 -fpre-include=/usr/include/finclude/math-vector-fortran.h
REM seed -54733832 -1089206125 -1611160686 -1891321663 308388082 1909123713 -730720225 349480638 92897367 1466372112 627333935 906136704 363819683 -1001325131 -1303519924 2086164216 -148792035 -1436455139 234771838 214621884 779261739 1924509883 -261526110 -2088553681 1550414815 -95666538 522301005 -1544585842 692941209 34296348 -811262835 1477194627 -1462099047
REM
CELL 1.54180   50.00000   50.00000   50.00000   90.00000   90.00000   90.00000
LATT -1
SFAC C  
C      1  0.4674910000000  0.4464780000000  0.4596760000000 1.0
C      1  0.4436330000000  0.4599950000000  0.4729350000000 1.0
C      1  0.5225120000000  0.4756790000000  0.4932500000000 1.0
C      1  0.4797880000000  0.5520060000000  0.4555480000000 1.0
C      1  0.4999640000000  0.5018600000000  0.5654530000000 1.0
C      1  0.5291190000000  0.4385490000000  0.4628140000000 1.0
C      1  0.5136050000000  0.4959520000000  0.5158210000000 1.0
C      1  0.4966050000000  0.5785830000000  0.4976460000000 1.0
C      1  0.4861360000000  0.4319130000000  0.4810370000000 1.0
C      1  0.5414340000000  0.4730810000000  0.5551410000000 1.0
C      1  0.4442160000000  0.4519280000000  0.5042230000000 1.0
C      1  0.5485700000000  0.4538200000000  0.4939760000000 1.0
C      1  0.4865450000000  0.4996310000000  0.4295590000000 1.0
C      1  0.5518450000000  0.4614820000000  0.5327520000000 1.0
C      1  0.5349100000000  0.5097990000000  0.4428220000000 1.0
C      1  0.4457640000000  0.5503790000000  0.5085470000000 1.0
C      1  0.5402640000000  0.4666120000000  0.4514970000000 1.0
C      1  0.5107520000000  0.4956430000000  0.4608280000000 1.0
C      1  0.5477590000000  0.4871850000000  0.4731480000000 1.0
C      1  0.4818370000000  0.4937910000000  0.5121540000000 1.0
C      1  0.5169100000000  0.5270530000000  0.5164250000000 1.0
C      1  0.4769320000000  0.5450220000000  0.5478240000000 1.0
C      1  0.4383040000000  0.5090860000000  0.4979340000000 1.0
C      1  0.5481000000000  0.5181070000000  0.4691310000000 1.0
C      1  0.4902130000000  0.5072550000000  0.4845270000000 1.0
C      1  0.4569300000000  0.5021560000000  0.5325820000000 1.0
C      1  0.4554160000000  0.4828070000000  0.4952230000000 1.0
C      1  0.4673520000000  0.5273290000000  0.4959460000000 1.0
C      1  0.5091530000000  0.5278960000000  0.4674580000000 1.0
C      1  0.5541000000000  0.5341020000000  0.5292410000000 1.0
C      1  0.5006310000000  0.5669650000000  0.4674580000000 1.0
C      1  0.4997330000000  0.4498720000000  0.5337510000000 1.0
C      1  0.5276710000000  0.5675100000000  0.4893700000000 1.0
C      1  0.4967260000000  0.4695860000000  0.5544340000000 1.0
C      1  0.5719990000000  0.4745470000000  0.4907770000000 1.0
C      1  0.4268900000000  0.4899490000000  0.5223330000000 1.0
C      1  0.4405030000000  0.5192180000000  0.4675040000000 1.0
C      1  0.5474410000000  0.5321350000000  0.5805850000000 1.0
C      1  0.4770570000000  0.4542890000000  0.5127160000000 1.0
C      1  0.4905660000000  0.5476230000000  0.5103410000000 1.0
C      1  0.5689080000000  0.4814210000000  0.5189360000000 1.0
C      1  0.5248720000000  0.4968450000000  0.5466100000000 1.0
C      1  0.4523410000000  0.4684570000000  0.5322050000000 1.0
C      1  0.5123220000000  0.4558930000000  0.4407100000000 1.0
C      1  0.5707210000000  0.5100350000000  0.5250230000000 1.0
C      1  0.5038910000000  0.5306160000000  0.5476550000000 1.0
C      1  0.5144270000000  0.5653500000000  0.5268570000000 1.0
C      1  0.4887570000000  0.5252090000000  0.4407940000000 1.0
C      1  0.4584050000000  0.4933690000000  0.4567910000000 1.0
C      1  0.5265910000000  0.4441220000000  0.5173750000000 1.0
C      1  0.5432870000000  0.5580340000000  0.5181510000000 1.0
C      1  0.5370760000000  0.5262250000000  0.5528900000000 1.0
C      1  0.4926710000000  0.4651100000000  0.4844300000000 1.0
C      1  0.4561530000000  0.5341220000000  0.5337170000000 1.0
C      1  0.5156740000000  0.4325440000000  0.4872930000000 1.0
C      1  0.4537220000000  0.5483230000000  0.4729330000000 1.0
C      1  0.4707140000000  0.4892920000000  0.5608720000000 1.0
C      1  0.4273240000000  0.4879030000000  0.4623850000000 1.0
C      1  0.4862210000000  0.4743290000000  0.4523240000000 1.0
C      1  0.5305460000000  0.5359310000000  0.4876610000000 1.0
END
