TITL C-26732-6566-149 0.00493338264937483 125000 -364.88959462795 0 0 60 (Ci) n - 1
REM
REM in /home/nfs/bkarasulu/CARBON/AIRSS/Generating-Clusters/AIREBO/Higher-Symm/Only-C60
REM
REM
REM
REM
REM
REM ./C.cell (28575a23ae977d3b5fae324c64b13b57)
REM
REM compiler GCC version 9.2.1 20190827 (Red Hat 9.2.1-1)
REM options -cpp -mtune=generic -march=x86-64 -g -O0 -fpre-include=/usr/include/finclude/math-vector-fortran.h
REM seed -281009621 -837099161 -1530004478 -1848435006 -695025949 661925778 2117032954 148399816 1098220860 1105188771 -530554339 1710984231 -1442275805 1528466621 1918950481 -1907482560 -1476262670 669169771 -1021433505 186572037 -1236706820 -527975702 -384071606 -1256212339 -1455421942 725471770 -2065323749 286127214 -1883833593 205943887 -1146187276 -66842737 1030913246
REM
CELL 1.54180   50.00000   50.00000   50.00000   90.00000   90.00000   90.00000
LATT -1
SFAC C  
C      1  0.5095830000000  0.5402130000000  0.4374140000000 1.0
C      1  0.5123320000000  0.4246270000000  0.4952210000000 1.0
C      1  0.5119540000000  0.5320470000000  0.5681680000000 1.0
C      1  0.4883210000000  0.5415570000000  0.5622600000000 1.0
C      1  0.4877890000000  0.4250180000000  0.5038150000000 1.0
C      1  0.4854530000000  0.5325060000000  0.4311180000000 1.0
C      1  0.4904170000000  0.4597870000000  0.5625860000000 1.0
C      1  0.4876680000000  0.5753730000000  0.5047780000000 1.0
C      1  0.4880460000000  0.4679530000000  0.4318320000000 1.0
C      1  0.5116800000000  0.4584440000000  0.4377410000000 1.0
C      1  0.5122110000000  0.5749820000000  0.4961850000000 1.0
C      1  0.5145470000000  0.4674940000000  0.5688810000000 1.0
C      1  0.5162920000000  0.5128500000000  0.5303110000000 1.0
C      1  0.5124940000000  0.5141320000000  0.4761400000000 1.0
C      1  0.5165670000000  0.4665960000000  0.5043670000000 1.0
C      1  0.4810580000000  0.5183100000000  0.4682280000000 1.0
C      1  0.4840990000000  0.5176340000000  0.5233520000000 1.0
C      1  0.4839890000000  0.4697010000000  0.4966050000000 1.0
C      1  0.4837080000000  0.4871500000000  0.4696890000000 1.0
C      1  0.4875060000000  0.4858680000000  0.5238600000000 1.0
C      1  0.4834330000000  0.5334040000000  0.4956320000000 1.0
C      1  0.5189420000000  0.4816890000000  0.5317720000000 1.0
C      1  0.5159020000000  0.4823660000000  0.4766470000000 1.0
C      1  0.5160100000000  0.5302980000000  0.5033950000000 1.0
C      1  0.4641970000000  0.4860740000000  0.4204090000000 1.0
C      1  0.4677570000000  0.4413430000000  0.5497770000000 1.0
C      1  0.4647760000000  0.5748180000000  0.5266810000000 1.0
C      1  0.5374230000000  0.4864830000000  0.5804390000000 1.0
C      1  0.5341910000000  0.4393850000000  0.4499330000000 1.0
C      1  0.5340930000000  0.5729200000000  0.4734450000000 1.0
C      1  0.5358030000000  0.5139260000000  0.5795910000000 1.0
C      1  0.5322430000000  0.5586570000000  0.4502230000000 1.0
C      1  0.5352240000000  0.4251820000000  0.4733190000000 1.0
C      1  0.4625770000000  0.5135160000000  0.4195610000000 1.0
C      1  0.4658090000000  0.5606150000000  0.5500670000000 1.0
C      1  0.4659070000000  0.4270800000000  0.5265550000000 1.0
C      1  0.4442650000000  0.4726810000000  0.4990360000000 1.0
C      1  0.4443080000000  0.5145860000000  0.5231320000000 1.0
C      1  0.4418440000000  0.5146250000000  0.4745360000000 1.0
C      1  0.5561330000000  0.4714680000000  0.5012390000000 1.0
C      1  0.5537670000000  0.5130790000000  0.4769930000000 1.0
C      1  0.5559430000000  0.5133970000000  0.5250740000000 1.0
C      1  0.5557350000000  0.5273190000000  0.5009640000000 1.0
C      1  0.5556920000000  0.4854140000000  0.4768680000000 1.0
C      1  0.5581560000000  0.4853750000000  0.5254640000000 1.0
C      1  0.4438670000000  0.5285320000000  0.4987600000000 1.0
C      1  0.4462330000000  0.4869210000000  0.5230070000000 1.0
C      1  0.4440570000000  0.4866030000000  0.4749260000000 1.0
C      1  0.5381240000000  0.5537500000000  0.5006700000000 1.0
C      1  0.5372520000000  0.4719810000000  0.4550030000000 1.0
C      1  0.5429840000000  0.4719030000000  0.5505610000000 1.0
C      1  0.4604540000000  0.5559620000000  0.4991660000000 1.0
C      1  0.4656470000000  0.4739550000000  0.5445750000000 1.0
C      1  0.4608890000000  0.4738360000000  0.4511580000000 1.0
C      1  0.4618750000000  0.4462500000000  0.4993310000000 1.0
C      1  0.4627490000000  0.5280190000000  0.5449970000000 1.0
C      1  0.4570160000000  0.5280960000000  0.4494390000000 1.0
C      1  0.5395460000000  0.4440380000000  0.5008330000000 1.0
C      1  0.5343530000000  0.5260450000000  0.4554250000000 1.0
C      1  0.5391110000000  0.5261630000000  0.5488430000000 1.0
END
