TITL C-26736-6558-53 978.839169336482 125000 -344.869901644034 0 0 60 (C5) n - 1
REM
REM in /home/nfs/bkarasulu/CARBON/AIRSS/Generating-Clusters/AIREBO/Higher-Symm/Only-C60
REM
REM
REM
REM
REM
REM ./C.cell (28575a23ae977d3b5fae324c64b13b57)
REM
REM compiler GCC version 9.2.1 20190827 (Red Hat 9.2.1-1)
REM options -cpp -mtune=generic -march=x86-64 -g -O0 -fpre-include=/usr/include/finclude/math-vector-fortran.h
REM seed 804925530 -2126264167 -604475193 -1794750671 -1950101686 313840405 -304717564 869656516 189758719 -1737409013 1762201652 -1016062379 387706719 165622381 -1398918762 568543229 2081953448 -1328758025 98010216 445023536 1142939318 -296091183 699571614 1854758509 1074769025 -695267831 390799903 512344455 -179359644 499807033 2147260101 -1489051326 922105122
REM
CELL 1.54180   50.00000   50.00000   50.00000   90.00000   90.00000   90.00000
LATT -1
SFAC C  
C      1  0.4709530000000  0.4981870000000  0.5625690000000 1.0
C      1  0.4709530000000  0.4399110000000  0.5176200000000 1.0
C      1  0.4709540000000  0.4646820000000  0.4483330000000 1.0
C      1  0.4709520000000  0.5382280000000  0.4504590000000 1.0
C      1  0.4709450000000  0.5589540000000  0.5210640000000 1.0
C      1  0.4703140000000  0.5122170000000  0.4401280000000 1.0
C      1  0.4703230000000  0.5607240000000  0.4931290000000 1.0
C      1  0.4703410000000  0.5252910000000  0.5555910000000 1.0
C      1  0.4703520000000  0.4549300000000  0.5412390000000 1.0
C      1  0.4703450000000  0.4468550000000  0.4699060000000 1.0
C      1  0.5245370000000  0.4358830000000  0.5196890000000 1.0
C      1  0.5245150000000  0.4614830000000  0.4451320000000 1.0
C      1  0.5245160000000  0.5402770000000  0.4464070000000 1.0
C      1  0.5245340000000  0.5634270000000  0.5217550000000 1.0
C      1  0.5245200000000  0.4989180000000  0.5670540000000 1.0
C      1  0.5256190000000  0.5144340000000  0.4766760000000 1.0
C      1  0.5256750000000  0.5266650000000  0.5065080000000 1.0
C      1  0.5255780000000  0.5020420000000  0.5273740000000 1.0
C      1  0.5256560000000  0.4745890000000  0.5104240000000 1.0
C      1  0.5256360000000  0.4822550000000  0.4790820000000 1.0
C      1  0.5631480000000  0.5181230000000  0.5169850000000 1.0
C      1  0.5630820000000  0.4894730000000  0.5224870000000 1.0
C      1  0.5631370000000  0.4753640000000  0.4969370000000 1.0
C      1  0.5631290000000  0.4953090000000  0.4756310000000 1.0
C      1  0.5631190000000  0.5217300000000  0.4880180000000 1.0
C      1  0.4359150000000  0.5055100000000  0.5274440000000 1.0
C      1  0.4359080000000  0.4755980000000  0.5137340000000 1.0
C      1  0.4359220000000  0.4794000000000  0.4810560000000 1.0
C      1  0.4359220000000  0.5116530000000  0.4745690000000 1.0
C      1  0.4359060000000  0.5277900000000  0.5032360000000 1.0
C      1  0.4975690000000  0.5608500000000  0.5328060000000 1.0
C      1  0.4975700000000  0.4875990000000  0.5679860000000 1.0
C      1  0.4975770000000  0.4314760000000  0.5092250000000 1.0
C      1  0.4975590000000  0.4700550000000  0.4376980000000 1.0
C      1  0.4975640000000  0.5499760000000  0.4522930000000 1.0
C      1  0.5262750000000  0.4432960000000  0.4672190000000 1.0
C      1  0.5262790000000  0.5136500000000  0.4359350000000 1.0
C      1  0.5262840000000  0.5651410000000  0.4931910000000 1.0
C      1  0.5262670000000  0.5266090000000  0.5598630000000 1.0
C      1  0.5262810000000  0.4512960000000  0.5437990000000 1.0
C      1  0.4985450000000  0.5576880000000  0.4816290000000 1.0
C      1  0.4985440000000  0.5352880000000  0.5491230000000 1.0
C      1  0.4985680000000  0.4641960000000  0.5487010000000 1.0
C      1  0.4985470000000  0.4425780000000  0.4810120000000 1.0
C      1  0.4985230000000  0.5003340000000  0.4394110000000 1.0
C      1  0.5421160000000  0.5378310000000  0.5338670000000 1.0
C      1  0.5421210000000  0.4795150000000  0.5464850000000 1.0
C      1  0.5421320000000  0.4494670000000  0.4948610000000 1.0
C      1  0.5421140000000  0.4892850000000  0.4503790000000 1.0
C      1  0.5421420000000  0.5438990000000  0.4744520000000 1.0
C      1  0.4515560000000  0.4903660000000  0.4529180000000 1.0
C      1  0.4515560000000  0.5418020000000  0.4763080000000 1.0
C      1  0.4515410000000  0.5354650000000  0.5324430000000 1.0
C      1  0.4515530000000  0.4800990000000  0.5437570000000 1.0
C      1  0.4515380000000  0.4522200000000  0.4946140000000 1.0
C      1  0.4935030000000  0.5043480000000  0.4717540000000 1.0
C      1  0.4934030000000  0.5281340000000  0.4953590000000 1.0
C      1  0.4934840000000  0.5130790000000  0.5253040000000 1.0
C      1  0.4933680000000  0.4799960000000  0.5202210000000 1.0
C      1  0.4935160000000  0.4745600000000  0.4871550000000 1.0
END
