TITL C-26739-6686-192 0.00026852776809874 125000 -323.216365729708 0 0 60 (C1) n - 1
REM
REM in /home/nfs/bkarasulu/CARBON/AIRSS/Generating-Clusters/AIREBO/Higher-Symm/Only-C60
REM
REM
REM
REM
REM
REM ./C.cell (28575a23ae977d3b5fae324c64b13b57)
REM
REM compiler GCC version 9.2.1 20190827 (Red Hat 9.2.1-1)
REM options -cpp -mtune=generic -march=x86-64 -g -O0 -fpre-include=/usr/include/finclude/math-vector-fortran.h
REM seed 333826891 -1285846589 -1011071692 893508093 -1410969264 1361634556 -971510891 1806750005 -1889641545 1653019359 869230959 -1862981030 -64902761 -74943017 740455158 -221890459 -163855843 1022467272 1168312447 -680164134 849799568 171533682 386495578 99883181 569863732 -1151511143 -1420752941 -1676917173 294434519 -1399506599 -1957930946 -740377781 -749606215
REM
CELL 1.54180   50.00000   50.00000   50.00000   90.00000   90.00000   90.00000
LATT -1
SFAC C  
C      1  0.5229240000000  0.4929080000000  0.5226570000000 1.0
C      1  0.4985860000000  0.5244120000000  0.5252870000000 1.0
C      1  0.4780500000000  0.4882250000000  0.5267050000000 1.0
C      1  0.4898430000000  0.4270440000000  0.4870490000000 1.0
C      1  0.5710410000000  0.5299910000000  0.4814210000000 1.0
C      1  0.4392450000000  0.5420650000000  0.4831740000000 1.0
C      1  0.4692130000000  0.4952940000000  0.4713150000000 1.0
C      1  0.5185950000000  0.4837770000000  0.4661890000000 1.0
C      1  0.4998390000000  0.5203390000000  0.4656260000000 1.0
C      1  0.5069500000000  0.4673210000000  0.4935760000000 1.0
C      1  0.5209650000000  0.5338090000000  0.4886170000000 1.0
C      1  0.4537630000000  0.5076590000000  0.4989900000000 1.0
C      1  0.5230550000000  0.5037110000000  0.4933850000000 1.0
C      1  0.4841650000000  0.5220760000000  0.4957610000000 1.0
C      1  0.4843780000000  0.4823410000000  0.4975880000000 1.0
C      1  0.4421190000000  0.4471910000000  0.4860650000000 1.0
C      1  0.5691700000000  0.4849340000000  0.4910570000000 1.0
C      1  0.4877230000000  0.5715520000000  0.4981590000000 1.0
C      1  0.4397660000000  0.5212730000000  0.4641790000000 1.0
C      1  0.5071870000000  0.4375900000000  0.4671010000000 1.0
C      1  0.5503180000000  0.5366170000000  0.4622600000000 1.0
C      1  0.4357260000000  0.4615940000000  0.5108160000000 1.0
C      1  0.5478200000000  0.4513880000000  0.5310240000000 1.0
C      1  0.5106040000000  0.5672860000000  0.5228900000000 1.0
C      1  0.5339010000000  0.5620270000000  0.4765120000000 1.0
C      1  0.4293310000000  0.4942430000000  0.4704200000000 1.0
C      1  0.5338160000000  0.4495770000000  0.4826460000000 1.0
C      1  0.4688560000000  0.5224710000000  0.4517520000000 1.0
C      1  0.4975000000000  0.4610600000000  0.4522180000000 1.0
C      1  0.5306000000000  0.5128430000000  0.4532020000000 1.0
C      1  0.5383360000000  0.5581290000000  0.5100020000000 1.0
C      1  0.4287430000000  0.4880870000000  0.5018450000000 1.0
C      1  0.5307790000000  0.4404150000000  0.5129630000000 1.0
C      1  0.5233870000000  0.5157010000000  0.5468680000000 1.0
C      1  0.4761560000000  0.5150140000000  0.5476140000000 1.0
C      1  0.5028010000000  0.4828250000000  0.5481980000000 1.0
C      1  0.5610840000000  0.5329460000000  0.5128860000000 1.0
C      1  0.4471770000000  0.5366130000000  0.5143180000000 1.0
C      1  0.5008920000000  0.4318870000000  0.5160680000000 1.0
C      1  0.4526660000000  0.4582220000000  0.5334990000000 1.0
C      1  0.5547940000000  0.4772890000000  0.5404410000000 1.0
C      1  0.5002340000000  0.5621980000000  0.5478630000000 1.0
C      1  0.4870060000000  0.5403490000000  0.5599320000000 1.0
C      1  0.4756370000000  0.4644000000000  0.5578040000000 1.0
C      1  0.5398740000000  0.4943780000000  0.5591140000000 1.0
C      1  0.5030540000000  0.5699670000000  0.4711830000000 1.0
C      1  0.4428070000000  0.4664310000000  0.4636640000000 1.0
C      1  0.5548960000000  0.4687030000000  0.4736030000000 1.0
C      1  0.5472530000000  0.4831860000000  0.4478880000000 1.0
C      1  0.4901920000000  0.5500010000000  0.4520890000000 1.0
C      1  0.4712800000000  0.4695430000000  0.4533800000000 1.0
C      1  0.4615910000000  0.4264060000000  0.4849020000000 1.0
C      1  0.5850730000000  0.5054080000000  0.4788550000000 1.0
C      1  0.4552580000000  0.5666030000000  0.4892830000000 1.0
C      1  0.4754630000000  0.5486960000000  0.5195960000000 1.0
C      1  0.4851540000000  0.4549550000000  0.5265160000000 1.0
C      1  0.5556130000000  0.4993290000000  0.5157080000000 1.0
C      1  0.5818590000000  0.5409590000000  0.5306680000000 1.0
C      1  0.4274590000000  0.5401450000000  0.5335580000000 1.0
C      1  0.4984330000000  0.4085960000000  0.5320530000000 1.0
END
