TITL C-26730-8313-117 -0.000612747736413738 125000 -349.270144078639 0 0 60 (C1) n - 1
REM
REM in /home/nfs/bkarasulu/CARBON/AIRSS/Generating-Clusters/AIREBO/Higher-Symm/Only-C60
REM
REM
REM
REM
REM
REM ./C.cell (28575a23ae977d3b5fae324c64b13b57)
REM
REM compiler GCC version 9.2.1 20190827 (Red Hat 9.2.1-1)
REM options -cpp -mtune=generic -march=x86-64 -g -O0 -fpre-include=/usr/include/finclude/math-vector-fortran.h
REM seed 76112122 -183123317 -2082162898 -23958357 -709903320 320104601 -10244977 827244189 -1005112970 -363608854 831122159 -605986256 1904198936 -978230346 -605351503 994287513 369628280 1085360166 -514852210 776867167 1746703383 -145019967 1802228555 804460448 961606809 24769004 -953070111 1129779112 1391656908 -150329321 -915699522 -1046549557 1757341590
REM
CELL 1.54180   50.00000   50.00000   50.00000   90.00000   90.00000   90.00000
LATT -1
SFAC C  
C      1  0.4382960000000  0.4871210000000  0.4599760000000 1.0
C      1  0.5647110000000  0.4906470000000  0.5513350000000 1.0
C      1  0.4277810000000  0.5026550000000  0.5536580000000 1.0
C      1  0.5720510000000  0.5049990000000  0.4456630000000 1.0
C      1  0.4595880000000  0.4881070000000  0.4385820000000 1.0
C      1  0.5386170000000  0.4908550000000  0.5619750000000 1.0
C      1  0.5426000000000  0.5110170000000  0.4371050000000 1.0
C      1  0.4541130000000  0.5116360000000  0.5601620000000 1.0
C      1  0.4839360000000  0.5588720000000  0.4637360000000 1.0
C      1  0.5168160000000  0.5616160000000  0.5399540000000 1.0
C      1  0.4853320000000  0.4525890000000  0.5354130000000 1.0
C      1  0.5127470000000  0.4463090000000  0.4579730000000 1.0
C      1  0.4619340000000  0.5509160000000  0.4881030000000 1.0
C      1  0.5374220000000  0.5521630000000  0.5148300000000 1.0
C      1  0.5371340000000  0.4404740000000  0.4808470000000 1.0
C      1  0.4608620000000  0.4488480000000  0.5083330000000 1.0
C      1  0.4700760000000  0.4325000000000  0.4852740000000 1.0
C      1  0.5274470000000  0.4426140000000  0.5084110000000 1.0
C      1  0.4679160000000  0.5628640000000  0.5160610000000 1.0
C      1  0.5307190000000  0.5665680000000  0.4875100000000 1.0
C      1  0.4860680000000  0.4330120000000  0.4660650000000 1.0
C      1  0.5116410000000  0.4354420000000  0.5293510000000 1.0
C      1  0.5100680000000  0.5546520000000  0.4738170000000 1.0
C      1  0.4880230000000  0.5569000000000  0.5327470000000 1.0
C      1  0.5505130000000  0.4588990000000  0.4614370000000 1.0
C      1  0.4470030000000  0.4638980000000  0.5337760000000 1.0
C      1  0.5584080000000  0.5336600000000  0.5337750000000 1.0
C      1  0.4400320000000  0.5340210000000  0.4687940000000 1.0
C      1  0.4667180000000  0.4659080000000  0.5575410000000 1.0
C      1  0.5324170000000  0.4642970000000  0.4368340000000 1.0
C      1  0.5340020000000  0.5394240000000  0.5524550000000 1.0
C      1  0.4651390000000  0.5381870000000  0.4504300000000 1.0
C      1  0.4611320000000  0.5088630000000  0.5124580000000 1.0
C      1  0.5551850000000  0.5109150000000  0.4745870000000 1.0
C      1  0.4671540000000  0.4909310000000  0.4775740000000 1.0
C      1  0.5377310000000  0.4978460000000  0.5086570000000 1.0
C      1  0.5242120000000  0.5072800000000  0.4656050000000 1.0
C      1  0.4678780000000  0.5227420000000  0.5378150000000 1.0
C      1  0.4885830000000  0.4820220000000  0.4570760000000 1.0
C      1  0.5119300000000  0.4958560000000  0.5414390000000 1.0
C      1  0.5074390000000  0.5255220000000  0.4834750000000 1.0
C      1  0.4998250000000  0.5257270000000  0.5368300000000 1.0
C      1  0.5016630000000  0.4774730000000  0.5213020000000 1.0
C      1  0.5160700000000  0.4766480000000  0.4711250000000 1.0
C      1  0.4768860000000  0.5214600000000  0.4860770000000 1.0
C      1  0.5210480000000  0.5232200000000  0.5116300000000 1.0
C      1  0.5228620000000  0.4725910000000  0.4999400000000 1.0
C      1  0.4732780000000  0.4786920000000  0.5076720000000 1.0
C      1  0.4293810000000  0.5091710000000  0.4775180000000 1.0
C      1  0.5697520000000  0.5086140000000  0.5299370000000 1.0
C      1  0.4284800000000  0.4861140000000  0.5300410000000 1.0
C      1  0.5703440000000  0.4810450000000  0.4699610000000 1.0
C      1  0.4717080000000  0.5170230000000  0.4314260000000 1.0
C      1  0.5263320000000  0.5182670000000  0.5709780000000 1.0
C      1  0.5244390000000  0.4900740000000  0.4271650000000 1.0
C      1  0.4717560000000  0.4912410000000  0.5708260000000 1.0
C      1  0.4971020000000  0.4971740000000  0.4303790000000 1.0
C      1  0.4975670000000  0.5030920000000  0.5706710000000 1.0
C      1  0.4315660000000  0.5027700000000  0.5050680000000 1.0
C      1  0.5685660000000  0.4959570000000  0.5008450000000 1.0
END
