TITL C-26740-8352-48 0.137972863249695 125000 -348.500533669405 0 0 60 (C1) n - 1
REM
REM in /home/nfs/bkarasulu/CARBON/AIRSS/Generating-Clusters/AIREBO/Higher-Symm/Only-C60
REM
REM
REM
REM
REM
REM ./C.cell (28575a23ae977d3b5fae324c64b13b57)
REM
REM compiler GCC version 9.2.1 20190827 (Red Hat 9.2.1-1)
REM options -cpp -mtune=generic -march=x86-64 -g -O0 -fpre-include=/usr/include/finclude/math-vector-fortran.h
REM seed -533169738 -484957661 438517651 749856502 -2102495558 967251782 -1075271869 864282109 1509097902 172679380 -1497516946 -1787848749 -231901942 1880090248 -931126714 -344165773 1864377744 1211661410 -510205896 1280214242 1830985332 147210063 816867405 503510993 -582672617 -3355130 -1051943828 1057994532 -1930649945 1238788270 77998253 -1632991627 -2020608336
REM
CELL 1.54180   50.00000   50.00000   50.00000   90.00000   90.00000   90.00000
LATT -1
SFAC C  
C      1  0.5061750000000  0.5530250000000  0.5369600000000 1.0
C      1  0.4404630000000  0.5240640000000  0.5383500000000 1.0
C      1  0.4588770000000  0.4549010000000  0.5277350000000 1.0
C      1  0.5219690000000  0.4516490000000  0.5277490000000 1.0
C      1  0.5554360000000  0.5140480000000  0.5338510000000 1.0
C      1  0.5560070000000  0.4825850000000  0.5385410000000 1.0
C      1  0.5356710000000  0.5513930000000  0.5511640000000 1.0
C      1  0.4659680000000  0.5353020000000  0.5490360000000 1.0
C      1  0.4554410000000  0.4790480000000  0.5424950000000 1.0
C      1  0.4991130000000  0.4408710000000  0.5485280000000 1.0
C      1  0.5291990000000  0.4960930000000  0.5532070000000 1.0
C      1  0.5143310000000  0.5252930000000  0.5555820000000 1.0
C      1  0.4843030000000  0.5169260000000  0.5586890000000 1.0
C      1  0.4797300000000  0.4897640000000  0.5534870000000 1.0
C      1  0.5063360000000  0.4739200000000  0.5488570000000 1.0
C      1  0.4652270000000  0.4071450000000  0.5355020000000 1.0
C      1  0.5533150000000  0.4638320000000  0.4892020000000 1.0
C      1  0.5695060000000  0.5531100000000  0.5119490000000 1.0
C      1  0.4669440000000  0.5679990000000  0.4949840000000 1.0
C      1  0.4212770000000  0.4957600000000  0.5061650000000 1.0
C      1  0.4612940000000  0.4600130000000  0.4995120000000 1.0
C      1  0.5158040000000  0.4528330000000  0.4973470000000 1.0
C      1  0.5461040000000  0.5042690000000  0.5064880000000 1.0
C      1  0.5102270000000  0.5476640000000  0.5068820000000 1.0
C      1  0.4555640000000  0.5332090000000  0.5107050000000 1.0
C      1  0.4519020000000  0.4407320000000  0.4817800000000 1.0
C      1  0.5354150000000  0.4413460000000  0.4777790000000 1.0
C      1  0.5645890000000  0.5020090000000  0.4866630000000 1.0
C      1  0.5242640000000  0.5609450000000  0.4864790000000 1.0
C      1  0.4371450000000  0.5427140000000  0.4872120000000 1.0
C      1  0.5411050000000  0.4380430000000  0.4502800000000 1.0
C      1  0.5628930000000  0.5231980000000  0.4625100000000 1.0
C      1  0.5160160000000  0.5613890000000  0.4591720000000 1.0
C      1  0.4446570000000  0.5281070000000  0.4578820000000 1.0
C      1  0.4533310000000  0.4144920000000  0.4748410000000 1.0
C      1  0.4866730000000  0.5053290000000  0.4378480000000 1.0
C      1  0.5103390000000  0.4974810000000  0.4337950000000 1.0
C      1  0.5358320000000  0.5111290000000  0.4492670000000 1.0
C      1  0.5117120000000  0.5350200000000  0.4472510000000 1.0
C      1  0.4779830000000  0.5329680000000  0.4532120000000 1.0
C      1  0.4738340000000  0.4333590000000  0.5397400000000 1.0
C      1  0.5499960000000  0.4640810000000  0.5178590000000 1.0
C      1  0.5570670000000  0.5426300000000  0.5350760000000 1.0
C      1  0.4755820000000  0.5566620000000  0.5250870000000 1.0
C      1  0.4346160000000  0.4967080000000  0.5324800000000 1.0
C      1  0.4292370000000  0.5299690000000  0.4348420000000 1.0
C      1  0.4521380000000  0.3917820000000  0.4901260000000 1.0
C      1  0.5541240000000  0.4607310000000  0.4404130000000 1.0
C      1  0.5864390000000  0.5468670000000  0.4569610000000 1.0
C      1  0.4921120000000  0.5768630000000  0.4551950000000 1.0
C      1  0.5726350000000  0.5471260000000  0.4853600000000 1.0
C      1  0.4701390000000  0.5622860000000  0.4686090000000 1.0
C      1  0.4311080000000  0.5115910000000  0.4848660000000 1.0
C      1  0.4622310000000  0.3889630000000  0.5154440000000 1.0
C      1  0.5534350000000  0.4844050000000  0.4619850000000 1.0
C      1  0.5191460000000  0.5014530000000  0.4990340000000 1.0
C      1  0.5011530000000  0.5219880000000  0.5013850000000 1.0
C      1  0.4750360000000  0.5116160000000  0.5012850000000 1.0
C      1  0.4769060000000  0.4833600000000  0.4938410000000 1.0
C      1  0.5049310000000  0.4779440000000  0.4914740000000 1.0
END
