TITL C-26730-8313-88 -120.032324583384 125000 -328.145536722485 0 0 60 (C1) n - 1
REM
REM in /home/nfs/bkarasulu/CARBON/AIRSS/Generating-Clusters/AIREBO/Higher-Symm/Only-C60
REM
REM
REM
REM
REM
REM ./C.cell (28575a23ae977d3b5fae324c64b13b57)
REM
REM compiler GCC version 9.2.1 20190827 (Red Hat 9.2.1-1)
REM options -cpp -mtune=generic -march=x86-64 -g -O0 -fpre-include=/usr/include/finclude/math-vector-fortran.h
REM seed -2107040845 1910498827 1193615200 -1370583500 -623002317 -260171926 -458422467 -997004732 1472353998 560003164 -1269819954 354649545 -1623937791 -1216483148 1389511135 802116050 819087444 -683677939 1806209459 1929422918 759965710 -594120064 -1286218885 1619221107 -1842728120 -908869232 1937798792 774803690 171122918 1347795019 -1990567143 1899295994 -979961393
REM
CELL 1.54180   50.00000   50.00000   50.00000   90.00000   90.00000   90.00000
LATT -1
SFAC C  
C      1  0.4347230000000  0.5219620000000  0.5143250000000 1.0
C      1  0.4907660000000  0.5165770000000  0.5686760000000 1.0
C      1  0.5535790000000  0.5240290000000  0.5173410000000 1.0
C      1  0.5411540000000  0.5156740000000  0.4430280000000 1.0
C      1  0.4648400000000  0.5195340000000  0.4466760000000 1.0
C      1  0.4283890000000  0.4951020000000  0.5122360000000 1.0
C      1  0.4906460000000  0.4882320000000  0.5663640000000 1.0
C      1  0.5572650000000  0.4939610000000  0.5252580000000 1.0
C      1  0.5426860000000  0.4877920000000  0.4493900000000 1.0
C      1  0.4653360000000  0.4911730000000  0.4456450000000 1.0
C      1  0.5144120000000  0.4737580000000  0.5620700000000 1.0
C      1  0.5625320000000  0.4748310000000  0.5045110000000 1.0
C      1  0.5222990000000  0.4700750000000  0.4410160000000 1.0
C      1  0.4488140000000  0.4733420000000  0.4597760000000 1.0
C      1  0.4489350000000  0.4614980000000  0.5410950000000 1.0
C      1  0.4824280000000  0.4254590000000  0.4818890000000 1.0
C      1  0.4734490000000  0.4283440000000  0.5140070000000 1.0
C      1  0.5058530000000  0.4284340000000  0.5244200000000 1.0
C      1  0.5300830000000  0.4313440000000  0.5007400000000 1.0
C      1  0.5130420000000  0.4303820000000  0.4734540000000 1.0
C      1  0.5594010000000  0.4474040000000  0.5068800000000 1.0
C      1  0.5211870000000  0.4429720000000  0.4506550000000 1.0
C      1  0.4589600000000  0.4437160000000  0.4647390000000 1.0
C      1  0.4504060000000  0.4496000000000  0.5158930000000 1.0
C      1  0.5154520000000  0.4434670000000  0.5539390000000 1.0
C      1  0.4622320000000  0.5281850000000  0.4755120000000 1.0
C      1  0.4601770000000  0.5301760000000  0.5312980000000 1.0
C      1  0.5125960000000  0.5282050000000  0.5520040000000 1.0
C      1  0.5547130000000  0.5248240000000  0.4851080000000 1.0
C      1  0.5138490000000  0.5280700000000  0.4499090000000 1.0
C      1  0.4781440000000  0.4585230000000  0.4886030000000 1.0
C      1  0.4862490000000  0.4668610000000  0.5192110000000 1.0
C      1  0.5169220000000  0.4605930000000  0.5244390000000 1.0
C      1  0.5262930000000  0.4639380000000  0.4918320000000 1.0
C      1  0.5022420000000  0.4688470000000  0.4753490000000 1.0
C      1  0.4663530000000  0.5285300000000  0.5627100000000 1.0
C      1  0.5430730000000  0.5384960000000  0.5441910000000 1.0
C      1  0.5602880000000  0.5288340000000  0.4593310000000 1.0
C      1  0.4863130000000  0.5315030000000  0.4340170000000 1.0
C      1  0.4351170000000  0.5342580000000  0.4896820000000 1.0
C      1  0.4721210000000  0.5008850000000  0.4926100000000 1.0
C      1  0.4798280000000  0.5061590000000  0.5220470000000 1.0
C      1  0.5128060000000  0.5100030000000  0.5232820000000 1.0
C      1  0.5255290000000  0.5091990000000  0.4929960000000 1.0
C      1  0.4990990000000  0.5083240000000  0.4732780000000 1.0
C      1  0.4493110000000  0.4756930000000  0.4940770000000 1.0
C      1  0.4723940000000  0.4821880000000  0.5434220000000 1.0
C      1  0.5308320000000  0.4873190000000  0.5383810000000 1.0
C      1  0.5464190000000  0.4858000000000  0.4798450000000 1.0
C      1  0.4954610000000  0.4849250000000  0.4488590000000 1.0
C      1  0.5299770000000  0.5463030000000  0.5071120000000 1.0
C      1  0.5131140000000  0.5455420000000  0.4774020000000 1.0
C      1  0.4809730000000  0.5495930000000  0.4854180000000 1.0
C      1  0.4775530000000  0.5526960000000  0.5184770000000 1.0
C      1  0.5077870000000  0.5512550000000  0.5305930000000 1.0
C      1  0.4807260000000  0.5825110000000  0.4921020000000 1.0
C      1  0.4889260000000  0.5850840000000  0.5213660000000 1.0
C      1  0.5197400000000  0.5816440000000  0.5225910000000 1.0
C      1  0.5301290000000  0.5776340000000  0.4938610000000 1.0
C      1  0.5060770000000  0.5787400000000  0.4750620000000 1.0
END
