TITL C-26737-6152-41 -3.30167382431539e-05 125000 -354.737548178085 0 0 60 (C1) n - 1
REM
REM in /home/nfs/bkarasulu/CARBON/AIRSS/Generating-Clusters/AIREBO/Higher-Symm/Only-C60
REM
REM
REM
REM
REM
REM ./C.cell (28575a23ae977d3b5fae324c64b13b57)
REM
REM compiler GCC version 9.2.1 20190827 (Red Hat 9.2.1-1)
REM options -cpp -mtune=generic -march=x86-64 -g -O0 -fpre-include=/usr/include/finclude/math-vector-fortran.h
REM seed 230951377 -1401479519 -349020433 -1843948256 407612103 82935803 1299698617 1958961718 1557004947 1807350448 69725120 -601302887 1695694551 -1314319546 155988162 13804098 -1586054602 -802526663 1683495827 -1658049420 -878521236 829937068 2051381081 -2070585623 -122397818 -780668558 -1344095434 -1382168236 1180156986 -2024550854 -472278783 -595396381 -1860574503
REM
CELL 1.54180   50.00000   50.00000   50.00000   90.00000   90.00000   90.00000
LATT -1
SFAC C  
C      1  0.5073350000000  0.5527920000000  0.4675450000000 1.0
C      1  0.5132500000000  0.5628990000000  0.5227090000000 1.0
C      1  0.5115130000000  0.5225800000000  0.5555370000000 1.0
C      1  0.5116160000000  0.4632590000000  0.5542990000000 1.0
C      1  0.5076850000000  0.4244810000000  0.5047050000000 1.0
C      1  0.5114670000000  0.4608530000000  0.4510670000000 1.0
C      1  0.5082160000000  0.5060020000000  0.4425700000000 1.0
C      1  0.5601200000000  0.4715380000000  0.4450870000000 1.0
C      1  0.5484680000000  0.5280450000000  0.4553330000000 1.0
C      1  0.5492100000000  0.5497510000000  0.4964210000000 1.0
C      1  0.5546910000000  0.5403900000000  0.5424400000000 1.0
C      1  0.5507050000000  0.4950590000000  0.5564210000000 1.0
C      1  0.5577630000000  0.4518360000000  0.5404020000000 1.0
C      1  0.5476320000000  0.4450650000000  0.4801750000000 1.0
C      1  0.4650050000000  0.4883270000000  0.4385750000000 1.0
C      1  0.4787790000000  0.5394580000000  0.4551720000000 1.0
C      1  0.4655940000000  0.5588940000000  0.5151920000000 1.0
C      1  0.4847920000000  0.5430670000000  0.5569640000000 1.0
C      1  0.4666350000000  0.4899510000000  0.5554020000000 1.0
C      1  0.4841490000000  0.4376590000000  0.5226950000000 1.0
C      1  0.4673740000000  0.4455670000000  0.4617870000000 1.0
C      1  0.5400120000000  0.5208770000000  0.5576520000000 1.0
C      1  0.5395780000000  0.4683520000000  0.5562760000000 1.0
C      1  0.5332780000000  0.4256240000000  0.4945870000000 1.0
C      1  0.5383730000000  0.4537030000000  0.4532730000000 1.0
C      1  0.5332200000000  0.5154600000000  0.4355350000000 1.0
C      1  0.5344410000000  0.5475430000000  0.4719720000000 1.0
C      1  0.5408110000000  0.5574440000000  0.5225510000000 1.0
C      1  0.4627900000000  0.5042820000000  0.5013580000000 1.0
C      1  0.4420310000000  0.5462660000000  0.5207350000000 1.0
C      1  0.4392260000000  0.5152690000000  0.5221740000000 1.0
C      1  0.4414280000000  0.4969430000000  0.5473130000000 1.0
C      1  0.4449940000000  0.4690520000000  0.4954690000000 1.0
C      1  0.4436870000000  0.4593400000000  0.4686670000000 1.0
C      1  0.4390040000000  0.4823550000000  0.4506450000000 1.0
C      1  0.5705280000000  0.4851020000000  0.4687850000000 1.0
C      1  0.5682120000000  0.5134600000000  0.4702670000000 1.0
C      1  0.5675390000000  0.5245350000000  0.4984680000000 1.0
C      1  0.5786330000000  0.5273670000000  0.5301680000000 1.0
C      1  0.5772370000000  0.4940210000000  0.5370180000000 1.0
C      1  0.5721540000000  0.4661840000000  0.5181630000000 1.0
C      1  0.5609970000000  0.4681870000000  0.4921970000000 1.0
C      1  0.4853780000000  0.5621560000000  0.5358540000000 1.0
C      1  0.4816170000000  0.5111800000000  0.5636080000000 1.0
C      1  0.4816550000000  0.4660480000000  0.5406350000000 1.0
C      1  0.4837520000000  0.4396890000000  0.4886300000000 1.0
C      1  0.4818070000000  0.4627650000000  0.4421890000000 1.0
C      1  0.4789880000000  0.5144150000000  0.4403300000000 1.0
C      1  0.4782360000000  0.5555320000000  0.4851310000000 1.0
C      1  0.4944930000000  0.4690320000000  0.4794000000000 1.0
C      1  0.4993870000000  0.4982460000000  0.4705250000000 1.0
C      1  0.4858660000000  0.5168400000000  0.4873560000000 1.0
C      1  0.4993130000000  0.5393350000000  0.5063330000000 1.0
C      1  0.4994290000000  0.5165270000000  0.5264410000000 1.0
C      1  0.5045540000000  0.4919790000000  0.5147050000000 1.0
C      1  0.4766510000000  0.4739400000000  0.5079390000000 1.0
C      1  0.5311770000000  0.4880330000000  0.5097150000000 1.0
C      1  0.4225400000000  0.5010390000000  0.4651160000000 1.0
C      1  0.4297340000000  0.4987380000000  0.4958090000000 1.0
C      1  0.5532270000000  0.5012260000000  0.5151030000000 1.0
END
