TITL C-26739-6686-6 0.0012734541594689 125000 -335.290953243843 0 0 60 (D3) n - 1
REM
REM in /home/nfs/bkarasulu/CARBON/AIRSS/Generating-Clusters/AIREBO/Higher-Symm/Only-C60
REM
REM
REM
REM
REM
REM ./C.cell (28575a23ae977d3b5fae324c64b13b57)
REM
REM compiler GCC version 9.2.1 20190827 (Red Hat 9.2.1-1)
REM options -cpp -mtune=generic -march=x86-64 -g -O0 -fpre-include=/usr/include/finclude/math-vector-fortran.h
REM seed -1176708450 -1878188918 759038265 713074614 -1373947589 -1018329909 -975736188 1212349592 200908656 1943588966 -1471593869 2105696127 1268123475 877103471 -1722546959 -1984061918 571367025 -1886837712 1189436388 1859097137 1887460520 -1546562728 -103968173 1455128942 -1453520138 -635411810 1142305119 -2095502617 -1430417081 -253935988 -752274190 1146864017 1689792455
REM
CELL 1.54180   50.00000   50.00000   50.00000   90.00000   90.00000   90.00000
LATT -1
SFAC C  
C      1  0.5147310000000  0.4742710000000  0.4798520000000 1.0
C      1  0.4703630000000  0.5000870000000  0.4798370000000 1.0
C      1  0.5149040000000  0.5256030000000  0.4798190000000 1.0
C      1  0.5156360000000  0.4729570000000  0.5124410000000 1.0
C      1  0.4687560000000  0.4999930000000  0.5124250000000 1.0
C      1  0.5156100000000  0.5270740000000  0.5124060000000 1.0
C      1  0.4843780000000  0.4729330000000  0.4875940000000 1.0
C      1  0.5312440000000  0.4999920000000  0.4875750000000 1.0
C      1  0.4843770000000  0.5270510000000  0.4875590000000 1.0
C      1  0.4852820000000  0.4742900000000  0.5201810000000 1.0
C      1  0.5296370000000  0.5001280000000  0.5201630000000 1.0
C      1  0.4850830000000  0.5256210000000  0.5201480000000 1.0
C      1  0.4589810000000  0.4584460000000  0.5448060000000 1.0
C      1  0.4845000000000  0.5563450000000  0.5447420000000 1.0
C      1  0.5565230000000  0.4852950000000  0.5447860000000 1.0
C      1  0.4645860000000  0.4629870000000  0.4544400000000 1.0
C      1  0.4856760000000  0.5491310000000  0.4543840000000 1.0
C      1  0.5497340000000  0.4877940000000  0.4544220000000 1.0
C      1  0.5354320000000  0.4630630000000  0.5456080000000 1.0
C      1  0.5142990000000  0.5491960000000  0.5455530000000 1.0
C      1  0.4502720000000  0.4878280000000  0.5455940000000 1.0
C      1  0.5410400000000  0.4584090000000  0.4552480000000 1.0
C      1  0.5154720000000  0.5562950000000  0.4551860000000 1.0
C      1  0.4434850000000  0.4852100000000  0.4552330000000 1.0
C      1  0.4374580000000  0.5503510000000  0.4742540000000 1.0
C      1  0.5748900000000  0.5289630000000  0.4742640000000 1.0
C      1  0.4876510000000  0.4206370000000  0.4743360000000 1.0
C      1  0.4385980000000  0.5501120000000  0.5246520000000 1.0
C      1  0.5740870000000  0.5281440000000  0.5246620000000 1.0
C      1  0.4873170000000  0.4217910000000  0.5247330000000 1.0
C      1  0.5613770000000  0.5501110000000  0.4752840000000 1.0
C      1  0.4258990000000  0.5280760000000  0.4753020000000 1.0
C      1  0.5127210000000  0.4217660000000  0.4753680000000 1.0
C      1  0.5625170000000  0.5504150000000  0.5256810000000 1.0
C      1  0.4250960000000  0.5289580000000  0.5256990000000 1.0
C      1  0.5123890000000  0.4206760000000  0.5257660000000 1.0
C      1  0.5313820000000  0.5531310000000  0.4850730000000 1.0
C      1  0.5303300000000  0.4462420000000  0.4851420000000 1.0
C      1  0.4382870000000  0.5005980000000  0.4851090000000 1.0
C      1  0.5322630000000  0.5549690000000  0.5191190000000 1.0
C      1  0.5314630000000  0.4445940000000  0.5191900000000 1.0
C      1  0.4362760000000  0.5004740000000  0.5191570000000 1.0
C      1  0.4677100000000  0.5549280000000  0.4808100000000 1.0
C      1  0.4685640000000  0.4445540000000  0.4808810000000 1.0
C      1  0.5637240000000  0.5004810000000  0.4808430000000 1.0
C      1  0.4685920000000  0.5531340000000  0.5148590000000 1.0
C      1  0.4696970000000  0.4462460000000  0.5149270000000 1.0
C      1  0.5617120000000  0.5006480000000  0.5148900000000 1.0
C      1  0.5161890000000  0.4740350000000  0.4382870000000 1.0
C      1  0.4694510000000  0.4989010000000  0.4382730000000 1.0
C      1  0.5143550000000  0.5269450000000  0.4382530000000 1.0
C      1  0.5122430000000  0.4721410000000  0.5648590000000 1.0
C      1  0.4697190000000  0.5033900000000  0.5648400000000 1.0
C      1  0.5180430000000  0.5245930000000  0.5648250000000 1.0
C      1  0.4877710000000  0.4720520000000  0.4351770000000 1.0
C      1  0.5302800000000  0.5033220000000  0.4351560000000 1.0
C      1  0.4819450000000  0.5245010000000  0.4351440000000 1.0
C      1  0.4838230000000  0.4741070000000  0.5617460000000 1.0
C      1  0.5305490000000  0.4989950000000  0.5617290000000 1.0
C      1  0.4856320000000  0.5270170000000  0.5617120000000 1.0
END
