TITL C-26737-6152-153 134406.240756458 125000 -324.533824506461 0 0 60 (C1) n - 1
REM
REM in /home/nfs/bkarasulu/CARBON/AIRSS/Generating-Clusters/AIREBO/Higher-Symm/Only-C60
REM
REM
REM
REM
REM
REM ./C.cell (28575a23ae977d3b5fae324c64b13b57)
REM
REM compiler GCC version 9.2.1 20190827 (Red Hat 9.2.1-1)
REM options -cpp -mtune=generic -march=x86-64 -g -O0 -fpre-include=/usr/include/finclude/math-vector-fortran.h
REM seed 1225309607 -1867884888 1514111121 273891378 -1884522675 1331524357 1035889797 1151878881 1823419844 1586982415 -1089942344 735634910 -435250912 1592718268 964587225 -1549467451 2137035867 35771626 -1650370648 -873121298 -1800227975 -1138072222 -900974264 1516414184 -1528013087 2101602744 2081106348 1134359974 1478527634 1566898151 -134872518 1502797181 -1580100764
REM
CELL 1.54180   50.00000   50.00000   50.00000   90.00000   90.00000   90.00000
LATT -1
SFAC C  
C      1  0.4455730000000  0.5030070000000  0.5592200000000 1.0
C      1  0.4611030000000  0.4440380000000  0.5169380000000 1.0
C      1  0.4505690000000  0.4811730000000  0.4486130000000 1.0
C      1  0.4631820000000  0.5558650000000  0.4681290000000 1.0
C      1  0.5038480000000  0.4952520000000  0.5867970000000 1.0
C      1  0.5124320000000  0.4281230000000  0.4726570000000 1.0
C      1  0.5061770000000  0.5195840000000  0.4197190000000 1.0
C      1  0.5049340000000  0.5722130000000  0.5176760000000 1.0
C      1  0.5211180000000  0.5564420000000  0.4994430000000 1.0
C      1  0.5157660000000  0.5175150000000  0.5758590000000 1.0
C      1  0.5259500000000  0.4469390000000  0.4866350000000 1.0
C      1  0.5263210000000  0.5062790000000  0.4332980000000 1.0
C      1  0.5613740000000  0.5584600000000  0.4588910000000 1.0
C      1  0.5368570000000  0.5451620000000  0.5408700000000 1.0
C      1  0.5326320000000  0.4564160000000  0.5395170000000 1.0
C      1  0.5215500000000  0.4600200000000  0.4414320000000 1.0
C      1  0.4671780000000  0.5122640000000  0.5104350000000 1.0
C      1  0.4783300000000  0.4844610000000  0.5227520000000 1.0
C      1  0.4814330000000  0.4800830000000  0.4907520000000 1.0
C      1  0.4776280000000  0.5097520000000  0.4799070000000 1.0
C      1  0.4836280000000  0.4434860000000  0.5325110000000 1.0
C      1  0.4689890000000  0.4607660000000  0.4462240000000 1.0
C      1  0.4856900000000  0.5425340000000  0.4585230000000 1.0
C      1  0.4754930000000  0.5176980000000  0.5507050000000 1.0
C      1  0.5748440000000  0.5107090000000  0.4806830000000 1.0
C      1  0.5798970000000  0.5186070000000  0.5106570000000 1.0
C      1  0.5763980000000  0.4917500000000  0.5299670000000 1.0
C      1  0.5771420000000  0.4811530000000  0.4972120000000 1.0
C      1  0.5256750000000  0.4783390000000  0.4770340000000 1.0
C      1  0.5281550000000  0.5101330000000  0.4649960000000 1.0
C      1  0.5067570000000  0.5278780000000  0.5110160000000 1.0
C      1  0.5143550000000  0.5002570000000  0.5293400000000 1.0
C      1  0.5411780000000  0.5237560000000  0.5641220000000 1.0
C      1  0.5382430000000  0.4434490000000  0.5104780000000 1.0
C      1  0.5402430000000  0.4810790000000  0.4401100000000 1.0
C      1  0.5399810000000  0.5558690000000  0.4814570000000 1.0
C      1  0.5066500000000  0.5300720000000  0.5449620000000 1.0
C      1  0.5037050000000  0.4698390000000  0.5401880000000 1.0
C      1  0.4972360000000  0.4642280000000  0.4648390000000 1.0
C      1  0.5052270000000  0.5254510000000  0.4786000000000 1.0
C      1  0.4362590000000  0.5131300000000  0.4673660000000 1.0
C      1  0.4505420000000  0.5591530000000  0.4969450000000 1.0
C      1  0.4354920000000  0.4732220000000  0.5461160000000 1.0
C      1  0.4366010000000  0.4640870000000  0.4927490000000 1.0
C      1  0.4827690000000  0.4335080000000  0.4667120000000 1.0
C      1  0.4826350000000  0.5271660000000  0.4328550000000 1.0
C      1  0.4886430000000  0.5562930000000  0.5329250000000 1.0
C      1  0.4923670000000  0.4766430000000  0.5715130000000 1.0
C      1  0.4645930000000  0.5451080000000  0.5188430000000 1.0
C      1  0.4670940000000  0.4787600000000  0.5532150000000 1.0
C      1  0.4662470000000  0.4514420000000  0.4865600000000 1.0
C      1  0.4647630000000  0.5092540000000  0.4513120000000 1.0
C      1  0.4340360000000  0.4575270000000  0.5232680000000 1.0
C      1  0.4298080000000  0.4821810000000  0.4720650000000 1.0
C      1  0.4355380000000  0.5397630000000  0.4758670000000 1.0
C      1  0.4461900000000  0.5239720000000  0.5346400000000 1.0
C      1  0.5554250000000  0.4688910000000  0.5190420000000 1.0
C      1  0.5578050000000  0.4836530000000  0.4691100000000 1.0
C      1  0.5523870000000  0.5275210000000  0.4701270000000 1.0
C      1  0.5573610000000  0.5186230000000  0.5356050000000 1.0
END
