TITL C-26734-8308-20 0.00131770228237072 125000 -331.142165951786 0 0 60 (C1) n - 1
REM
REM in /home/nfs/bkarasulu/CARBON/AIRSS/Generating-Clusters/AIREBO/Higher-Symm/Only-C60
REM
REM
REM
REM
REM
REM ./C.cell (28575a23ae977d3b5fae324c64b13b57)
REM
REM compiler GCC version 9.2.1 20190827 (Red Hat 9.2.1-1)
REM options -cpp -mtune=generic -march=x86-64 -g -O0 -fpre-include=/usr/include/finclude/math-vector-fortran.h
REM seed 1976142792 1389841726 1112834422 1974901806 2024142036 -2204337 -809041271 623897164 -1202218449 243140044 2087791796 263715991 -972123559 -1558507681 1220228337 -832163090 1480470609 443732960 1432895734 -1144895480 1488762426 558811406 -182790670 -361460578 1547061512 -263099742 -38531400 -2066166443 -1855341410 1757266025 297667997 -709920644 -448062465
REM
CELL 1.54180   50.00000   50.00000   50.00000   90.00000   90.00000   90.00000
LATT -1
SFAC C  
C      1  0.5109150000000  0.5314920000000  0.5648180000000 1.0
C      1  0.4640170000000  0.4987220000000  0.5669420000000 1.0
C      1  0.5295020000000  0.4700640000000  0.5631380000000 1.0
C      1  0.4705260000000  0.4457330000000  0.4692250000000 1.0
C      1  0.5602260000000  0.4918190000000  0.4735290000000 1.0
C      1  0.4749720000000  0.5505290000000  0.4661070000000 1.0
C      1  0.4956130000000  0.4293620000000  0.5102820000000 1.0
C      1  0.5637420000000  0.5448490000000  0.5142370000000 1.0
C      1  0.4293470000000  0.5347500000000  0.5131960000000 1.0
C      1  0.5101890000000  0.4587780000000  0.5426290000000 1.0
C      1  0.5287900000000  0.5262590000000  0.5396500000000 1.0
C      1  0.4589420000000  0.5157470000000  0.5417460000000 1.0
C      1  0.4884560000000  0.5495780000000  0.5154730000000 1.0
C      1  0.4697120000000  0.4752980000000  0.5151220000000 1.0
C      1  0.5430440000000  0.4875730000000  0.5025740000000 1.0
C      1  0.4790020000000  0.5083630000000  0.4331490000000 1.0
C      1  0.5053850000000  0.4698420000000  0.4367530000000 1.0
C      1  0.5277990000000  0.5129510000000  0.4363970000000 1.0
C      1  0.4716800000000  0.4277930000000  0.5326290000000 1.0
C      1  0.5764030000000  0.5212690000000  0.5255480000000 1.0
C      1  0.4408550000000  0.5568840000000  0.5281420000000 1.0
C      1  0.5268010000000  0.5156170000000  0.4929550000000 1.0
C      1  0.4762830000000  0.5284740000000  0.4919580000000 1.0
C      1  0.4887420000000  0.4588420000000  0.4947770000000 1.0
C      1  0.4424030000000  0.5284000000000  0.4890910000000 1.0
C      1  0.5030700000000  0.4249400000000  0.4792970000000 1.0
C      1  0.5508970000000  0.5395300000000  0.4898800000000 1.0
C      1  0.5151930000000  0.5726850000000  0.4821110000000 1.0
C      1  0.4390130000000  0.4804250000000  0.4785990000000 1.0
C      1  0.5435140000000  0.4473810000000  0.4715420000000 1.0
C      1  0.5315130000000  0.4809930000000  0.4281260000000 1.0
C      1  0.5041570000000  0.5289640000000  0.4228080000000 1.0
C      1  0.4759180000000  0.4796550000000  0.4229160000000 1.0
C      1  0.4756050000000  0.4551140000000  0.4441880000000 1.0
C      1  0.5535500000000  0.4957620000000  0.4476940000000 1.0
C      1  0.4806540000000  0.5408870000000  0.4417540000000 1.0
C      1  0.4296250000000  0.5122640000000  0.5314290000000 1.0
C      1  0.5221180000000  0.4336120000000  0.5269290000000 1.0
C      1  0.5438040000000  0.5534380000000  0.5332130000000 1.0
C      1  0.4848020000000  0.5061420000000  0.4665820000000 1.0
C      1  0.4993930000000  0.4766520000000  0.4680670000000 1.0
C      1  0.5139370000000  0.5231650000000  0.4623970000000 1.0
C      1  0.4665980000000  0.4736700000000  0.5660570000000 1.0
C      1  0.5501780000000  0.4825110000000  0.5561210000000 1.0
C      1  0.4899780000000  0.5456210000000  0.5647750000000 1.0
C      1  0.4511950000000  0.5049300000000  0.4716400000000 1.0
C      1  0.5154920000000  0.4466680000000  0.4677120000000 1.0
C      1  0.5288770000000  0.5499070000000  0.4729610000000 1.0
C      1  0.4228470000000  0.4860850000000  0.5237730000000 1.0
C      1  0.5473230000000  0.4368530000000  0.5176750000000 1.0
C      1  0.5270510000000  0.5756780000000  0.5285370000000 1.0
C      1  0.5073270000000  0.5219360000000  0.5162740000000 1.0
C      1  0.4777040000000  0.5054840000000  0.5174890000000 1.0
C      1  0.5155080000000  0.4702040000000  0.5123900000000 1.0
C      1  0.5526620000000  0.4554180000000  0.4971160000000 1.0
C      1  0.5066070000000  0.5724490000000  0.5090780000000 1.0
C      1  0.4409300000000  0.4735920000000  0.5060070000000 1.0
C      1  0.5514930000000  0.5019830000000  0.5323030000000 1.0
C      1  0.4694430000000  0.5474190000000  0.5407130000000 1.0
C      1  0.4786770000000  0.4589910000000  0.5417810000000 1.0
END
