TITL C-26735-8354-47 0.000339244842141634 125000 -319.779218759916 0 0 60 (C1) n - 1
REM
REM in /home/nfs/bkarasulu/CARBON/AIRSS/Generating-Clusters/AIREBO/Higher-Symm/Only-C60
REM
REM
REM
REM
REM
REM ./C.cell (28575a23ae977d3b5fae324c64b13b57)
REM
REM compiler GCC version 9.2.1 20190827 (Red Hat 9.2.1-1)
REM options -cpp -mtune=generic -march=x86-64 -g -O0 -fpre-include=/usr/include/finclude/math-vector-fortran.h
REM seed 1430812407 -1804160823 1686953720 -1892295856 663152251 1728004535 -1533747331 -1170000563 -1688027658 162235618 -1722829242 -2000494943 -1419977022 -257040668 -115705764 1575824377 -562143387 2022876209 -14929676 -134022421 -156846931 -712158371 -696731100 -382802290 -2078944686 -1917576459 -947581851 1903133255 -1726437252 1378780627 -1700971651 424131396 -1530838969
REM
CELL 1.54180   50.00000   50.00000   50.00000   90.00000   90.00000   90.00000
LATT -1
SFAC C  
C      1  0.4586850000000  0.5132250000000  0.4367730000000 1.0
C      1  0.4581220000000  0.4576610000000  0.4485050000000 1.0
C      1  0.4601780000000  0.4303340000000  0.5005670000000 1.0
C      1  0.4599400000000  0.4602800000000  0.5513390000000 1.0
C      1  0.4546540000000  0.5160070000000  0.5622420000000 1.0
C      1  0.4594120000000  0.5620220000000  0.5257790000000 1.0
C      1  0.4571270000000  0.5628900000000  0.4685640000000 1.0
C      1  0.4873930000000  0.4589400000000  0.5612520000000 1.0
C      1  0.4818820000000  0.5166240000000  0.5705500000000 1.0
C      1  0.4866000000000  0.5695720000000  0.5293670000000 1.0
C      1  0.4843900000000  0.5701250000000  0.4627870000000 1.0
C      1  0.4849720000000  0.5138760000000  0.4264740000000 1.0
C      1  0.4854350000000  0.4517820000000  0.4423100000000 1.0
C      1  0.4875270000000  0.4220700000000  0.5020730000000 1.0
C      1  0.5325990000000  0.5068620000000  0.4621760000000 1.0
C      1  0.5284510000000  0.4753810000000  0.4712530000000 1.0
C      1  0.5283750000000  0.4588310000000  0.5010010000000 1.0
C      1  0.5292020000000  0.4822560000000  0.5449940000000 1.0
C      1  0.5298560000000  0.5133950000000  0.5313230000000 1.0
C      1  0.5350500000000  0.5388720000000  0.5094610000000 1.0
C      1  0.5291840000000  0.5367230000000  0.4775550000000 1.0
C      1  0.5031720000000  0.4536100000000  0.4703990000000 1.0
C      1  0.5047750000000  0.4447670000000  0.5191990000000 1.0
C      1  0.4984980000000  0.4900580000000  0.5573520000000 1.0
C      1  0.5038860000000  0.5283810000000  0.5473780000000 1.0
C      1  0.5068060000000  0.5576180000000  0.5047680000000 1.0
C      1  0.5024440000000  0.5423110000000  0.4582330000000 1.0
C      1  0.5052480000000  0.4950860000000  0.4453460000000 1.0
C      1  0.4784690000000  0.4628040000000  0.5149150000000 1.0
C      1  0.4755040000000  0.4918460000000  0.5323480000000 1.0
C      1  0.4768500000000  0.5257720000000  0.5305200000000 1.0
C      1  0.4810920000000  0.5376050000000  0.5028410000000 1.0
C      1  0.4757470000000  0.5276580000000  0.4708430000000 1.0
C      1  0.4801180000000  0.4950380000000  0.4674010000000 1.0
C      1  0.4757490000000  0.4654130000000  0.4835350000000 1.0
C      1  0.5333460000000  0.5194980000000  0.4309440000000 1.0
C      1  0.5348260000000  0.4569270000000  0.4434130000000 1.0
C      1  0.5376630000000  0.4273060000000  0.4922740000000 1.0
C      1  0.5344520000000  0.4565180000000  0.5535160000000 1.0
C      1  0.5400880000000  0.5158680000000  0.5636630000000 1.0
C      1  0.5344110000000  0.5619860000000  0.5332530000000 1.0
C      1  0.5338030000000  0.5683970000000  0.4660820000000 1.0
C      1  0.4493750000000  0.5403240000000  0.5447780000000 1.0
C      1  0.4546780000000  0.5568050000000  0.4961420000000 1.0
C      1  0.4495470000000  0.5382580000000  0.4516410000000 1.0
C      1  0.4531890000000  0.4863300000000  0.4487610000000 1.0
C      1  0.4508250000000  0.4439640000000  0.4748680000000 1.0
C      1  0.4527890000000  0.4440010000000  0.5268790000000 1.0
C      1  0.4479250000000  0.4884840000000  0.5519530000000 1.0
C      1  0.5094150000000  0.4676470000000  0.4336970000000 1.0
C      1  0.5098040000000  0.4278980000000  0.4833900000000 1.0
C      1  0.5089310000000  0.4432760000000  0.5490400000000 1.0
C      1  0.5216650000000  0.5039370000000  0.5780270000000 1.0
C      1  0.5092500000000  0.5584260000000  0.5448620000000 1.0
C      1  0.5088270000000  0.5750000000000  0.4799790000000 1.0
C      1  0.5080280000000  0.5320560000000  0.4304880000000 1.0
C      1  0.5535530000000  0.4875580000000  0.5123510000000 1.0
C      1  0.4944370000000  0.4984570000000  0.4978460000000 1.0
C      1  0.5206870000000  0.4913930000000  0.5070580000000 1.0
C      1  0.4623870000000  0.5014370000000  0.5024730000000 1.0
END
