TITL C-26731-8310-136 -0.000494738342073966 125000 -339.322468265653 0 0 60 (C1) n - 1
REM
REM in /home/nfs/bkarasulu/CARBON/AIRSS/Generating-Clusters/AIREBO/Higher-Symm/Only-C60
REM
REM
REM
REM
REM
REM ./C.cell (28575a23ae977d3b5fae324c64b13b57)
REM
REM compiler GCC version 9.2.1 20190827 (Red Hat 9.2.1-1)
REM options -cpp -mtune=generic -march=x86-64 -g -O0 -fpre-include=/usr/include/finclude/math-vector-fortran.h
REM seed 1663468314 830785756 -108801291 -988319981 1913177994 71390183 -883730204 -2114952874 -683819575 -912898780 -1168710640 -1083028055 -1007974823 314362210 448017721 2064889017 1562895272 -1233415135 1594040626 -1465854939 -499668522 -405790508 1168644579 -839746786 2140481928 1451092999 1364573818 -965378962 1796350757 -970107881 1832911036 -1646649546 1198135653
REM
CELL 1.54180   50.00000   50.00000   50.00000   90.00000   90.00000   90.00000
LATT -1
SFAC C  
C      1  0.4346520000000  0.5400260000000  0.4896620000000 1.0
C      1  0.4793810000000  0.5325750000000  0.4437000000000 1.0
C      1  0.4850380000000  0.5232150000000  0.5138640000000 1.0
C      1  0.5366400000000  0.4726950000000  0.4537350000000 1.0
C      1  0.5635380000000  0.4513560000000  0.5333570000000 1.0
C      1  0.4792000000000  0.4545920000000  0.5160150000000 1.0
C      1  0.4620830000000  0.5618710000000  0.5222280000000 1.0
C      1  0.5665110000000  0.5815450000000  0.4962710000000 1.0
C      1  0.5011100000000  0.5673340000000  0.4689410000000 1.0
C      1  0.5386590000000  0.4903090000000  0.4741420000000 1.0
C      1  0.5524630000000  0.5279950000000  0.4883410000000 1.0
C      1  0.4933830000000  0.4129100000000  0.4523940000000 1.0
C      1  0.5256530000000  0.5543680000000  0.4650330000000 1.0
C      1  0.4480090000000  0.5651480000000  0.4964400000000 1.0
C      1  0.4546180000000  0.4905480000000  0.4378200000000 1.0
C      1  0.4814420000000  0.5600310000000  0.4501450000000 1.0
C      1  0.5743460000000  0.5116370000000  0.5271850000000 1.0
C      1  0.4936580000000  0.4334240000000  0.4685740000000 1.0
C      1  0.4824820000000  0.4232010000000  0.5278080000000 1.0
C      1  0.4551890000000  0.5239680000000  0.5552530000000 1.0
C      1  0.5628610000000  0.4614280000000  0.5083940000000 1.0
C      1  0.4519950000000  0.4930460000000  0.4899200000000 1.0
C      1  0.4354570000000  0.4650150000000  0.5325900000000 1.0
C      1  0.4794530000000  0.5044060000000  0.5416370000000 1.0
C      1  0.4286170000000  0.5290710000000  0.5162350000000 1.0
C      1  0.4897760000000  0.4613340000000  0.4587970000000 1.0
C      1  0.5116250000000  0.4713640000000  0.4410560000000 1.0
C      1  0.5374040000000  0.4811350000000  0.5037000000000 1.0
C      1  0.5503960000000  0.5537420000000  0.5077390000000 1.0
C      1  0.4997210000000  0.5104630000000  0.4921630000000 1.0
C      1  0.4451160000000  0.5430290000000  0.5366490000000 1.0
C      1  0.4476480000000  0.4925520000000  0.5437710000000 1.0
C      1  0.5091870000000  0.5490020000000  0.5369190000000 1.0
C      1  0.5039430000000  0.5183590000000  0.4435340000000 1.0
C      1  0.4975870000000  0.5755920000000  0.4956710000000 1.0
C      1  0.4950000000000  0.4310970000000  0.4973200000000 1.0
C      1  0.5487560000000  0.5226230000000  0.5423600000000 1.0
C      1  0.4829960000000  0.4826820000000  0.4820830000000 1.0
C      1  0.5069760000000  0.4812790000000  0.5054880000000 1.0
C      1  0.5098060000000  0.4091470000000  0.5183100000000 1.0
C      1  0.5114850000000  0.4657760000000  0.5555650000000 1.0
C      1  0.5447790000000  0.4669440000000  0.5540650000000 1.0
C      1  0.4596690000000  0.4675270000000  0.4533900000000 1.0
C      1  0.4444640000000  0.5189520000000  0.4733900000000 1.0
C      1  0.4347790000000  0.5013060000000  0.5160710000000 1.0
C      1  0.4983700000000  0.5293130000000  0.5549790000000 1.0
C      1  0.5310580000000  0.3949600000000  0.5256620000000 1.0
C      1  0.4903740000000  0.5640580000000  0.5206360000000 1.0
C      1  0.4516040000000  0.4627580000000  0.5053730000000 1.0
C      1  0.4441820000000  0.4575020000000  0.4736070000000 1.0
C      1  0.5750090000000  0.4820630000000  0.4901240000000 1.0
C      1  0.5273750000000  0.4533550000000  0.5799780000000 1.0
C      1  0.5497670000000  0.4898150000000  0.5333320000000 1.0
C      1  0.5709300000000  0.5091480000000  0.4978910000000 1.0
C      1  0.5366810000000  0.5454530000000  0.5322810000000 1.0
C      1  0.4558590000000  0.5171210000000  0.4479370000000 1.0
C      1  0.4944300000000  0.4766760000000  0.5345580000000 1.0
C      1  0.5468630000000  0.5660030000000  0.4773820000000 1.0
C      1  0.5241790000000  0.5208970000000  0.4708360000000 1.0
C      1  0.5057670000000  0.4952560000000  0.4276970000000 1.0
END
