TITL C-26731-8310-69 0.00171613250438019 125000 -329.749153556685 0 0 60 (C1) n - 1
REM
REM in /home/nfs/bkarasulu/CARBON/AIRSS/Generating-Clusters/AIREBO/Higher-Symm/Only-C60
REM
REM
REM
REM
REM
REM ./C.cell (28575a23ae977d3b5fae324c64b13b57)
REM
REM compiler GCC version 9.2.1 20190827 (Red Hat 9.2.1-1)
REM options -cpp -mtune=generic -march=x86-64 -g -O0 -fpre-include=/usr/include/finclude/math-vector-fortran.h
REM seed 881931906 1295350409 -284520268 -2108933357 1546504442 -1221319511 194556675 534579319 118156357 1867567341 2015484525 178914690 -1117805285 1010151484 1725617056 -2025727995 1107143189 -629185270 -1604754309 1394195172 -506134936 1569264522 1407435070 1020872276 2078783235 392021667 -1305302745 1937296923 1685371027 673933245 -858274685 702195076 -872240495
REM
CELL 1.54180   50.00000   50.00000   50.00000   90.00000   90.00000   90.00000
LATT -1
SFAC C  
C      1  0.4779350000000  0.4375750000000  0.5433250000000 1.0
C      1  0.5350940000000  0.4467130000000  0.5230340000000 1.0
C      1  0.5677400000000  0.5010450000000  0.5296480000000 1.0
C      1  0.5465860000000  0.5458880000000  0.5319390000000 1.0
C      1  0.4863460000000  0.5636400000000  0.5345900000000 1.0
C      1  0.4499030000000  0.5302630000000  0.5294320000000 1.0
C      1  0.4323750000000  0.4763060000000  0.5172770000000 1.0
C      1  0.5097250000000  0.5267940000000  0.5585430000000 1.0
C      1  0.4818730000000  0.5263560000000  0.5629720000000 1.0
C      1  0.4613730000000  0.5018590000000  0.5676890000000 1.0
C      1  0.4602120000000  0.4690530000000  0.5601840000000 1.0
C      1  0.5105860000000  0.4690930000000  0.5624780000000 1.0
C      1  0.5339690000000  0.4831220000000  0.5585770000000 1.0
C      1  0.5341260000000  0.5113590000000  0.5617840000000 1.0
C      1  0.4466400000000  0.5390840000000  0.4997850000000 1.0
C      1  0.4284280000000  0.4773320000000  0.4892840000000 1.0
C      1  0.4797360000000  0.4323370000000  0.4958880000000 1.0
C      1  0.5366160000000  0.4336930000000  0.4983370000000 1.0
C      1  0.5633200000000  0.4901250000000  0.4978430000000 1.0
C      1  0.5546610000000  0.5473930000000  0.5006590000000 1.0
C      1  0.4942370000000  0.5727780000000  0.5027590000000 1.0
C      1  0.5613440000000  0.4939970000000  0.4640800000000 1.0
C      1  0.5404630000000  0.5459660000000  0.4707480000000 1.0
C      1  0.4870490000000  0.5581000000000  0.4739960000000 1.0
C      1  0.4429780000000  0.5194020000000  0.4762730000000 1.0
C      1  0.4439960000000  0.4650210000000  0.4681380000000 1.0
C      1  0.4849770000000  0.4337720000000  0.4684120000000 1.0
C      1  0.5392740000000  0.4508400000000  0.4753440000000 1.0
C      1  0.5360770000000  0.4068590000000  0.4957860000000 1.0
C      1  0.5639220000000  0.4651330000000  0.4762650000000 1.0
C      1  0.5807750000000  0.5568170000000  0.4974270000000 1.0
C      1  0.5029440000000  0.5988720000000  0.5002860000000 1.0
C      1  0.4350450000000  0.5638170000000  0.4955140000000 1.0
C      1  0.4215660000000  0.5029600000000  0.4791150000000 1.0
C      1  0.4751690000000  0.4088060000000  0.5091150000000 1.0
C      1  0.4910790000000  0.5341840000000  0.4591090000000 1.0
C      1  0.4663060000000  0.5108600000000  0.4589050000000 1.0
C      1  0.4685150000000  0.4769280000000  0.4576310000000 1.0
C      1  0.4915600000000  0.4591480000000  0.4575630000000 1.0
C      1  0.5190250000000  0.4662530000000  0.4608090000000 1.0
C      1  0.5328390000000  0.4957120000000  0.4525460000000 1.0
C      1  0.5244760000000  0.5285840000000  0.4560040000000 1.0
C      1  0.5069980000000  0.4498460000000  0.5383320000000 1.0
C      1  0.5460620000000  0.4747630000000  0.5304020000000 1.0
C      1  0.5555360000000  0.5222660000000  0.5449410000000 1.0
C      1  0.5162440000000  0.5484850000000  0.5355450000000 1.0
C      1  0.4683670000000  0.5444120000000  0.5450870000000 1.0
C      1  0.4499840000000  0.4989550000000  0.5357680000000 1.0
C      1  0.4551410000000  0.4595900000000  0.5309870000000 1.0
C      1  0.5006590000000  0.5396120000000  0.5066660000000 1.0
C      1  0.4761800000000  0.5222550000000  0.5003510000000 1.0
C      1  0.4714670000000  0.4914030000000  0.5133410000000 1.0
C      1  0.4804430000000  0.4587610000000  0.5098020000000 1.0
C      1  0.5083390000000  0.4766540000000  0.5172800000000 1.0
C      1  0.5335920000000  0.4979750000000  0.5092640000000 1.0
C      1  0.5281870000000  0.5261080000000  0.5028370000000 1.0
C      1  0.4979100000000  0.5000650000000  0.4253410000000 1.0
C      1  0.4975180000000  0.4969040000000  0.4921960000000 1.0
C      1  0.4999790000000  0.5013610000000  0.4592620000000 1.0
C      1  0.4884530000000  0.4834220000000  0.5653820000000 1.0
END
