TITL C-26727-7196-150 0.00168013828143708 125000 -356.573257283526 0 0 60 (C1) n - 1
REM
REM in /home/nfs/bkarasulu/CARBON/AIRSS/Generating-Clusters/AIREBO/Higher-Symm/Only-C60
REM
REM
REM
REM
REM
REM ./C.cell (28575a23ae977d3b5fae324c64b13b57)
REM
REM compiler GCC version 9.2.1 20190827 (Red Hat 9.2.1-1)
REM options -cpp -mtune=generic -march=x86-64 -g -O0 -fpre-include=/usr/include/finclude/math-vector-fortran.h
REM seed -1324365089 -1021236455 -72912594 -112681082 -129774956 1954230571 2146714112 -263408219 1534462743 -774122628 345147066 1396738965 -342728044 -483037855 -1735413316 2004978003 980854508 -757177468 -792364008 1172999612 607424115 -459602183 1568406275 -1286456751 597172757 1115118551 -736275663 1403697998 1250427378 19830580 -820615213 -1852491623 -1824054171
REM
CELL 1.54180   50.00000   50.00000   50.00000   90.00000   90.00000   90.00000
LATT -1
SFAC C  
C      1  0.5316740000000  0.5060680000000  0.4330890000000 1.0
C      1  0.5479000000000  0.4411620000000  0.4647170000000 1.0
C      1  0.5319290000000  0.4430090000000  0.5248660000000 1.0
C      1  0.5329480000000  0.5049600000000  0.5683760000000 1.0
C      1  0.5319740000000  0.5595680000000  0.5420150000000 1.0
C      1  0.5478610000000  0.5538300000000  0.4811910000000 1.0
C      1  0.4459940000000  0.4667820000000  0.5011040000000 1.0
C      1  0.4461120000000  0.4846990000000  0.5227420000000 1.0
C      1  0.4596420000000  0.5099820000000  0.5211160000000 1.0
C      1  0.4832330000000  0.5119000000000  0.5061320000000 1.0
C      1  0.4811710000000  0.4948990000000  0.4809360000000 1.0
C      1  0.4566240000000  0.4757210000000  0.4772820000000 1.0
C      1  0.5348290000000  0.4833550000000  0.5266480000000 1.0
C      1  0.5371960000000  0.5142480000000  0.5192710000000 1.0
C      1  0.5135520000000  0.5231440000000  0.5008050000000 1.0
C      1  0.5273810000000  0.5099920000000  0.4726520000000 1.0
C      1  0.5093500000000  0.4843600000000  0.4757940000000 1.0
C      1  0.5289500000000  0.4721390000000  0.4976650000000 1.0
C      1  0.4526760000000  0.5286750000000  0.5408110000000 1.0
C      1  0.4474950000000  0.5893280000000  0.5089140000000 1.0
C      1  0.4606740000000  0.5126530000000  0.4629190000000 1.0
C      1  0.4562050000000  0.4638190000000  0.4528690000000 1.0
C      1  0.4493940000000  0.4392060000000  0.5065320000000 1.0
C      1  0.4460350000000  0.4729470000000  0.5484610000000 1.0
C      1  0.4885380000000  0.5727250000000  0.5299640000000 1.0
C      1  0.4803710000000  0.5547560000000  0.4550500000000 1.0
C      1  0.4860950000000  0.4905910000000  0.4190570000000 1.0
C      1  0.4857720000000  0.4215110000000  0.4676910000000 1.0
C      1  0.4854550000000  0.4448190000000  0.5448450000000 1.0
C      1  0.4869980000000  0.5146500000000  0.5727380000000 1.0
C      1  0.5178150000000  0.4804490000000  0.5550610000000 1.0
C      1  0.5147030000000  0.5524720000000  0.5644850000000 1.0
C      1  0.5159640000000  0.5559000000000  0.4919380000000 1.0
C      1  0.5208920000000  0.5301860000000  0.4469980000000 1.0
C      1  0.5104590000000  0.4642710000000  0.4516900000000 1.0
C      1  0.5235930000000  0.4396110000000  0.4963690000000 1.0
C      1  0.5141240000000  0.5252500000000  0.5756780000000 1.0
C      1  0.5159400000000  0.5702080000000  0.5208400000000 1.0
C      1  0.5100840000000  0.5527430000000  0.4585960000000 1.0
C      1  0.5120550000000  0.4858820000000  0.4296250000000 1.0
C      1  0.5157690000000  0.4334140000000  0.4653890000000 1.0
C      1  0.5128620000000  0.4508720000000  0.5438140000000 1.0
C      1  0.4738310000000  0.4285570000000  0.5249440000000 1.0
C      1  0.4886170000000  0.4870680000000  0.5655250000000 1.0
C      1  0.4869910000000  0.5594400000000  0.5559360000000 1.0
C      1  0.4828420000000  0.5665490000000  0.4841560000000 1.0
C      1  0.4750960000000  0.5172800000000  0.4189720000000 1.0
C      1  0.4828140000000  0.4458420000000  0.4468840000000 1.0
C      1  0.5542370000000  0.4599890000000  0.4808280000000 1.0
C      1  0.5580550000000  0.4585360000000  0.5275480000000 1.0
C      1  0.5523490000000  0.5135450000000  0.5502510000000 1.0
C      1  0.5507960000000  0.5404220000000  0.5348450000000 1.0
C      1  0.5528570000000  0.5307350000000  0.4710050000000 1.0
C      1  0.5574150000000  0.5041940000000  0.4255590000000 1.0
C      1  0.4695710000000  0.4679070000000  0.4242420000000 1.0
C      1  0.4737720000000  0.4238610000000  0.4922060000000 1.0
C      1  0.4712860000000  0.4657920000000  0.5586860000000 1.0
C      1  0.4710030000000  0.5357980000000  0.5606270000000 1.0
C      1  0.4710980000000  0.5766160000000  0.5075730000000 1.0
C      1  0.4690820000000  0.5311160000000  0.4434770000000 1.0
END
