TITL C-26727-7196-120 0.00090112299547093 125000 -340.673875893914 0 0 60 (C1) n - 1
REM
REM in /home/nfs/bkarasulu/CARBON/AIRSS/Generating-Clusters/AIREBO/Higher-Symm/Only-C60
REM
REM
REM
REM
REM
REM ./C.cell (28575a23ae977d3b5fae324c64b13b57)
REM
REM compiler GCC version 9.2.1 20190827 (Red Hat 9.2.1-1)
REM options -cpp -mtune=generic -march=x86-64 -g -O0 -fpre-include=/usr/include/finclude/math-vector-fortran.h
REM seed -26077697 743932496 1427674921 1488951208 -426873419 690557878 845807808 1430022427 1785376842 -1658327659 705398618 821481006 -413893214 1932445334 -880979410 -1221616207 -1994203381 1555583655 1151913546 1149592703 1491680779 -990503048 126278993 1984135560 1042149861 -1445511087 591956574 -116735853 1054579928 1707095182 2051024336 1710190971 -145072888
REM
CELL 1.54180   50.00000   50.00000   50.00000   90.00000   90.00000   90.00000
LATT -1
SFAC C  
C      1  0.4740450000000  0.5294520000000  0.4965980000000 1.0
C      1  0.5122910000000  0.5218110000000  0.5282220000000 1.0
C      1  0.5193810000000  0.5275460000000  0.4798050000000 1.0
C      1  0.4710410000000  0.4733810000000  0.4942090000000 1.0
C      1  0.5080020000000  0.4720260000000  0.5241050000000 1.0
C      1  0.5177980000000  0.4701990000000  0.4756370000000 1.0
C      1  0.4658180000000  0.4463960000000  0.5481640000000 1.0
C      1  0.5546730000000  0.4550330000000  0.5070010000000 1.0
C      1  0.4765850000000  0.4465140000000  0.4533660000000 1.0
C      1  0.4719960000000  0.5400880000000  0.5518130000000 1.0
C      1  0.5545870000000  0.5480990000000  0.5085730000000 1.0
C      1  0.4773600000000  0.5565150000000  0.4502660000000 1.0
C      1  0.4289020000000  0.4496590000000  0.5095050000000 1.0
C      1  0.5370130000000  0.4566160000000  0.5533180000000 1.0
C      1  0.5235410000000  0.4501370000000  0.4392590000000 1.0
C      1  0.4360740000000  0.5421280000000  0.5124150000000 1.0
C      1  0.5372710000000  0.5548130000000  0.5542140000000 1.0
C      1  0.5251870000000  0.5526710000000  0.4368410000000 1.0
C      1  0.5636240000000  0.5125150000000  0.4540180000000 1.0
C      1  0.4443480000000  0.5128860000000  0.4569950000000 1.0
C      1  0.4959160000000  0.5194900000000  0.5645930000000 1.0
C      1  0.5627190000000  0.4889870000000  0.4680100000000 1.0
C      1  0.4458810000000  0.4850890000000  0.4567920000000 1.0
C      1  0.4938590000000  0.4916750000000  0.5649620000000 1.0
C      1  0.4911120000000  0.4850210000000  0.4720450000000 1.0
C      1  0.4794350000000  0.4840500000000  0.5220970000000 1.0
C      1  0.5263270000000  0.4828500000000  0.5030550000000 1.0
C      1  0.4921010000000  0.5153310000000  0.4733240000000 1.0
C      1  0.4817290000000  0.5154820000000  0.5218250000000 1.0
C      1  0.5298010000000  0.5142690000000  0.5053260000000 1.0
C      1  0.5155120000000  0.5614240000000  0.4814020000000 1.0
C      1  0.4787060000000  0.5627650000000  0.5018340000000 1.0
C      1  0.5091170000000  0.5718920000000  0.5121880000000 1.0
C      1  0.5155820000000  0.4359490000000  0.4840890000000 1.0
C      1  0.4746080000000  0.4411760000000  0.5043090000000 1.0
C      1  0.5062140000000  0.4388980000000  0.5166580000000 1.0
C      1  0.5592580000000  0.4879650000000  0.4998560000000 1.0
C      1  0.4721180000000  0.4748510000000  0.4492570000000 1.0
C      1  0.4668810000000  0.4767880000000  0.5530150000000 1.0
C      1  0.5620470000000  0.5191550000000  0.5117000000000 1.0
C      1  0.4712290000000  0.5275410000000  0.4533790000000 1.0
C      1  0.4615320000000  0.5084850000000  0.5476470000000 1.0
C      1  0.5379990000000  0.5624200000000  0.5269120000000 1.0
C      1  0.5044930000000  0.5641690000000  0.4520700000000 1.0
C      1  0.4587720000000  0.5528040000000  0.5252510000000 1.0
C      1  0.5379400000000  0.4445620000000  0.5275410000000 1.0
C      1  0.5035970000000  0.4390950000000  0.4548870000000 1.0
C      1  0.4505060000000  0.4406450000000  0.5246590000000 1.0
C      1  0.4613810000000  0.5602640000000  0.4746610000000 1.0
C      1  0.4976900000000  0.5499440000000  0.5339830000000 1.0
C      1  0.5480610000000  0.5551280000000  0.4821910000000 1.0
C      1  0.4601140000000  0.4399570000000  0.4753420000000 1.0
C      1  0.4906040000000  0.4331290000000  0.5463160000000 1.0
C      1  0.5467050000000  0.4434600000000  0.4818410000000 1.0
C      1  0.5156340000000  0.4761980000000  0.5548680000000 1.0
C      1  0.5461490000000  0.4653840000000  0.4574920000000 1.0
C      1  0.4395790000000  0.4665980000000  0.4832440000000 1.0
C      1  0.5227030000000  0.5310420000000  0.5585060000000 1.0
C      1  0.5430710000000  0.5349180000000  0.4565910000000 1.0
C      1  0.4437810000000  0.5326630000000  0.4819610000000 1.0
END
