TITL C-26735-8354-77 0.000416889664898774 125000 -323.888318999925 0 0 60 (C1) n - 1
REM
REM in /home/nfs/bkarasulu/CARBON/AIRSS/Generating-Clusters/AIREBO/Higher-Symm/Only-C60
REM
REM
REM
REM
REM
REM ./C.cell (28575a23ae977d3b5fae324c64b13b57)
REM
REM compiler GCC version 9.2.1 20190827 (Red Hat 9.2.1-1)
REM options -cpp -mtune=generic -march=x86-64 -g -O0 -fpre-include=/usr/include/finclude/math-vector-fortran.h
REM seed 1125886136 1232927658 -1957324117 842401528 -2141552453 -1237346287 -49569805 1026994219 245330379 1061147127 -823499860 1160931682 -1539661264 190760511 2005412701 -99847883 -251608155 -457737917 1159020393 -216300974 -1272352690 -808950931 1446202750 2030217922 1399223267 -837189216 -711433034 -1033795140 -1565060510 170616743 -1837821758 -1423469503 1251172247
REM
CELL 1.54180   50.00000   50.00000   50.00000   90.00000   90.00000   90.00000
LATT -1
SFAC C  
C      1  0.4798380000000  0.4492220000000  0.5716480000000 1.0
C      1  0.5332970000000  0.4647380000000  0.5577260000000 1.0
C      1  0.5541430000000  0.5088510000000  0.5595450000000 1.0
C      1  0.5142120000000  0.5440800000000  0.5675590000000 1.0
C      1  0.4604740000000  0.5372990000000  0.5621750000000 1.0
C      1  0.4406610000000  0.4868130000000  0.5637190000000 1.0
C      1  0.4874270000000  0.5463060000000  0.5557150000000 1.0
C      1  0.5387250000000  0.5319850000000  0.5566670000000 1.0
C      1  0.5465750000000  0.4847830000000  0.5718860000000 1.0
C      1  0.5079160000000  0.4513270000000  0.5636540000000 1.0
C      1  0.4564360000000  0.4620320000000  0.5589870000000 1.0
C      1  0.4463410000000  0.5137480000000  0.5527000000000 1.0
C      1  0.4368330000000  0.4820000000000  0.5305540000000 1.0
C      1  0.4802490000000  0.4372380000000  0.5386940000000 1.0
C      1  0.5415780000000  0.4605930000000  0.5263860000000 1.0
C      1  0.5705140000000  0.5052520000000  0.5365560000000 1.0
C      1  0.5196510000000  0.5614090000000  0.5375120000000 1.0
C      1  0.4606200000000  0.5404020000000  0.5266220000000 1.0
C      1  0.4436990000000  0.5132150000000  0.5193660000000 1.0
C      1  0.4884700000000  0.5572310000000  0.5252760000000 1.0
C      1  0.5471220000000  0.5448530000000  0.5289630000000 1.0
C      1  0.5639950000000  0.4820410000000  0.5181070000000 1.0
C      1  0.5125100000000  0.4437710000000  0.5310160000000 1.0
C      1  0.4521650000000  0.4521630000000  0.5273070000000 1.0
C      1  0.4846180000000  0.4300640000000  0.4740630000000 1.0
C      1  0.5370560000000  0.4498630000000  0.4662170000000 1.0
C      1  0.5498990000000  0.5277190000000  0.4500790000000 1.0
C      1  0.5263340000000  0.5699990000000  0.4715750000000 1.0
C      1  0.4642550000000  0.5564000000000  0.4653950000000 1.0
C      1  0.4398320000000  0.4767510000000  0.4661040000000 1.0
C      1  0.4903980000000  0.5724520000000  0.4639760000000 1.0
C      1  0.5545700000000  0.5529900000000  0.4654510000000 1.0
C      1  0.5582340000000  0.5035840000000  0.4600390000000 1.0
C      1  0.5156720000000  0.4265610000000  0.4686380000000 1.0
C      1  0.4568430000000  0.4444280000000  0.4624240000000 1.0
C      1  0.4386510000000  0.5060460000000  0.4566830000000 1.0
C      1  0.4454300000000  0.5514520000000  0.4470360000000 1.0
C      1  0.4216740000000  0.4579280000000  0.4493460000000 1.0
C      1  0.4668060000000  0.4058190000000  0.4630670000000 1.0
C      1  0.5520260000000  0.4582660000000  0.4457630000000 1.0
C      1  0.5382730000000  0.5297280000000  0.4252470000000 1.0
C      1  0.5219260000000  0.5952130000000  0.4550680000000 1.0
C      1  0.4348030000000  0.4347940000000  0.4418010000000 1.0
C      1  0.4363740000000  0.5265930000000  0.4402550000000 1.0
C      1  0.4953600000000  0.5998850000000  0.4487700000000 1.0
C      1  0.5768750000000  0.5681320000000  0.4581340000000 1.0
C      1  0.5648900000000  0.4822970000000  0.4430560000000 1.0
C      1  0.5257640000000  0.3990610000000  0.4620980000000 1.0
C      1  0.4820850000000  0.4361560000000  0.5064990000000 1.0
C      1  0.5364690000000  0.4680880000000  0.4935950000000 1.0
C      1  0.5579600000000  0.5200770000000  0.5088730000000 1.0
C      1  0.5219200000000  0.5643420000000  0.5048210000000 1.0
C      1  0.4653730000000  0.5377740000000  0.4930210000000 1.0
C      1  0.4431890000000  0.4788830000000  0.4990520000000 1.0
C      1  0.4923270000000  0.5594470000000  0.4931890000000 1.0
C      1  0.5496530000000  0.5492680000000  0.4960420000000 1.0
C      1  0.5541800000000  0.4954460000000  0.4882480000000 1.0
C      1  0.5138120000000  0.4435420000000  0.4976470000000 1.0
C      1  0.4552100000000  0.4496440000000  0.4935020000000 1.0
C      1  0.4478090000000  0.5099600000000  0.4868870000000 1.0
END
