TITL C-26727-7196-161 -0.000196375621515882 125000 -318.144382741013 0 0 60 (C1) n - 1
REM
REM in /home/nfs/bkarasulu/CARBON/AIRSS/Generating-Clusters/AIREBO/Higher-Symm/Only-C60
REM
REM
REM
REM
REM
REM ./C.cell (28575a23ae977d3b5fae324c64b13b57)
REM
REM compiler GCC version 9.2.1 20190827 (Red Hat 9.2.1-1)
REM options -cpp -mtune=generic -march=x86-64 -g -O0 -fpre-include=/usr/include/finclude/math-vector-fortran.h
REM seed -377900094 -1470237916 -1815895915 1262604365 874029431 2017222136 1425899700 -2087574444 2099138057 -996128766 468837158 -1287780931 1795619534 93365085 1310235485 -1222619851 -791177216 552934083 73786873 -843236937 -1426193159 740927543 -1566177848 -1766001754 51631989 993459978 -2030666120 -741720430 -1666804377 741231340 506129538 -1769472667 1074402649
REM
CELL 1.54180   50.00000   50.00000   50.00000   90.00000   90.00000   90.00000
LATT -1
SFAC C  
C      1  0.5896940000000  0.5353990000000  0.5168050000000 1.0
C      1  0.4211330000000  0.5297090000000  0.5324840000000 1.0
C      1  0.5314350000000  0.4575880000000  0.4534560000000 1.0
C      1  0.4812230000000  0.4399570000000  0.4603840000000 1.0
C      1  0.4909450000000  0.4163360000000  0.4735650000000 1.0
C      1  0.5381330000000  0.4288040000000  0.4634030000000 1.0
C      1  0.4224920000000  0.5198910000000  0.4687600000000 1.0
C      1  0.5674510000000  0.5304750000000  0.4382270000000 1.0
C      1  0.5362460000000  0.4737950000000  0.5129290000000 1.0
C      1  0.5046380000000  0.4730180000000  0.5225020000000 1.0
C      1  0.4826150000000  0.4780060000000  0.4726230000000 1.0
C      1  0.5377090000000  0.4902020000000  0.4457640000000 1.0
C      1  0.4612970000000  0.4814380000000  0.4954120000000 1.0
C      1  0.5461760000000  0.4891730000000  0.4775890000000 1.0
C      1  0.4605370000000  0.5142800000000  0.5006260000000 1.0
C      1  0.5496310000000  0.5211210000000  0.4855000000000 1.0
C      1  0.5704130000000  0.4725310000000  0.4844930000000 1.0
C      1  0.4376700000000  0.4644650000000  0.5008790000000 1.0
C      1  0.4788380000000  0.3918520000000  0.4734180000000 1.0
C      1  0.5557290000000  0.4130570000000  0.4524190000000 1.0
C      1  0.5204790000000  0.4995500000000  0.4972940000000 1.0
C      1  0.4881070000000  0.4958360000000  0.5086620000000 1.0
C      1  0.4632810000000  0.5604160000000  0.5213590000000 1.0
C      1  0.5490240000000  0.5683700000000  0.5025680000000 1.0
C      1  0.3791780000000  0.4800960000000  0.6148110000000 1.0
C      1  0.4082350000000  0.5051170000000  0.5785350000000 1.0
C      1  0.5382160000000  0.5914570000000  0.5013460000000 1.0
C      1  0.4750170000000  0.5840360000000  0.5204270000000 1.0
C      1  0.5460050000000  0.5265140000000  0.5542320000000 1.0
C      1  0.4532560000000  0.5192160000000  0.5531240000000 1.0
C      1  0.4239540000000  0.5162400000000  0.5595050000000 1.0
C      1  0.5657880000000  0.5303250000000  0.5363860000000 1.0
C      1  0.3991520000000  0.5383680000000  0.5191770000000 1.0
C      1  0.6158720000000  0.5358820000000  0.5122370000000 1.0
C      1  0.4705820000000  0.4806710000000  0.4233440000000 1.0
C      1  0.5169100000000  0.4890770000000  0.4188870000000 1.0
C      1  0.5191700000000  0.5353400000000  0.4504230000000 1.0
C      1  0.4649060000000  0.5346610000000  0.4525510000000 1.0
C      1  0.5592330000000  0.5399880000000  0.5050940000000 1.0
C      1  0.4525040000000  0.5320640000000  0.5229760000000 1.0
C      1  0.4704540000000  0.4642090000000  0.4457550000000 1.0
C      1  0.5258640000000  0.4611260000000  0.4214480000000 1.0
C      1  0.4764610000000  0.5168300000000  0.5670910000000 1.0
C      1  0.5234850000000  0.5206580000000  0.5671500000000 1.0
C      1  0.4495100000000  0.5235570000000  0.4730190000000 1.0
C      1  0.5457300000000  0.5205300000000  0.4528650000000 1.0
C      1  0.4576190000000  0.5572790000000  0.4388660000000 1.0
C      1  0.5070340000000  0.4562270000000  0.4725250000000 1.0
C      1  0.3929210000000  0.4919230000000  0.5958830000000 1.0
C      1  0.5001260000000  0.5043710000000  0.4716440000000 1.0
C      1  0.5020800000000  0.4908480000000  0.6294720000000 1.0
C      1  0.5278300000000  0.3998600000000  0.5029490000000 1.0
C      1  0.5005140000000  0.5120000000000  0.5800310000000 1.0
C      1  0.4915300000000  0.4997680000000  0.4223050000000 1.0
C      1  0.5187640000000  0.4207100000000  0.4864560000000 1.0
C      1  0.5043300000000  0.5378690000000  0.4774310000000 1.0
C      1  0.5158800000000  0.4490080000000  0.5019680000000 1.0
C      1  0.4900510000000  0.5201930000000  0.4447070000000 1.0
C      1  0.5014190000000  0.4999250000000  0.6048930000000 1.0
C      1  0.4856510000000  0.6077680000000  0.5171740000000 1.0
END
