TITL C-26738-6379-39 -0.00027106658099769 125000 -343.512576603412 0 0 60 (C1) n - 1
REM
REM in /home/nfs/bkarasulu/CARBON/AIRSS/Generating-Clusters/AIREBO/Higher-Symm/Only-C60
REM
REM
REM
REM
REM
REM ./C.cell (28575a23ae977d3b5fae324c64b13b57)
REM
REM compiler GCC version 9.2.1 20190827 (Red Hat 9.2.1-1)
REM options -cpp -mtune=generic -march=x86-64 -g -O0 -fpre-include=/usr/include/finclude/math-vector-fortran.h
REM seed -1022444681 1395166937 -2135270820 737898476 1848196696 2026693843 -1138253660 -1440338409 -1164679758 2145360544 1642830020 -1348637443 -1691118734 676466102 -584419413 -1432848238 1627725032 -1590453494 -88954111 -849177285 668248234 -1352360083 -1773372295 -463007359 -450151972 -1861895919 1585565500 1585008924 -1098257182 1126478634 -389270237 879076899 523336380
REM
CELL 1.54180   50.00000   50.00000   50.00000   90.00000   90.00000   90.00000
LATT -1
SFAC C  
C      1  0.5576360000000  0.4738150000000  0.5438850000000 1.0
C      1  0.4427700000000  0.4745410000000  0.5508260000000 1.0
C      1  0.4441240000000  0.4700800000000  0.4708290000000 1.0
C      1  0.5391830000000  0.4581220000000  0.4556840000000 1.0
C      1  0.5191330000000  0.5605340000000  0.4779580000000 1.0
C      1  0.4883680000000  0.5554450000000  0.4725450000000 1.0
C      1  0.4526280000000  0.4786570000000  0.5187820000000 1.0
C      1  0.5568440000000  0.4687320000000  0.5072370000000 1.0
C      1  0.5152660000000  0.4352340000000  0.4959130000000 1.0
C      1  0.4853410000000  0.4369090000000  0.4966650000000 1.0
C      1  0.5361990000000  0.5063420000000  0.4381390000000 1.0
C      1  0.4713140000000  0.5013530000000  0.4305600000000 1.0
C      1  0.4710300000000  0.5413800000000  0.5630460000000 1.0
C      1  0.5247920000000  0.5435360000000  0.5628050000000 1.0
C      1  0.5413960000000  0.5412800000000  0.4951940000000 1.0
C      1  0.4563050000000  0.5339430000000  0.4832540000000 1.0
C      1  0.5212140000000  0.4821040000000  0.4519700000000 1.0
C      1  0.4885870000000  0.4809680000000  0.4484570000000 1.0
C      1  0.5216190000000  0.5646470000000  0.5208020000000 1.0
C      1  0.4732330000000  0.5609260000000  0.5205130000000 1.0
C      1  0.5168910000000  0.4908010000000  0.5036220000000 1.0
C      1  0.4865200000000  0.4901690000000  0.5012830000000 1.0
C      1  0.5412040000000  0.5750600000000  0.4990870000000 1.0
C      1  0.4659880000000  0.5635450000000  0.4907250000000 1.0
C      1  0.5165340000000  0.5274370000000  0.4309660000000 1.0
C      1  0.4879830000000  0.5246290000000  0.4227880000000 1.0
C      1  0.4301240000000  0.5013500000000  0.5058390000000 1.0
C      1  0.5712210000000  0.4984120000000  0.5046430000000 1.0
C      1  0.4705170000000  0.5068880000000  0.5261990000000 1.0
C      1  0.5231430000000  0.5133470000000  0.5250940000000 1.0
C      1  0.4743440000000  0.5143340000000  0.5556330000000 1.0
C      1  0.5244510000000  0.5168880000000  0.5527240000000 1.0
C      1  0.4359660000000  0.4601860000000  0.4956050000000 1.0
C      1  0.5562310000000  0.4591240000000  0.4771760000000 1.0
C      1  0.5570990000000  0.5162990000000  0.4852490000000 1.0
C      1  0.4431090000000  0.5038790000000  0.4744050000000 1.0
C      1  0.4861490000000  0.5275250000000  0.4567500000000 1.0
C      1  0.5184600000000  0.5307620000000  0.4642310000000 1.0
C      1  0.5262180000000  0.4591870000000  0.5115690000000 1.0
C      1  0.4779250000000  0.4596330000000  0.5135300000000 1.0
C      1  0.5165050000000  0.4933490000000  0.5668210000000 1.0
C      1  0.4869410000000  0.4925940000000  0.5692390000000 1.0
C      1  0.4769190000000  0.5003070000000  0.4736150000000 1.0
C      1  0.5278860000000  0.5028990000000  0.4770440000000 1.0
C      1  0.5280120000000  0.4335220000000  0.4482180000000 1.0
C      1  0.4670690000000  0.4597900000000  0.4585030000000 1.0
C      1  0.4824580000000  0.5621610000000  0.5470290000000 1.0
C      1  0.5113680000000  0.5638420000000  0.5476720000000 1.0
C      1  0.5772490000000  0.4918810000000  0.5323760000000 1.0
C      1  0.4194450000000  0.4934020000000  0.5348140000000 1.0
C      1  0.4775550000000  0.4356050000000  0.4675530000000 1.0
C      1  0.5082480000000  0.4254290000000  0.4663320000000 1.0
C      1  0.4458770000000  0.5061270000000  0.4405890000000 1.0
C      1  0.5585290000000  0.5136750000000  0.4524900000000 1.0
C      1  0.4883660000000  0.4551830000000  0.5413330000000 1.0
C      1  0.5160210000000  0.4549240000000  0.5401920000000 1.0
C      1  0.4795910000000  0.5304590000000  0.5079120000000 1.0
C      1  0.5105380000000  0.5369410000000  0.5090260000000 1.0
C      1  0.5318450000000  0.4708810000000  0.5566650000000 1.0
C      1  0.4725190000000  0.4690250000000  0.5603990000000 1.0
END
