TITL C-26729-7230-64 0.000957052984838626 125000 -324.490896124208 0 0 60 (C1) n - 1
REM
REM in /home/nfs/bkarasulu/CARBON/AIRSS/Generating-Clusters/AIREBO/Higher-Symm/Only-C60
REM
REM
REM
REM
REM
REM ./C.cell (28575a23ae977d3b5fae324c64b13b57)
REM
REM compiler GCC version 9.2.1 20190827 (Red Hat 9.2.1-1)
REM options -cpp -mtune=generic -march=x86-64 -g -O0 -fpre-include=/usr/include/finclude/math-vector-fortran.h
REM seed 1567509243 64562162 365935825 -306333826 -1562082064 1337920640 -398089977 656007930 1600656288 2061482376 848253599 -1457705508 1541622944 706457672 -1941616862 -1986429091 -661570027 -77428968 -276200495 125052689 554176616 704821985 942300590 38448876 2029409151 121772899 1668351350 805980169 621758179 -1734892899 -592636465 1143868381 -904960521
REM
CELL 1.54180   50.00000   50.00000   50.00000   90.00000   90.00000   90.00000
LATT -1
SFAC C  
C      1  0.5113450000000  0.4783770000000  0.5314160000000 1.0
C      1  0.4773810000000  0.4981550000000  0.5240900000000 1.0
C      1  0.5115580000000  0.5181580000000  0.5290340000000 1.0
C      1  0.5275360000000  0.5050460000000  0.5054590000000 1.0
C      1  0.4915140000000  0.4736970000000  0.5045570000000 1.0
C      1  0.4753090000000  0.5232820000000  0.5022730000000 1.0
C      1  0.5333600000000  0.4990060000000  0.5467600000000 1.0
C      1  0.4818350000000  0.4741490000000  0.5477700000000 1.0
C      1  0.4830360000000  0.5240290000000  0.5454330000000 1.0
C      1  0.5707140000000  0.4829880000000  0.4832090000000 1.0
C      1  0.4519730000000  0.4500710000000  0.4851170000000 1.0
C      1  0.4807680000000  0.5671060000000  0.4858060000000 1.0
C      1  0.4301290000000  0.5224620000000  0.5316600000000 1.0
C      1  0.5530140000000  0.5472990000000  0.5300520000000 1.0
C      1  0.5156740000000  0.4302220000000  0.5327570000000 1.0
C      1  0.5007950000000  0.5551020000000  0.4670300000000 1.0
C      1  0.5493390000000  0.4703920000000  0.4659690000000 1.0
C      1  0.4544330000000  0.4751500000000  0.4685760000000 1.0
C      1  0.5617390000000  0.5080620000000  0.4684880000000 1.0
C      1  0.4783770000000  0.4435440000000  0.4720040000000 1.0
C      1  0.4611950000000  0.5518330000000  0.4684390000000 1.0
C      1  0.5263360000000  0.4295220000000  0.5004650000000 1.0
C      1  0.4283570000000  0.5143290000000  0.4981930000000 1.0
C      1  0.5455480000000  0.5548940000000  0.4974460000000 1.0
C      1  0.4824840000000  0.5181580000000  0.4719630000000 1.0
C      1  0.5145360000000  0.5072380000000  0.4753760000000 1.0
C      1  0.5028970000000  0.4753160000000  0.4768420000000 1.0
C      1  0.5959680000000  0.4684980000000  0.5242090000000 1.0
C      1  0.4244220000000  0.4332220000000  0.5239050000000 1.0
C      1  0.4811990000000  0.5976640000000  0.5261080000000 1.0
C      1  0.5028470000000  0.4308840000000  0.4768380000000 1.0
C      1  0.4401860000000  0.5344020000000  0.4742710000000 1.0
C      1  0.5578490000000  0.5356580000000  0.4733740000000 1.0
C      1  0.4818730000000  0.4696850000000  0.4519290000000 1.0
C      1  0.4817450000000  0.5391560000000  0.4452220000000 1.0
C      1  0.5360870000000  0.4967150000000  0.4512600000000 1.0
C      1  0.4757200000000  0.4497230000000  0.5170020000000 1.0
C      1  0.4666860000000  0.5461060000000  0.5166040000000 1.0
C      1  0.5546700000000  0.5032290000000  0.5134610000000 1.0
C      1  0.5442370000000  0.4698250000000  0.5326220000000 1.0
C      1  0.4513090000000  0.4776800000000  0.5317210000000 1.0
C      1  0.5028110000000  0.5495770000000  0.5331880000000 1.0
C      1  0.5293570000000  0.5650430000000  0.5324570000000 1.0
C      1  0.5436530000000  0.4397030000000  0.5348620000000 1.0
C      1  0.4257660000000  0.4933270000000  0.5319710000000 1.0
C      1  0.5336460000000  0.5841850000000  0.5099820000000 1.0
C      1  0.5573020000000  0.4235130000000  0.5138160000000 1.0
C      1  0.4073870000000  0.4897010000000  0.5087040000000 1.0
C      1  0.5274790000000  0.4540200000000  0.4770080000000 1.0
C      1  0.4523230000000  0.5031320000000  0.4767540000000 1.0
C      1  0.5244070000000  0.5397840000000  0.4754530000000 1.0
C      1  0.5715610000000  0.4765900000000  0.5141820000000 1.0
C      1  0.4443200000000  0.4501710000000  0.5153960000000 1.0
C      1  0.4842620000000  0.5720640000000  0.5165920000000 1.0
C      1  0.4818730000000  0.5370860000000  0.4183740000000 1.0
C      1  0.5312190000000  0.4992950000000  0.4244240000000 1.0
C      1  0.4849620000000  0.4723480000000  0.4250320000000 1.0
C      1  0.5571580000000  0.5213640000000  0.5367980000000 1.0
C      1  0.4926930000000  0.4423410000000  0.5402760000000 1.0
C      1  0.4518420000000  0.5367250000000  0.5400230000000 1.0
END
