TITL C-26740-8352-113 0.000146875353483685 125000 -314.991695896397 0 0 60 (C1) n - 1
REM
REM in /home/nfs/bkarasulu/CARBON/AIRSS/Generating-Clusters/AIREBO/Higher-Symm/Only-C60
REM
REM
REM
REM
REM
REM ./C.cell (28575a23ae977d3b5fae324c64b13b57)
REM
REM compiler GCC version 9.2.1 20190827 (Red Hat 9.2.1-1)
REM options -cpp -mtune=generic -march=x86-64 -g -O0 -fpre-include=/usr/include/finclude/math-vector-fortran.h
REM seed -1562223804 789758579 -1237349282 892730992 1458829159 1817593183 2045871137 -1678345290 37409564 -1781199834 -1198406868 -110392402 1747818820 -1878914627 2014661656 -1274065906 -1431788481 1392802941 -1957620667 871587987 -1394874352 1925935411 -612019437 261249063 -1339557721 -1680731650 1244405126 1501704017 -2137449403 2083673806 -1706570583 -389744277 -1968673174
REM
CELL 1.54180   50.00000   50.00000   50.00000   90.00000   90.00000   90.00000
LATT -1
SFAC C  
C      1  0.5433690000000  0.5101780000000  0.5111390000000 1.0
C      1  0.4698700000000  0.5330880000000  0.5120360000000 1.0
C      1  0.4852340000000  0.4490170000000  0.5137840000000 1.0
C      1  0.4733270000000  0.4454910000000  0.4662520000000 1.0
C      1  0.5626570000000  0.5020150000000  0.4678350000000 1.0
C      1  0.4647510000000  0.5547930000000  0.4701120000000 1.0
C      1  0.5463250000000  0.5257630000000  0.4849590000000 1.0
C      1  0.4553540000000  0.5262920000000  0.4859980000000 1.0
C      1  0.4992410000000  0.4473110000000  0.4864190000000 1.0
C      1  0.4507210000000  0.5266230000000  0.5353240000000 1.0
C      1  0.5012290000000  0.4394090000000  0.5377740000000 1.0
C      1  0.5468530000000  0.5289820000000  0.5358360000000 1.0
C      1  0.4901270000000  0.5630920000000  0.4759730000000 1.0
C      1  0.4518320000000  0.4601870000000  0.4749200000000 1.0
C      1  0.5583640000000  0.4766080000000  0.4774720000000 1.0
C      1  0.5276820000000  0.4476540000000  0.5338170000000 1.0
C      1  0.5324630000000  0.5535810000000  0.5312550000000 1.0
C      1  0.4421330000000  0.5003800000000  0.5323980000000 1.0
C      1  0.5154680000000  0.5113410000000  0.5587930000000 1.0
C      1  0.4820460000000  0.5072110000000  0.5582080000000 1.0
C      1  0.5016700000000  0.4800750000000  0.5587630000000 1.0
C      1  0.4551730000000  0.4498090000000  0.5222900000000 1.0
C      1  0.5614310000000  0.4876070000000  0.5230150000000 1.0
C      1  0.4816260000000  0.5607230000000  0.5223530000000 1.0
C      1  0.5413350000000  0.5202880000000  0.4517720000000 1.0
C      1  0.4557490000000  0.5297170000000  0.4521660000000 1.0
C      1  0.5002910000000  0.4590790000000  0.4545940000000 1.0
C      1  0.4644560000000  0.5054640000000  0.4305090000000 1.0
C      1  0.5213310000000  0.4694350000000  0.4306090000000 1.0
C      1  0.5176770000000  0.5310770000000  0.4298590000000 1.0
C      1  0.5277150000000  0.5587190000000  0.4568930000000 1.0
C      1  0.4313400000000  0.4947890000000  0.4649980000000 1.0
C      1  0.5383340000000  0.4440400000000  0.4650410000000 1.0
C      1  0.4339830000000  0.4909390000000  0.5076520000000 1.0
C      1  0.5412100000000  0.4461050000000  0.5096200000000 1.0
C      1  0.5271070000000  0.5640990000000  0.5061120000000 1.0
C      1  0.4785960000000  0.5060730000000  0.4605590000000 1.0
C      1  0.5194500000000  0.4860710000000  0.4590120000000 1.0
C      1  0.5086340000000  0.5172540000000  0.4605990000000 1.0
C      1  0.4881170000000  0.4527070000000  0.5609240000000 1.0
C      1  0.5464120000000  0.5138670000000  0.5619760000000 1.0
C      1  0.4650960000000  0.5330540000000  0.5603120000000 1.0
C      1  0.4985000000000  0.5717980000000  0.5029030000000 1.0
C      1  0.4396470000000  0.4620600000000  0.5023530000000 1.0
C      1  0.5623720000000  0.4663670000000  0.5048950000000 1.0
C      1  0.4589920000000  0.4921940000000  0.4846340000000 1.0
C      1  0.5268480000000  0.4676750000000  0.4866370000000 1.0
C      1  0.5156930000000  0.5413510000000  0.4835490000000 1.0
C      1  0.5075030000000  0.5353320000000  0.5391820000000 1.0
C      1  0.4674470000000  0.4841660000000  0.5386870000000 1.0
C      1  0.5257170000000  0.4780850000000  0.5383060000000 1.0
C      1  0.4824160000000  0.4824440000000  0.5081770000000 1.0
C      1  0.5153530000000  0.4910600000000  0.5085490000000 1.0
C      1  0.5019920000000  0.5223490000000  0.5082280000000 1.0
C      1  0.5476500000000  0.4262290000000  0.4492330000000 1.0
C      1  0.5346540000000  0.5768500000000  0.4401980000000 1.0
C      1  0.4117610000000  0.4953920000000  0.4485190000000 1.0
C      1  0.4594460000000  0.4554330000000  0.5523710000000 1.0
C      1  0.5542020000000  0.4872740000000  0.5517970000000 1.0
C      1  0.4840270000000  0.5539340000000  0.5518450000000 1.0
END
