TITL C-26737-6152-46 -0.00315998403097903 125000 -319.202278743138 0 0 60 (C1) n - 1
REM
REM in /home/nfs/bkarasulu/CARBON/AIRSS/Generating-Clusters/AIREBO/Higher-Symm/Only-C60
REM
REM
REM
REM
REM
REM ./C.cell (28575a23ae977d3b5fae324c64b13b57)
REM
REM compiler GCC version 9.2.1 20190827 (Red Hat 9.2.1-1)
REM options -cpp -mtune=generic -march=x86-64 -g -O0 -fpre-include=/usr/include/finclude/math-vector-fortran.h
REM seed 895403861 443314219 -958212811 -1937899107 -742102154 82097905 -319190009 860349703 1535121959 -653930624 2081202091 -2019204487 2067496691 531109580 -1783415665 1142742165 456243609 2029460759 1796093140 -1107057175 210549807 -654127771 -409047210 162463066 1501598866 2052978091 215934149 1670313119 324476145 1304446342 226193424 -937722743 1258445247
REM
CELL 1.54180   50.00000   50.00000   50.00000   90.00000   90.00000   90.00000
LATT -1
SFAC C  
C      1  0.5273160000000  0.5449230000000  0.5388730000000 1.0
C      1  0.5268160000000  0.4884460000000  0.5576470000000 1.0
C      1  0.5236440000000  0.4422030000000  0.5208960000000 1.0
C      1  0.5282190000000  0.4491430000000  0.4747180000000 1.0
C      1  0.5193210000000  0.5043940000000  0.4557730000000 1.0
C      1  0.5281640000000  0.5555810000000  0.4815120000000 1.0
C      1  0.4728250000000  0.5458800000000  0.5373430000000 1.0
C      1  0.4711650000000  0.4905400000000  0.5568440000000 1.0
C      1  0.4701270000000  0.4445540000000  0.5215580000000 1.0
C      1  0.4721800000000  0.4540230000000  0.4645650000000 1.0
C      1  0.4781720000000  0.5093310000000  0.4441550000000 1.0
C      1  0.4734920000000  0.5573920000000  0.4798820000000 1.0
C      1  0.4499080000000  0.4454350000000  0.4876020000000 1.0
C      1  0.4557200000000  0.4859800000000  0.4484600000000 1.0
C      1  0.4534700000000  0.5385930000000  0.4614420000000 1.0
C      1  0.4520440000000  0.5528990000000  0.5130140000000 1.0
C      1  0.4513170000000  0.5160910000000  0.5519670000000 1.0
C      1  0.4503620000000  0.4629060000000  0.5406090000000 1.0
C      1  0.5550790000000  0.4464740000000  0.4772430000000 1.0
C      1  0.5460640000000  0.4883990000000  0.4469350000000 1.0
C      1  0.5481360000000  0.5409050000000  0.4604020000000 1.0
C      1  0.5479480000000  0.5536840000000  0.5141500000000 1.0
C      1  0.5474910000000  0.5127800000000  0.5501100000000 1.0
C      1  0.5457680000000  0.4621830000000  0.5343110000000 1.0
C      1  0.5696160000000  0.5077670000000  0.5258270000000 1.0
C      1  0.5686510000000  0.4793400000000  0.5169960000000 1.0
C      1  0.5728010000000  0.4728900000000  0.4883120000000 1.0
C      1  0.5707270000000  0.4948360000000  0.4682160000000 1.0
C      1  0.5710320000000  0.5233890000000  0.4767860000000 1.0
C      1  0.5701170000000  0.5298590000000  0.5059510000000 1.0
C      1  0.4289010000000  0.5091830000000  0.5282740000000 1.0
C      1  0.4287990000000  0.4801190000000  0.5215230000000 1.0
C      1  0.4294280000000  0.4713370000000  0.4929400000000 1.0
C      1  0.4320970000000  0.4918740000000  0.4713430000000 1.0
C      1  0.4309210000000  0.5207570000000  0.4780790000000 1.0
C      1  0.4297740000000  0.5292980000000  0.5064650000000 1.0
C      1  0.5813450000000  0.5590670000000  0.5156010000000 1.0
C      1  0.5808890000000  0.5139160000000  0.5558460000000 1.0
C      1  0.5789280000000  0.4571920000000  0.5387100000000 1.0
C      1  0.5862780000000  0.4428320000000  0.4796990000000 1.0
C      1  0.5780920000000  0.4886080000000  0.4366630000000 1.0
C      1  0.5808950000000  0.5465510000000  0.4555240000000 1.0
C      1  0.4187990000000  0.5593460000000  0.5130930000000 1.0
C      1  0.4182910000000  0.5178140000000  0.5581110000000 1.0
C      1  0.4168410000000  0.4592540000000  0.5437500000000 1.0
C      1  0.4164200000000  0.4424060000000  0.4843730000000 1.0
C      1  0.4229880000000  0.4829160000000  0.4410650000000 1.0
C      1  0.4202910000000  0.5416520000000  0.4553270000000 1.0
C      1  0.5191860000000  0.4709750000000  0.4562450000000 1.0
C      1  0.5158440000000  0.5335520000000  0.4602340000000 1.0
C      1  0.5142090000000  0.5540920000000  0.5096330000000 1.0
C      1  0.5141640000000  0.5195000000000  0.5520190000000 1.0
C      1  0.5131040000000  0.4639780000000  0.5438270000000 1.0
C      1  0.5124330000000  0.4407610000000  0.4955910000000 1.0
C      1  0.4885180000000  0.4784930000000  0.4540650000000 1.0
C      1  0.4865180000000  0.5365500000000  0.4568330000000 1.0
C      1  0.4855250000000  0.5575650000000  0.5090150000000 1.0
C      1  0.4851150000000  0.5192200000000  0.5488040000000 1.0
C      1  0.4842860000000  0.4661970000000  0.5418180000000 1.0
C      1  0.4834290000000  0.4441770000000  0.4934330000000 1.0
END
