TITL C-26735-8354-108 -8.27397326403732e-05 125000 -331.38300684588 0 0 60 (C1) n - 1
REM
REM in /home/nfs/bkarasulu/CARBON/AIRSS/Generating-Clusters/AIREBO/Higher-Symm/Only-C60
REM
REM
REM
REM
REM
REM ./C.cell (28575a23ae977d3b5fae324c64b13b57)
REM
REM compiler GCC version 9.2.1 20190827 (Red Hat 9.2.1-1)
REM options -cpp -mtune=generic -march=x86-64 -g -O0 -fpre-include=/usr/include/finclude/math-vector-fortran.h
REM seed 1966113862 651218559 1711162653 -88383396 -957547052 -1262454395 -606340598 -1427803274 -1657247693 -1027387987 787518299 -413214272 413706956 -1727513926 1392808703 -511523544 38873596 1643894295 593458197 -2067772365 -790998642 1537664294 150800771 -1744345375 1439230946 -146765769 -353123062 -2016819783 -1625961485 772421253 1429537517 -930718286 -607506766
REM
CELL 1.54180   50.00000   50.00000   50.00000   90.00000   90.00000   90.00000
LATT -1
SFAC C  
C      1  0.5598310000000  0.5557160000000  0.5136350000000 1.0
C      1  0.5457450000000  0.4395310000000  0.4801800000000 1.0
C      1  0.4992590000000  0.4550020000000  0.4861120000000 1.0
C      1  0.5033440000000  0.5535970000000  0.5159110000000 1.0
C      1  0.4454230000000  0.5339020000000  0.5541470000000 1.0
C      1  0.4445900000000  0.4821480000000  0.4506060000000 1.0
C      1  0.5280360000000  0.5143690000000  0.5027510000000 1.0
C      1  0.5243080000000  0.4866820000000  0.4850840000000 1.0
C      1  0.4698910000000  0.4449640000000  0.4733330000000 1.0
C      1  0.4846920000000  0.5634140000000  0.5411960000000 1.0
C      1  0.4159340000000  0.4811150000000  0.5067240000000 1.0
C      1  0.4191820000000  0.5346010000000  0.4941860000000 1.0
C      1  0.4885100000000  0.4753970000000  0.5675850000000 1.0
C      1  0.5005030000000  0.5118120000000  0.4336490000000 1.0
C      1  0.5272820000000  0.5177150000000  0.4401330000000 1.0
C      1  0.5048170000000  0.4928320000000  0.5356740000000 1.0
C      1  0.5641430000000  0.4869080000000  0.4997240000000 1.0
C      1  0.5565610000000  0.5088060000000  0.5187250000000 1.0
C      1  0.4825790000000  0.5203600000000  0.4799740000000 1.0
C      1  0.4691170000000  0.4738830000000  0.5105140000000 1.0
C      1  0.5432770000000  0.4629150000000  0.5004020000000 1.0
C      1  0.5501860000000  0.5369610000000  0.4912040000000 1.0
C      1  0.4276790000000  0.5121030000000  0.5125800000000 1.0
C      1  0.4466670000000  0.4892260000000  0.4978780000000 1.0
C      1  0.5296200000000  0.4938570000000  0.5560080000000 1.0
C      1  0.5402270000000  0.4964000000000  0.4566450000000 1.0
C      1  0.4776820000000  0.4322640000000  0.5292530000000 1.0
C      1  0.4594690000000  0.5401610000000  0.4648030000000 1.0
C      1  0.4756300000000  0.5069810000000  0.5254700000000 1.0
C      1  0.4942510000000  0.4911440000000  0.4697850000000 1.0
C      1  0.4894720000000  0.4514780000000  0.5527910000000 1.0
C      1  0.4833490000000  0.5322260000000  0.4418870000000 1.0
C      1  0.4817060000000  0.4535090000000  0.4393090000000 1.0
C      1  0.4948880000000  0.5350700000000  0.5622800000000 1.0
C      1  0.5334140000000  0.5527370000000  0.4723660000000 1.0
C      1  0.5366870000000  0.4525860000000  0.5290660000000 1.0
C      1  0.4666890000000  0.5500470000000  0.5621550000000 1.0
C      1  0.4523830000000  0.4561390000000  0.4489010000000 1.0
C      1  0.4604130000000  0.4968820000000  0.4723570000000 1.0
C      1  0.4490220000000  0.5167930000000  0.5334780000000 1.0
C      1  0.4667400000000  0.4446340000000  0.5068020000000 1.0
C      1  0.4332930000000  0.5459140000000  0.4771890000000 1.0
C      1  0.4885500000000  0.5564010000000  0.4639470000000 1.0
C      1  0.5113060000000  0.4349340000000  0.5323820000000 1.0
C      1  0.5353850000000  0.5440860000000  0.4456400000000 1.0
C      1  0.5432660000000  0.4659380000000  0.5523780000000 1.0
C      1  0.5453140000000  0.5649560000000  0.5320410000000 1.0
C      1  0.5270680000000  0.4364860000000  0.4632610000000 1.0
C      1  0.4921160000000  0.5055440000000  0.5632720000000 1.0
C      1  0.4948650000000  0.4836700000000  0.4306920000000 1.0
C      1  0.4979640000000  0.5239680000000  0.5065220000000 1.0
C      1  0.4998310000000  0.4807310000000  0.5079200000000 1.0
C      1  0.5394760000000  0.4695460000000  0.4395520000000 1.0
C      1  0.5338510000000  0.5268050000000  0.5624250000000 1.0
C      1  0.5084210000000  0.5589010000000  0.4827110000000 1.0
C      1  0.5117460000000  0.4323240000000  0.4999740000000 1.0
C      1  0.5202490000000  0.5500270000000  0.5452450000000 1.0
C      1  0.5096740000000  0.4645670000000  0.4551760000000 1.0
C      1  0.5592680000000  0.5075510000000  0.4788720000000 1.0
C      1  0.5551590000000  0.5107870000000  0.5455380000000 1.0
END
