TITL C-26733-8285-203 0.000342441466948377 125000 -325.924643390539 0 0 60 (C1) n - 1
REM
REM in /home/nfs/bkarasulu/CARBON/AIRSS/Generating-Clusters/AIREBO/Higher-Symm/Only-C60
REM
REM
REM
REM
REM
REM ./C.cell (28575a23ae977d3b5fae324c64b13b57)
REM
REM compiler GCC version 9.2.1 20190827 (Red Hat 9.2.1-1)
REM options -cpp -mtune=generic -march=x86-64 -g -O0 -fpre-include=/usr/include/finclude/math-vector-fortran.h
REM seed -1616839676 -784156441 2115165080 2051741338 208486960 246134004 634074960 35264383 963045006 -1300218028 775051497 -1357250518 -2113212932 2032908959 384817727 -1498395160 -405838319 -951221626 615300944 -707115686 -1370434010 -457424359 -1794797413 -1662274803 -1766033196 1474849516 1142082987 -430017093 1474650647 56526034 858036143 -294699749 1561876806
REM
CELL 1.54180   50.00000   50.00000   50.00000   90.00000   90.00000   90.00000
LATT -1
SFAC C  
C      1  0.4515050000000  0.5471500000000  0.5299500000000 1.0
C      1  0.5126090000000  0.4974030000000  0.4284360000000 1.0
C      1  0.5012880000000  0.4831770000000  0.4526370000000 1.0
C      1  0.5063540000000  0.4660090000000  0.4988700000000 1.0
C      1  0.5375210000000  0.5164970000000  0.5494870000000 1.0
C      1  0.4301270000000  0.5061420000000  0.4943200000000 1.0
C      1  0.5025510000000  0.5411240000000  0.4473580000000 1.0
C      1  0.5097160000000  0.5150730000000  0.5671870000000 1.0
C      1  0.5214270000000  0.5286230000000  0.4715350000000 1.0
C      1  0.5116370000000  0.5027880000000  0.5126920000000 1.0
C      1  0.4754350000000  0.4621850000000  0.4989930000000 1.0
C      1  0.5090710000000  0.4378700000000  0.5472320000000 1.0
C      1  0.5587360000000  0.5501180000000  0.4819920000000 1.0
C      1  0.5124520000000  0.4421110000000  0.4677520000000 1.0
C      1  0.5439620000000  0.4598820000000  0.5099710000000 1.0
C      1  0.4279230000000  0.4721350000000  0.4947000000000 1.0
C      1  0.5516150000000  0.5171660000000  0.4479670000000 1.0
C      1  0.5604090000000  0.4711450000000  0.4903770000000 1.0
C      1  0.5639950000000  0.5032700000000  0.4976440000000 1.0
C      1  0.4519050000000  0.4721690000000  0.4616270000000 1.0
C      1  0.4834380000000  0.4649630000000  0.5614300000000 1.0
C      1  0.4675960000000  0.4315860000000  0.5115740000000 1.0
C      1  0.5529500000000  0.5454570000000  0.4536780000000 1.0
C      1  0.5263170000000  0.4878030000000  0.5642470000000 1.0
C      1  0.4991070000000  0.5207290000000  0.4233350000000 1.0
C      1  0.4373560000000  0.5318370000000  0.5525810000000 1.0
C      1  0.4740900000000  0.4688660000000  0.5314530000000 1.0
C      1  0.5210530000000  0.4373740000000  0.4991080000000 1.0
C      1  0.4464740000000  0.4957920000000  0.5208640000000 1.0
C      1  0.4798740000000  0.5508960000000  0.5415010000000 1.0
C      1  0.5586620000000  0.4579360000000  0.4651490000000 1.0
C      1  0.5124950000000  0.4636920000000  0.5634890000000 1.0
C      1  0.5409080000000  0.5011090000000  0.4269060000000 1.0
C      1  0.4479480000000  0.5178510000000  0.4498510000000 1.0
C      1  0.4394740000000  0.4964880000000  0.4651800000000 1.0
C      1  0.5312290000000  0.5616550000000  0.5308110000000 1.0
C      1  0.5152520000000  0.4905200000000  0.4815670000000 1.0
C      1  0.5773670000000  0.5325250000000  0.4934240000000 1.0
C      1  0.4346020000000  0.4686540000000  0.5338970000000 1.0
C      1  0.4770020000000  0.5343850000000  0.4909700000000 1.0
C      1  0.4676080000000  0.4929390000000  0.4943790000000 1.0
C      1  0.5427620000000  0.5030900000000  0.4741390000000 1.0
C      1  0.4982420000000  0.4324960000000  0.5211700000000 1.0
C      1  0.5358670000000  0.4460890000000  0.4534380000000 1.0
C      1  0.4824920000000  0.4581730000000  0.4659630000000 1.0
C      1  0.4790620000000  0.5007860000000  0.4680930000000 1.0
C      1  0.5324710000000  0.4793850000000  0.5258960000000 1.0
C      1  0.4490660000000  0.5323400000000  0.5050430000000 1.0
C      1  0.5014650000000  0.5611820000000  0.5258610000000 1.0
C      1  0.5294440000000  0.5588780000000  0.4439470000000 1.0
C      1  0.5296220000000  0.5466110000000  0.4992000000000 1.0
C      1  0.4970570000000  0.5562440000000  0.4974560000000 1.0
C      1  0.4757190000000  0.5315200000000  0.4597490000000 1.0
C      1  0.4639620000000  0.5122180000000  0.5445670000000 1.0
C      1  0.5395300000000  0.5186390000000  0.5158330000000 1.0
C      1  0.5459780000000  0.5471940000000  0.5484310000000 1.0
C      1  0.4874460000000  0.5282150000000  0.5601550000000 1.0
C      1  0.4826730000000  0.5118690000000  0.5158440000000 1.0
C      1  0.4557640000000  0.4816720000000  0.5571070000000 1.0
C      1  0.4403370000000  0.4483060000000  0.5119860000000 1.0
END
