TITL C-26733-8285-3 -0.000449402515517994 125000 -323.2409180587 0 0 60 (C1) n - 1
REM
REM in /home/nfs/bkarasulu/CARBON/AIRSS/Generating-Clusters/AIREBO/Higher-Symm/Only-C60
REM
REM
REM
REM
REM
REM ./C.cell (28575a23ae977d3b5fae324c64b13b57)
REM
REM compiler GCC version 9.2.1 20190827 (Red Hat 9.2.1-1)
REM options -cpp -mtune=generic -march=x86-64 -g -O0 -fpre-include=/usr/include/finclude/math-vector-fortran.h
REM seed -1997133497 939017899 449248312 -1695247638 1547187050 57501506 -312895134 1761096166 892695587 588537472 -682635459 -1610559310 430112098 -598733549 1027664551 -1072138232 244284001 1833311517 -630802019 -843574507 -1935781876 -1676730976 -1355355483 -880697376 -1443000346 -1353446128 -375404033 -1787528994 -331001859 -1407546213 -308663158 -1702720192 1567770155
REM
CELL 1.54180   50.00000   50.00000   50.00000   90.00000   90.00000   90.00000
LATT -1
SFAC C  
C      1  0.5625200000000  0.4922280000000  0.4723050000000 1.0
C      1  0.5598410000000  0.4819210000000  0.5203730000000 1.0
C      1  0.5569790000000  0.5267150000000  0.5080190000000 1.0
C      1  0.5314270000000  0.4656920000000  0.5423130000000 1.0
C      1  0.5240750000000  0.5571870000000  0.5030260000000 1.0
C      1  0.5257620000000  0.4821570000000  0.4600950000000 1.0
C      1  0.5013060000000  0.5267360000000  0.5153720000000 1.0
C      1  0.4998660000000  0.5032210000000  0.4643800000000 1.0
C      1  0.4984670000000  0.4707100000000  0.5138440000000 1.0
C      1  0.5443270000000  0.5242010000000  0.4355150000000 1.0
C      1  0.5409380000000  0.4299010000000  0.5099310000000 1.0
C      1  0.5351400000000  0.5424750000000  0.5527780000000 1.0
C      1  0.4758120000000  0.4816950000000  0.4953560000000 1.0
C      1  0.4788420000000  0.5050820000000  0.5182060000000 1.0
C      1  0.4798380000000  0.5130760000000  0.4849560000000 1.0
C      1  0.5426790000000  0.5149580000000  0.5518650000000 1.0
C      1  0.5492380000000  0.5378700000000  0.4598640000000 1.0
C      1  0.5444600000000  0.4470580000000  0.4872420000000 1.0
C      1  0.4331450000000  0.5085510000000  0.5396740000000 1.0
C      1  0.4439770000000  0.5246990000000  0.4723020000000 1.0
C      1  0.4388700000000  0.4665750000000  0.4969520000000 1.0
C      1  0.4528950000000  0.4827910000000  0.4712860000000 1.0
C      1  0.4589970000000  0.4881500000000  0.5358370000000 1.0
C      1  0.4615190000000  0.5386750000000  0.4978570000000 1.0
C      1  0.4702710000000  0.4561410000000  0.5380430000000 1.0
C      1  0.4619710000000  0.5489950000000  0.5281960000000 1.0
C      1  0.4694440000000  0.4896550000000  0.4423810000000 1.0
C      1  0.5005130000000  0.5703920000000  0.4844920000000 1.0
C      1  0.4921280000000  0.4637690000000  0.4489280000000 1.0
C      1  0.4951180000000  0.4694610000000  0.5575900000000 1.0
C      1  0.4719570000000  0.4375670000000  0.4844750000000 1.0
C      1  0.4741120000000  0.5136880000000  0.5651450000000 1.0
C      1  0.4766650000000  0.5463290000000  0.4492520000000 1.0
C      1  0.4558190000000  0.5261990000000  0.5476390000000 1.0
C      1  0.4613570000000  0.5217400000000  0.4502710000000 1.0
C      1  0.4575030000000  0.4483350000000  0.5074910000000 1.0
C      1  0.4968720000000  0.4416020000000  0.5226340000000 1.0
C      1  0.4928610000000  0.5519020000000  0.5272650000000 1.0
C      1  0.4967530000000  0.5065720000000  0.4312310000000 1.0
C      1  0.5284750000000  0.5575000000000  0.4693070000000 1.0
C      1  0.5195810000000  0.4508350000000  0.4643340000000 1.0
C      1  0.5220710000000  0.4899180000000  0.5611900000000 1.0
C      1  0.5242180000000  0.4388050000000  0.5317530000000 1.0
C      1  0.5213670000000  0.5596450000000  0.5348770000000 1.0
C      1  0.5263170000000  0.5026070000000  0.4349000000000 1.0
C      1  0.4474500000000  0.5725780000000  0.5325900000000 1.0
C      1  0.4529400000000  0.4815430000000  0.4195590000000 1.0
C      1  0.4550230000000  0.4392060000000  0.5565720000000 1.0
C      1  0.4762000000000  0.5587860000000  0.4767500000000 1.0
C      1  0.4668520000000  0.4550430000000  0.4622140000000 1.0
C      1  0.4694350000000  0.4837930000000  0.5668730000000 1.0
C      1  0.5277640000000  0.4782050000000  0.5115050000000 1.0
C      1  0.5259730000000  0.5253660000000  0.4951880000000 1.0
C      1  0.5326940000000  0.4967030000000  0.4880110000000 1.0
C      1  0.5036270000000  0.5600230000000  0.4461530000000 1.0
C      1  0.4992860000000  0.4289660000000  0.4808690000000 1.0
C      1  0.5024030000000  0.5154470000000  0.5720470000000 1.0
C      1  0.5615880000000  0.4694590000000  0.4921360000000 1.0
C      1  0.5601470000000  0.5089600000000  0.5298960000000 1.0
C      1  0.5623260000000  0.5219440000000  0.4788960000000 1.0
END
