TITL C-26739-6686-3 -0.000694786807337117 125000 -304.342412398137 0 0 60 (C1) n - 1
REM
REM in /home/nfs/bkarasulu/CARBON/AIRSS/Generating-Clusters/AIREBO/Higher-Symm/Only-C60
REM
REM
REM
REM
REM
REM ./C.cell (28575a23ae977d3b5fae324c64b13b57)
REM
REM compiler GCC version 9.2.1 20190827 (Red Hat 9.2.1-1)
REM options -cpp -mtune=generic -march=x86-64 -g -O0 -fpre-include=/usr/include/finclude/math-vector-fortran.h
REM seed 1280649499 -1192948542 -944320374 870275122 97782437 -325061798 360108243 1486556214 -125771665 -1794445430 -1370341278 -1890008954 1315326483 -244848046 -2007739849 -1093024282 674973408 1550545501 -875652083 -1629136691 -1679683132 -897332983 1902575237 -687489481 -344619669 54145576 1740553265 1716916036 1136610750 -1045354545 -1276521317 942987811 1747338163
REM
CELL 1.54180   50.00000   50.00000   50.00000   90.00000   90.00000   90.00000
LATT -1
SFAC C  
C      1  0.4792420000000  0.5212940000000  0.4757780000000 1.0
C      1  0.4666020000000  0.4835620000000  0.4783970000000 1.0
C      1  0.5029850000000  0.4671280000000  0.4770340000000 1.0
C      1  0.5369680000000  0.4929220000000  0.4695680000000 1.0
C      1  0.5186970000000  0.5275920000000  0.4751120000000 1.0
C      1  0.5097160000000  0.4666300000000  0.5071190000000 1.0
C      1  0.5339830000000  0.4975800000000  0.5031290000000 1.0
C      1  0.5121940000000  0.5306610000000  0.5052340000000 1.0
C      1  0.4742960000000  0.5192580000000  0.5064950000000 1.0
C      1  0.4733290000000  0.4801080000000  0.5080560000000 1.0
C      1  0.4728300000000  0.5341110000000  0.5358990000000 1.0
C      1  0.4580820000000  0.4811400000000  0.5362480000000 1.0
C      1  0.5024150000000  0.4516960000000  0.5355100000000 1.0
C      1  0.5428910000000  0.4863190000000  0.5339550000000 1.0
C      1  0.5263070000000  0.5363730000000  0.5342730000000 1.0
C      1  0.5580590000000  0.4616900000000  0.4856810000000 1.0
C      1  0.5522140000000  0.5488770000000  0.4920290000000 1.0
C      1  0.4729790000000  0.5612140000000  0.4854250000000 1.0
C      1  0.4284990000000  0.4911030000000  0.4878480000000 1.0
C      1  0.4830010000000  0.4296760000000  0.4875740000000 1.0
C      1  0.5244340000000  0.4741070000000  0.4441560000000 1.0
C      1  0.5444480000000  0.5302180000000  0.4575960000000 1.0
C      1  0.4920880000000  0.5308120000000  0.4457590000000 1.0
C      1  0.4630940000000  0.4977190000000  0.4485150000000 1.0
C      1  0.4847250000000  0.4643850000000  0.4490220000000 1.0
C      1  0.5348170000000  0.4535340000000  0.5351150000000 1.0
C      1  0.5531580000000  0.5161840000000  0.5327880000000 1.0
C      1  0.4997120000000  0.5546490000000  0.5345450000000 1.0
C      1  0.4481290000000  0.5136850000000  0.5361550000000 1.0
C      1  0.4686490000000  0.4510630000000  0.5349180000000 1.0
C      1  0.5131350000000  0.5548680000000  0.4573810000000 1.0
C      1  0.4495920000000  0.5267170000000  0.4600400000000 1.0
C      1  0.4536640000000  0.4577730000000  0.4611820000000 1.0
C      1  0.5203110000000  0.4439110000000  0.4592340000000 1.0
C      1  0.5675760000000  0.5066100000000  0.4639190000000 1.0
C      1  0.5616800000000  0.5178690000000  0.5023380000000 1.0
C      1  0.4991480000000  0.5621630000000  0.5032100000000 1.0
C      1  0.4397930000000  0.5168170000000  0.5055210000000 1.0
C      1  0.4623240000000  0.4451150000000  0.5046540000000 1.0
C      1  0.5374920000000  0.4472470000000  0.5038560000000 1.0
C      1  0.5117670000000  0.4302890000000  0.4891590000000 1.0
C      1  0.5703380000000  0.4870490000000  0.4904230000000 1.0
C      1  0.5286000000000  0.5643230000000  0.4861860000000 1.0
C      1  0.4494190000000  0.5445820000000  0.4882860000000 1.0
C      1  0.4363890000000  0.4617580000000  0.4902120000000 1.0
C      1  0.4309010000000  0.4997070000000  0.4598060000000 1.0
C      1  0.4750730000000  0.4335020000000  0.4600080000000 1.0
C      1  0.5501820000000  0.4568970000000  0.4586760000000 1.0
C      1  0.5732820000000  0.5390270000000  0.4705270000000 1.0
C      1  0.4814550000000  0.5607890000000  0.4581130000000 1.0
C      1  0.4740840000000  0.5618220000000  0.5528140000000 1.0
C      1  0.4341510000000  0.4920060000000  0.5553590000000 1.0
C      1  0.4856120000000  0.4299230000000  0.5527420000000 1.0
C      1  0.5571890000000  0.4655610000000  0.5547060000000 1.0
C      1  0.5532660000000  0.5427300000000  0.5511630000000 1.0
C      1  0.5017500000000  0.4985320000000  0.5718780000000 1.0
C      1  0.5036270000000  0.4992300000000  0.4670620000000 1.0
C      1  0.5012040000000  0.4991960000000  0.5121340000000 1.0
C      1  0.5017290000000  0.4988690000000  0.5461380000000 1.0
C      1  0.4937350000000  0.4943380000000  0.4349500000000 1.0
END
