TITL C-26733-8285-221 -0.000305361067785648 125000 -359.215371715831 0 0 60 (C1) n - 1
REM
REM in /home/nfs/bkarasulu/CARBON/AIRSS/Generating-Clusters/AIREBO/Higher-Symm/Only-C60
REM
REM
REM
REM
REM
REM ./C.cell (28575a23ae977d3b5fae324c64b13b57)
REM
REM compiler GCC version 9.2.1 20190827 (Red Hat 9.2.1-1)
REM options -cpp -mtune=generic -march=x86-64 -g -O0 -fpre-include=/usr/include/finclude/math-vector-fortran.h
REM seed -1312829109 -1349824888 182281019 2325212 1376100667 1259246424 -115372573 878560024 -2057412215 -964741733 1157695646 2068888866 1361240654 -1882541453 1751830232 -996286698 -1011673934 -2016014699 -729087402 872667327 -428959611 607284630 491208015 1415524947 1042448535 -1861796331 -593560682 -2011137510 -1426106737 907501117 649881607 297097672 108084943
REM
CELL 1.54180   50.00000   50.00000   50.00000   90.00000   90.00000   90.00000
LATT -1
SFAC C  
C      1  0.4949130000000  0.5272030000000  0.5473840000000 1.0
C      1  0.4801950000000  0.5156240000000  0.4507110000000 1.0
C      1  0.4770240000000  0.5053270000000  0.5466630000000 1.0
C      1  0.4787530000000  0.4877500000000  0.4468630000000 1.0
C      1  0.4922550000000  0.4819270000000  0.5474660000000 1.0
C      1  0.5048990000000  0.4779470000000  0.4463900000000 1.0
C      1  0.5190620000000  0.4893380000000  0.5490430000000 1.0
C      1  0.5222450000000  0.4991370000000  0.4511850000000 1.0
C      1  0.5211140000000  0.5171990000000  0.5474330000000 1.0
C      1  0.5069440000000  0.5221440000000  0.4552510000000 1.0
C      1  0.5094320000000  0.4516690000000  0.4595270000000 1.0
C      1  0.5395630000000  0.4695020000000  0.5399680000000 1.0
C      1  0.5502050000000  0.4936450000000  0.4607620000000 1.0
C      1  0.5496310000000  0.5266260000000  0.5375780000000 1.0
C      1  0.5214480000000  0.5471550000000  0.4676570000000 1.0
C      1  0.4851870000000  0.5577120000000  0.5459630000000 1.0
C      1  0.4540240000000  0.5307260000000  0.4586240000000 1.0
C      1  0.4480070000000  0.5049190000000  0.5366490000000 1.0
C      1  0.4550380000000  0.4723140000000  0.4582520000000 1.0
C      1  0.4836540000000  0.4542410000000  0.5359560000000 1.0
C      1  0.5397870000000  0.4450220000000  0.4641570000000 1.0
C      1  0.5678440000000  0.4814270000000  0.5379110000000 1.0
C      1  0.5648870000000  0.5210780000000  0.4597450000000 1.0
C      1  0.5355900000000  0.5546270000000  0.5421120000000 1.0
C      1  0.4932790000000  0.5616400000000  0.4697890000000 1.0
C      1  0.4572710000000  0.5534490000000  0.5321840000000 1.0
C      1  0.4279790000000  0.5128730000000  0.4593230000000 1.0
C      1  0.4378920000000  0.4750580000000  0.5372240000000 1.0
C      1  0.4618160000000  0.4415960000000  0.4620950000000 1.0
C      1  0.5086540000000  0.4344220000000  0.5357280000000 1.0
C      1  0.4547910000000  0.4747250000000  0.4909890000000 1.0
C      1  0.4795890000000  0.4567560000000  0.5048350000000 1.0
C      1  0.5080280000000  0.4570480000000  0.4913380000000 1.0
C      1  0.5362030000000  0.4683740000000  0.5073180000000 1.0
C      1  0.5521300000000  0.4940720000000  0.4928740000000 1.0
C      1  0.5520920000000  0.5249430000000  0.5060820000000 1.0
C      1  0.5328070000000  0.5465120000000  0.4962980000000 1.0
C      1  0.4994040000000  0.5714070000000  0.5186450000000 1.0
C      1  0.4528000000000  0.5312740000000  0.4900940000000 1.0
C      1  0.4446700000000  0.5039650000000  0.5046110000000 1.0
C      1  0.5700280000000  0.5063490000000  0.5494260000000 1.0
C      1  0.5488520000000  0.5419050000000  0.4506920000000 1.0
C      1  0.5155910000000  0.5587630000000  0.5605810000000 1.0
C      1  0.4740830000000  0.5551460000000  0.4513070000000 1.0
C      1  0.4403330000000  0.5349290000000  0.5431640000000 1.0
C      1  0.4307840000000  0.4884220000000  0.4470500000000 1.0
C      1  0.4548290000000  0.4572390000000  0.5496990000000 1.0
C      1  0.4855710000000  0.4339520000000  0.4503860000000 1.0
C      1  0.5295240000000  0.4426340000000  0.5518720000000 1.0
C      1  0.5565740000000  0.4638310000000  0.4528650000000 1.0
C      1  0.4837450000000  0.5669280000000  0.4958510000000 1.0
C      1  0.4599810000000  0.5537440000000  0.5040620000000 1.0
C      1  0.4187360000000  0.5111700000000  0.4855150000000 1.0
C      1  0.4303510000000  0.4674230000000  0.5117120000000 1.0
C      1  0.4607320000000  0.4353340000000  0.4890470000000 1.0
C      1  0.5178670000000  0.4311340000000  0.5094090000000 1.0
C      1  0.5436410000000  0.4393590000000  0.4918280000000 1.0
C      1  0.5752290000000  0.4801950000000  0.5112710000000 1.0
C      1  0.5761470000000  0.5253150000000  0.4847120000000 1.0
C      1  0.5262980000000  0.5638520000000  0.5168720000000 1.0
END
