TITL C-26733-8285-90 0.00155458725817216 125000 -312.142380252546 0 0 60 (C1) n - 1
REM
REM in /home/nfs/bkarasulu/CARBON/AIRSS/Generating-Clusters/AIREBO/Higher-Symm/Only-C60
REM
REM
REM
REM
REM
REM ./C.cell (28575a23ae977d3b5fae324c64b13b57)
REM
REM compiler GCC version 9.2.1 20190827 (Red Hat 9.2.1-1)
REM options -cpp -mtune=generic -march=x86-64 -g -O0 -fpre-include=/usr/include/finclude/math-vector-fortran.h
REM seed -557256994 692355531 -1512934016 1789697817 1856965271 1591607692 565135470 2070431254 -196801561 328018286 -1351695542 -1908746881 -2109875209 412565982 -1272273840 -918305010 265375909 2107855816 -1036125486 -501788627 1139104737 794203170 -1435465264 -2056120362 1934231444 -332745969 1786788218 -1798345445 -1963070543 994767309 -2025636349 -1846638292 384713836
REM
CELL 1.54180   50.00000   50.00000   50.00000   90.00000   90.00000   90.00000
LATT -1
SFAC C  
C      1  0.5434290000000  0.4457190000000  0.5087540000000 1.0
C      1  0.5608790000000  0.4916980000000  0.5051150000000 1.0
C      1  0.5434880000000  0.5560690000000  0.5059480000000 1.0
C      1  0.4907560000000  0.5597390000000  0.5186220000000 1.0
C      1  0.4383520000000  0.5352930000000  0.5092830000000 1.0
C      1  0.4418940000000  0.4783140000000  0.5032220000000 1.0
C      1  0.4836640000000  0.4282910000000  0.5221000000000 1.0
C      1  0.4942490000000  0.5741540000000  0.4954410000000 1.0
C      1  0.4610240000000  0.5310280000000  0.4879120000000 1.0
C      1  0.4433790000000  0.4897850000000  0.4776210000000 1.0
C      1  0.4795520000000  0.4453500000000  0.4929670000000 1.0
C      1  0.5409290000000  0.4400230000000  0.4827750000000 1.0
C      1  0.5623910000000  0.4835600000000  0.4789350000000 1.0
C      1  0.5349190000000  0.5494550000000  0.4770620000000 1.0
C      1  0.4710840000000  0.5269300000000  0.4318980000000 1.0
C      1  0.4586940000000  0.4980330000000  0.4291510000000 1.0
C      1  0.4804340000000  0.4731730000000  0.4210210000000 1.0
C      1  0.5147290000000  0.4733340000000  0.4261860000000 1.0
C      1  0.5422490000000  0.4827140000000  0.4262260000000 1.0
C      1  0.5344960000000  0.5151420000000  0.4330720000000 1.0
C      1  0.5041990000000  0.5275830000000  0.4238890000000 1.0
C      1  0.4888140000000  0.5347390000000  0.4598450000000 1.0
C      1  0.4707060000000  0.5066130000000  0.4663100000000 1.0
C      1  0.4793330000000  0.4757560000000  0.4549090000000 1.0
C      1  0.5016670000000  0.4539980000000  0.4686070000000 1.0
C      1  0.5329430000000  0.4647930000000  0.4607500000000 1.0
C      1  0.5378680000000  0.4983920000000  0.4625000000000 1.0
C      1  0.5065270000000  0.5563600000000  0.4704560000000 1.0
C      1  0.4982770000000  0.5896510000000  0.4687280000000 1.0
C      1  0.4558270000000  0.5432250000000  0.4569630000000 1.0
C      1  0.4390050000000  0.4915350000000  0.4473720000000 1.0
C      1  0.4621100000000  0.4525240000000  0.4665050000000 1.0
C      1  0.5213210000000  0.4268530000000  0.4633940000000 1.0
C      1  0.5631440000000  0.4724080000000  0.4468240000000 1.0
C      1  0.5454370000000  0.5305090000000  0.4603640000000 1.0
C      1  0.4891180000000  0.5560510000000  0.5460220000000 1.0
C      1  0.4461570000000  0.5196850000000  0.5302200000000 1.0
C      1  0.4414820000000  0.4785610000000  0.5372400000000 1.0
C      1  0.4863960000000  0.4427750000000  0.5529000000000 1.0
C      1  0.5498440000000  0.4557660000000  0.5393250000000 1.0
C      1  0.5596270000000  0.4935930000000  0.5356830000000 1.0
C      1  0.5371220000000  0.5456510000000  0.5378930000000 1.0
C      1  0.4676450000000  0.5026860000000  0.5205240000000 1.0
C      1  0.4719140000000  0.4705620000000  0.5130690000000 1.0
C      1  0.4983630000000  0.4587090000000  0.5253490000000 1.0
C      1  0.5245580000000  0.4689260000000  0.5207360000000 1.0
C      1  0.5297060000000  0.4986660000000  0.5097710000000 1.0
C      1  0.5223210000000  0.5313670000000  0.5108170000000 1.0
C      1  0.4890590000000  0.5316660000000  0.5032260000000 1.0
C      1  0.5034400000000  0.4717470000000  0.5626120000000 1.0
C      1  0.5356910000000  0.4810950000000  0.5570690000000 1.0
C      1  0.5352830000000  0.5133970000000  0.5464360000000 1.0
C      1  0.5125330000000  0.5355840000000  0.5591200000000 1.0
C      1  0.4796460000000  0.5261380000000  0.5562170000000 1.0
C      1  0.4549370000000  0.5027350000000  0.5582590000000 1.0
C      1  0.4705650000000  0.4728520000000  0.5539250000000 1.0
C      1  0.4977990000000  0.5004620000000  0.5803770000000 1.0
C      1  0.4985700000000  0.4986820000000  0.4284160000000 1.0
C      1  0.4981050000000  0.5006300000000  0.5137800000000 1.0
C      1  0.4975680000000  0.5010350000000  0.5463690000000 1.0
END
