TITL C-26737-6152-67 -0.000427217770587929 125000 -313.277637618186 0 0 60 (C1) n - 1
REM
REM in /home/nfs/bkarasulu/CARBON/AIRSS/Generating-Clusters/AIREBO/Higher-Symm/Only-C60
REM
REM
REM
REM
REM
REM ./C.cell (28575a23ae977d3b5fae324c64b13b57)
REM
REM compiler GCC version 9.2.1 20190827 (Red Hat 9.2.1-1)
REM options -cpp -mtune=generic -march=x86-64 -g -O0 -fpre-include=/usr/include/finclude/math-vector-fortran.h
REM seed 270457736 374361519 547030394 1761999844 1817483329 -83900268 866272459 -1000672071 1517370128 958129449 1297028919 -235992826 -108252884 -1165197680 1531744135 -1543454718 198874529 636066853 -324557552 1089664878 -1285074796 1472685495 -768270842 149103809 874329880 -96849764 1841378759 1680618754 1023065740 -336665591 -1409196826 1335869094 1130090137
REM
CELL 1.54180   50.00000   50.00000   50.00000   90.00000   90.00000   90.00000
LATT -1
SFAC C  
C      1  0.4931280000000  0.5501590000000  0.4637410000000 1.0
C      1  0.4489070000000  0.4922050000000  0.5368520000000 1.0
C      1  0.5062650000000  0.4515790000000  0.4631500000000 1.0
C      1  0.5502180000000  0.5067360000000  0.5368800000000 1.0
C      1  0.4761880000000  0.4958110000000  0.5174290000000 1.0
C      1  0.5036940000000  0.4775380000000  0.4842660000000 1.0
C      1  0.5236280000000  0.5041100000000  0.5163910000000 1.0
C      1  0.4957740000000  0.5238600000000  0.4841210000000 1.0
C      1  0.5216800000000  0.5181800000000  0.4628470000000 1.0
C      1  0.4824410000000  0.5218110000000  0.5368470000000 1.0
C      1  0.4771000000000  0.4836980000000  0.4642690000000 1.0
C      1  0.5180470000000  0.4783790000000  0.5378120000000 1.0
C      1  0.5690860000000  0.5369480000000  0.4706390000000 1.0
C      1  0.4656170000000  0.5690070000000  0.5318740000000 1.0
C      1  0.4288290000000  0.4604840000000  0.4713450000000 1.0
C      1  0.5374130000000  0.4312320000000  0.5286200000000 1.0
C      1  0.4637630000000  0.4537020000000  0.5132330000000 1.0
C      1  0.5456060000000  0.4635750000000  0.4869930000000 1.0
C      1  0.5376480000000  0.5456410000000  0.5126930000000 1.0
C      1  0.4531660000000  0.5377130000000  0.4912160000000 1.0
C      1  0.5651740000000  0.4460450000000  0.5251770000000 1.0
C      1  0.5547640000000  0.5649800000000  0.4742460000000 1.0
C      1  0.4398090000000  0.5540920000000  0.5173700000000 1.0
C      1  0.4465540000000  0.4344420000000  0.4749430000000 1.0
C      1  0.5640130000000  0.5086240000000  0.4863510000000 1.0
C      1  0.4936080000000  0.5648720000000  0.5148430000000 1.0
C      1  0.4371150000000  0.4897210000000  0.4858650000000 1.0
C      1  0.5089670000000  0.4365530000000  0.5132820000000 1.0
C      1  0.4875130000000  0.4952270000000  0.4375570000000 1.0
C      1  0.5067230000000  0.4902310000000  0.5640200000000 1.0
C      1  0.5096150000000  0.5070060000000  0.4367530000000 1.0
C      1  0.4935190000000  0.5115710000000  0.5636360000000 1.0
C      1  0.5409780000000  0.5429220000000  0.4541920000000 1.0
C      1  0.4560910000000  0.5396490000000  0.5421100000000 1.0
C      1  0.4583350000000  0.4584240000000  0.4557160000000 1.0
C      1  0.5430160000000  0.4589340000000  0.5458420000000 1.0
C      1  0.4951910000000  0.4267880000000  0.5406970000000 1.0
C      1  0.5730420000000  0.4944550000000  0.4589560000000 1.0
C      1  0.5085790000000  0.5736500000000  0.5417950000000 1.0
C      1  0.4293630000000  0.5030250000000  0.4576380000000 1.0
C      1  0.4443940000000  0.5128200000000  0.5532990000000 1.0
C      1  0.4867970000000  0.4496460000000  0.4451410000000 1.0
C      1  0.5529860000000  0.4875180000000  0.5549960000000 1.0
C      1  0.5121990000000  0.5529030000000  0.4454170000000 1.0
C      1  0.5830020000000  0.4860540000000  0.5022970000000 1.0
C      1  0.5157200000000  0.5836400000000  0.4981900000000 1.0
C      1  0.4133120000000  0.5082120000000  0.4997060000000 1.0
C      1  0.4869040000000  0.4170090000000  0.4973740000000 1.0
C      1  0.4758080000000  0.5583050000000  0.4866140000000 1.0
C      1  0.4435360000000  0.4730640000000  0.5148180000000 1.0
C      1  0.5255110000000  0.4441600000000  0.4845500000000 1.0
C      1  0.5571630000000  0.5256200000000  0.5150060000000 1.0
C      1  0.4211270000000  0.5343860000000  0.4999490000000 1.0
C      1  0.4618880000000  0.4304920000000  0.4976390000000 1.0
C      1  0.5689850000000  0.4613070000000  0.5023120000000 1.0
C      1  0.5401130000000  0.5690640000000  0.4974400000000 1.0
C      1  0.4666600000000  0.5065460000000  0.4871970000000 1.0
C      1  0.4948050000000  0.4674130000000  0.5154900000000 1.0
C      1  0.5328390000000  0.4950430000000  0.4851560000000 1.0
C      1  0.5060840000000  0.5332210000000  0.5152020000000 1.0
END
