TITL C-26741-8371-179 0.000799140987842703 125000 -333.755162782573 0 0 60 (C1) n - 1
REM
REM in /home/nfs/bkarasulu/CARBON/AIRSS/Generating-Clusters/AIREBO/Higher-Symm/Only-C60
REM
REM
REM
REM
REM
REM ./C.cell (28575a23ae977d3b5fae324c64b13b57)
REM
REM compiler GCC version 9.2.1 20190827 (Red Hat 9.2.1-1)
REM options -cpp -mtune=generic -march=x86-64 -g -O0 -fpre-include=/usr/include/finclude/math-vector-fortran.h
REM seed -2049347020 1221380711 1874082043 95298207 -1593059908 -571776608 1277399439 -342585821 1368461117 1729922519 -2021815812 1235814593 1659190349 -1230681443 -1516690926 -1889367740 -1796216575 323658582 -685279008 -1500872165 -739927778 1383227631 2043481635 1000530528 -458171991 234252200 1016119478 -258925024 174052836 838046064 -813593191 -2006737203 2114409341
REM
CELL 1.54180   50.00000   50.00000   50.00000   90.00000   90.00000   90.00000
LATT -1
SFAC C  
C      1  0.4643480000000  0.4862970000000  0.5408810000000 1.0
C      1  0.4454140000000  0.5160590000000  0.5145270000000 1.0
C      1  0.4293930000000  0.4787270000000  0.4792370000000 1.0
C      1  0.4559030000000  0.5161750000000  0.4471770000000 1.0
C      1  0.4985000000000  0.4888680000000  0.4347430000000 1.0
C      1  0.5419740000000  0.5156530000000  0.4359580000000 1.0
C      1  0.5608450000000  0.4766170000000  0.4903630000000 1.0
C      1  0.5599520000000  0.5207730000000  0.5245840000000 1.0
C      1  0.5427530000000  0.4910430000000  0.5624430000000 1.0
C      1  0.4980270000000  0.5142820000000  0.5701670000000 1.0
C      1  0.5198500000000  0.4867120000000  0.4547220000000 1.0
C      1  0.5365260000000  0.5120000000000  0.4681950000000 1.0
C      1  0.5439400000000  0.4729560000000  0.5176670000000 1.0
C      1  0.5385780000000  0.5319340000000  0.5391530000000 1.0
C      1  0.5223500000000  0.4719800000000  0.5430210000000 1.0
C      1  0.4906950000000  0.5284000000000  0.5448710000000 1.0
C      1  0.4643250000000  0.4814680000000  0.5086280000000 1.0
C      1  0.4647960000000  0.5159830000000  0.4869020000000 1.0
C      1  0.4615410000000  0.4691780000000  0.4770440000000 1.0
C      1  0.4828750000000  0.5295070000000  0.4613750000000 1.0
C      1  0.4652720000000  0.4475240000000  0.5104560000000 1.0
C      1  0.4611710000000  0.5496300000000  0.4902280000000 1.0
C      1  0.4865800000000  0.4510120000000  0.4650480000000 1.0
C      1  0.5095440000000  0.5479550000000  0.4671480000000 1.0
C      1  0.5155230000000  0.4611710000000  0.4744280000000 1.0
C      1  0.5280190000000  0.5362690000000  0.4900690000000 1.0
C      1  0.5203000000000  0.4530480000000  0.5063180000000 1.0
C      1  0.5170960000000  0.5465620000000  0.5196660000000 1.0
C      1  0.4936940000000  0.4601710000000  0.5247150000000 1.0
C      1  0.4835050000000  0.5434200000000  0.5152270000000 1.0
C      1  0.5224750000000  0.4218860000000  0.5059510000000 1.0
C      1  0.5147870000000  0.5781510000000  0.5195690000000 1.0
C      1  0.4965850000000  0.4098250000000  0.5168510000000 1.0
C      1  0.4856530000000  0.5851710000000  0.5186700000000 1.0
C      1  0.4748410000000  0.4208170000000  0.5010310000000 1.0
C      1  0.4779870000000  0.5755970000000  0.4921370000000 1.0
C      1  0.4854530000000  0.4223770000000  0.4741620000000 1.0
C      1  0.5017500000000  0.5756270000000  0.4758500000000 1.0
C      1  0.5124310000000  0.4113380000000  0.4788220000000 1.0
C      1  0.5229380000000  0.5884160000000  0.4923030000000 1.0
C      1  0.4544220000000  0.5378890000000  0.5325900000000 1.0
C      1  0.4332710000000  0.4579920000000  0.5040730000000 1.0
C      1  0.4397610000000  0.5377310000000  0.4661780000000 1.0
C      1  0.4777350000000  0.4718840000000  0.4409440000000 1.0
C      1  0.5163880000000  0.5317290000000  0.4398350000000 1.0
C      1  0.5489900000000  0.4635790000000  0.4680590000000 1.0
C      1  0.5583580000000  0.5270880000000  0.4977560000000 1.0
C      1  0.5721100000000  0.4845760000000  0.5581000000000 1.0
C      1  0.5189530000000  0.5289310000000  0.5860650000000 1.0
C      1  0.4839570000000  0.4696890000000  0.5534740000000 1.0
C      1  0.5034040000000  0.4865070000000  0.5672500000000 1.0
C      1  0.4636030000000  0.5125060000000  0.5498800000000 1.0
C      1  0.4324290000000  0.4892670000000  0.5174870000000 1.0
C      1  0.4332740000000  0.5065980000000  0.4782120000000 1.0
C      1  0.4544280000000  0.4882160000000  0.4497020000000 1.0
C      1  0.4927250000000  0.5158900000000  0.4318180000000 1.0
C      1  0.5508410000000  0.4838130000000  0.4424190000000 1.0
C      1  0.5643430000000  0.5031540000000  0.4820320000000 1.0
C      1  0.5657030000000  0.4930260000000  0.5297970000000 1.0
C      1  0.5371150000000  0.5193580000000  0.5640200000000 1.0
END
