TITL C-26731-8310-86 0.00159134625106339 125000 -317.773567578347 0 0 60 (C1) n - 1
REM
REM in /home/nfs/bkarasulu/CARBON/AIRSS/Generating-Clusters/AIREBO/Higher-Symm/Only-C60
REM
REM
REM
REM
REM
REM ./C.cell (28575a23ae977d3b5fae324c64b13b57)
REM
REM compiler GCC version 9.2.1 20190827 (Red Hat 9.2.1-1)
REM options -cpp -mtune=generic -march=x86-64 -g -O0 -fpre-include=/usr/include/finclude/math-vector-fortran.h
REM seed -1195375745 -441335508 -1713844978 -862972211 325383486 -1107897350 -850612944 1830825058 413668468 334991167 425693284 1722550945 1287613719 -1106491510 -1458358932 156982341 1436200408 599893019 1376263015 701077638 921417014 -1449301526 -1115116614 353955558 -987483885 1684171600 2105055450 560391100 1616009091 -1558730163 -1770541489 -1588415261 -1203620672
REM
CELL 1.54180   50.00000   50.00000   50.00000   90.00000   90.00000   90.00000
LATT -1
SFAC C  
C      1  0.4426940000000  0.5252370000000  0.5242660000000 1.0
C      1  0.5200980000000  0.5502970000000  0.5232120000000 1.0
C      1  0.5557430000000  0.4791550000000  0.5243430000000 1.0
C      1  0.4810790000000  0.4480260000000  0.5243990000000 1.0
C      1  0.4425980000000  0.5245630000000  0.4749290000000 1.0
C      1  0.5199110000000  0.5500610000000  0.4753740000000 1.0
C      1  0.5562520000000  0.4777720000000  0.4737870000000 1.0
C      1  0.4807490000000  0.4495360000000  0.4751730000000 1.0
C      1  0.5431110000000  0.5637820000000  0.5441890000000 1.0
C      1  0.5561050000000  0.4520070000000  0.5421300000000 1.0
C      1  0.4554380000000  0.4416750000000  0.5428630000000 1.0
C      1  0.4317220000000  0.5487970000000  0.5424950000000 1.0
C      1  0.5439390000000  0.5627450000000  0.4549310000000 1.0
C      1  0.5662870000000  0.4552020000000  0.4502980000000 1.0
C      1  0.4546570000000  0.4412460000000  0.4550040000000 1.0
C      1  0.4315180000000  0.5475230000000  0.4562580000000 1.0
C      1  0.5434260000000  0.5359610000000  0.5521390000000 1.0
C      1  0.5342670000000  0.4398630000000  0.5467170000000 1.0
C      1  0.4446870000000  0.4634470000000  0.5297970000000 1.0
C      1  0.4519350000000  0.5635900000000  0.5303830000000 1.0
C      1  0.5437120000000  0.5348490000000  0.4473180000000 1.0
C      1  0.5391910000000  0.4455980000000  0.4572690000000 1.0
C      1  0.4436090000000  0.4624730000000  0.4688900000000 1.0
C      1  0.4518070000000  0.5628010000000  0.4681770000000 1.0
C      1  0.5075130000000  0.4545830000000  0.5367350000000 1.0
C      1  0.4690630000000  0.5095430000000  0.5293330000000 1.0
C      1  0.4939010000000  0.5319540000000  0.5321740000000 1.0
C      1  0.5462530000000  0.5053990000000  0.5357590000000 1.0
C      1  0.5074240000000  0.4551920000000  0.4628870000000 1.0
C      1  0.4690270000000  0.5090670000000  0.4699810000000 1.0
C      1  0.4937870000000  0.5314850000000  0.4668280000000 1.0
C      1  0.5454310000000  0.5039110000000  0.4631090000000 1.0
C      1  0.5011970000000  0.4781210000000  0.5540800000000 1.0
C      1  0.4760480000000  0.4882620000000  0.5529730000000 1.0
C      1  0.5161740000000  0.5243850000000  0.5536990000000 1.0
C      1  0.5213960000000  0.4957350000000  0.5568610000000 1.0
C      1  0.5007060000000  0.4778670000000  0.4448760000000 1.0
C      1  0.4754760000000  0.4877710000000  0.4463760000000 1.0
C      1  0.5160970000000  0.5240720000000  0.4452170000000 1.0
C      1  0.5207460000000  0.4954440000000  0.4413100000000 1.0
C      1  0.4659500000000  0.4801780000000  0.5151920000000 1.0
C      1  0.4711840000000  0.5463470000000  0.5142490000000 1.0
C      1  0.5355000000000  0.5244970000000  0.5125430000000 1.0
C      1  0.5292280000000  0.4632440000000  0.5147560000000 1.0
C      1  0.4668050000000  0.4794900000000  0.4845030000000 1.0
C      1  0.4710990000000  0.5461070000000  0.4844280000000 1.0
C      1  0.5351800000000  0.5240290000000  0.4862210000000 1.0
C      1  0.5306420000000  0.4595840000000  0.4861320000000 1.0
C      1  0.5276810000000  0.5996620000000  0.4989040000000 1.0
C      1  0.6008770000000  0.5003430000000  0.4993040000000 1.0
C      1  0.4696870000000  0.4005170000000  0.4984530000000 1.0
C      1  0.4069980000000  0.4905250000000  0.5000550000000 1.0
C      1  0.4977140000000  0.5970780000000  0.4991210000000 1.0
C      1  0.6057430000000  0.4706400000000  0.4998110000000 1.0
C      1  0.4996460000000  0.4029530000000  0.4983860000000 1.0
C      1  0.3933220000000  0.5173000000000  0.4998180000000 1.0
C      1  0.5731600000000  0.4803540000000  0.4994550000000 1.0
C      1  0.4819620000000  0.4322140000000  0.4993400000000 1.0
C      1  0.4273160000000  0.5180370000000  0.4997230000000 1.0
C      1  0.5155320000000  0.5679060000000  0.4992290000000 1.0
END
