TITL C-26738-6379-144 -0.00384001871957789 125000 -376.042165603449 0 0 60 (S4) n - 1
REM
REM in /home/nfs/bkarasulu/CARBON/AIRSS/Generating-Clusters/AIREBO/Higher-Symm/Only-C60
REM
REM
REM
REM
REM
REM ./C.cell (28575a23ae977d3b5fae324c64b13b57)
REM
REM compiler GCC version 9.2.1 20190827 (Red Hat 9.2.1-1)
REM options -cpp -mtune=generic -march=x86-64 -g -O0 -fpre-include=/usr/include/finclude/math-vector-fortran.h
REM seed 438944066 -253342793 -512988423 1134080170 -21233217 -1935117049 2087636538 97956370 565799668 -681991382 224468967 1595551626 490868048 627246030 1014517109 -566896967 642391256 1368038495 -1492433161 63663065 1696288399 1379246867 1237884531 -1732269075 -231693647 2100054720 2098011357 190925705 1949378921 -96813496 -72699304 -672786408 -1896054848
REM
CELL 1.54180   50.00000   50.00000   50.00000   90.00000   90.00000   90.00000
LATT -1
SFAC C  
C      1  0.5323630000000  0.4464550000000  0.4851000000000 1.0
C      1  0.4479770000000  0.4874960000000  0.5324650000000 1.0
C      1  0.4876270000000  0.5319330000000  0.4490540000000 1.0
C      1  0.5347350000000  0.5533790000000  0.5129050000000 1.0
C      1  0.4675980000000  0.4464840000000  0.5149190000000 1.0
C      1  0.4653030000000  0.5533990000000  0.4870770000000 1.0
C      1  0.4450040000000  0.5154640000000  0.4651160000000 1.0
C      1  0.5520140000000  0.4874470000000  0.4675390000000 1.0
C      1  0.5550070000000  0.5154360000000  0.5348780000000 1.0
C      1  0.4844930000000  0.4648490000000  0.5561800000000 1.0
C      1  0.5123960000000  0.5319410000000  0.5509350000000 1.0
C      1  0.5154810000000  0.4648180000000  0.4438320000000 1.0
C      1  0.5348750000000  0.4845280000000  0.4450010000000 1.0
C      1  0.4438390000000  0.5351840000000  0.4845000000000 1.0
C      1  0.4870670000000  0.4466220000000  0.5347250000000 1.0
C      1  0.5324670000000  0.5125250000000  0.5520160000000 1.0
C      1  0.4675420000000  0.5125310000000  0.4479790000000 1.0
C      1  0.4651140000000  0.4845720000000  0.5550040000000 1.0
C      1  0.4490480000000  0.4680840000000  0.5123900000000 1.0
C      1  0.5509290000000  0.4680430000000  0.4876210000000 1.0
C      1  0.5561860000000  0.5351490000000  0.5154880000000 1.0
C      1  0.4851100000000  0.5535310000000  0.4676080000000 1.0
C      1  0.5149290000000  0.5535310000000  0.5323730000000 1.0
C      1  0.5128950000000  0.4466000000000  0.4652930000000 1.0
C      1  0.4671000000000  0.5627750000000  0.5132740000000 1.0
C      1  0.5621040000000  0.5135350000000  0.4685080000000 1.0
C      1  0.5090660000000  0.4683710000000  0.5690610000000 1.0
C      1  0.4696340000000  0.4324880000000  0.4907920000000 1.0
C      1  0.5329450000000  0.5627470000000  0.4867040000000 1.0
C      1  0.5303170000000  0.4324690000000  0.5092310000000 1.0
C      1  0.5682490000000  0.4910300000000  0.5316900000000 1.0
C      1  0.4379060000000  0.5135910000000  0.5314870000000 1.0
C      1  0.4317440000000  0.4910690000000  0.4683130000000 1.0
C      1  0.5135010000000  0.5313690000000  0.4383950000000 1.0
C      1  0.4909120000000  0.4683540000000  0.4309500000000 1.0
C      1  0.4865220000000  0.5314000000000  0.5615940000000 1.0
C      1  0.4683150000000  0.5089740000000  0.5682510000000 1.0
C      1  0.5615880000000  0.4685960000000  0.5134950000000 1.0
C      1  0.5092440000000  0.5675130000000  0.4696470000000 1.0
C      1  0.4685060000000  0.4864380000000  0.4379030000000 1.0
C      1  0.5314850000000  0.4864370000000  0.5621010000000 1.0
C      1  0.5316920000000  0.5089270000000  0.4317460000000 1.0
C      1  0.5690670000000  0.5316110000000  0.4909180000000 1.0
C      1  0.4309560000000  0.5316640000000  0.5090720000000 1.0
C      1  0.4383890000000  0.4686360000000  0.4865160000000 1.0
C      1  0.5132620000000  0.4372400000000  0.5329330000000 1.0
C      1  0.4866920000000  0.4372380000000  0.4670880000000 1.0
C      1  0.4908050000000  0.5675300000000  0.5303300000000 1.0
C      1  0.4413900000000  0.5533190000000  0.5319780000000 1.0
C      1  0.5528140000000  0.4421000000000  0.5315850000000 1.0
C      1  0.5532170000000  0.5316940000000  0.4419720000000 1.0
C      1  0.5319680000000  0.4467060000000  0.5586390000000 1.0
C      1  0.4471440000000  0.4421270000000  0.4684350000000 1.0
C      1  0.5586490000000  0.5532660000000  0.4680030000000 1.0
C      1  0.5580120000000  0.4682650000000  0.5532110000000 1.0
C      1  0.4468050000000  0.5317530000000  0.5580180000000 1.0
C      1  0.4419660000000  0.4682880000000  0.4467990000000 1.0
C      1  0.5315960000000  0.5578660000000  0.4471550000000 1.0
C      1  0.4679930000000  0.4467090000000  0.4413790000000 1.0
C      1  0.4684460000000  0.5579070000000  0.5528250000000 1.0
END
