TITL C-26731-8310-33 -0.000450651275985275 125000 -325.49561412481 0 0 60 (C1) n - 1
REM
REM in /home/nfs/bkarasulu/CARBON/AIRSS/Generating-Clusters/AIREBO/Higher-Symm/Only-C60
REM
REM
REM
REM
REM
REM ./C.cell (28575a23ae977d3b5fae324c64b13b57)
REM
REM compiler GCC version 9.2.1 20190827 (Red Hat 9.2.1-1)
REM options -cpp -mtune=generic -march=x86-64 -g -O0 -fpre-include=/usr/include/finclude/math-vector-fortran.h
REM seed -803335049 210865403 525774593 2092007767 -2091765674 919294084 1332353832 -708824020 1379789611 799109661 739759495 -1317434937 -595568249 1056063891 -292015158 1195520003 -155678436 -1208704695 2035017292 57406222 -717475811 1121994126 858877958 -1265607351 -1186153241 702416459 1841921505 -2143086651 -1493936358 -1627586428 1821189511 -2106478435 1654527333
REM
CELL 1.54180   50.00000   50.00000   50.00000   90.00000   90.00000   90.00000
LATT -1
SFAC C  
C      1  0.5329490000000  0.5220740000000  0.4689770000000 1.0
C      1  0.5325040000000  0.5189460000000  0.5341200000000 1.0
C      1  0.5341690000000  0.4600570000000  0.4968590000000 1.0
C      1  0.4339660000000  0.4787020000000  0.5024320000000 1.0
C      1  0.4336110000000  0.5066930000000  0.4828380000000 1.0
C      1  0.4392130000000  0.5093160000000  0.5162730000000 1.0
C      1  0.5067040000000  0.5730880000000  0.4770170000000 1.0
C      1  0.5046490000000  0.4816240000000  0.5710080000000 1.0
C      1  0.5097700000000  0.4464470000000  0.4489250000000 1.0
C      1  0.4953990000000  0.5564010000000  0.5441640000000 1.0
C      1  0.4929960000000  0.4261040000000  0.5210640000000 1.0
C      1  0.4938690000000  0.5104100000000  0.4315010000000 1.0
C      1  0.4801910000000  0.5248530000000  0.5637440000000 1.0
C      1  0.4684250000000  0.4302740000000  0.4725140000000 1.0
C      1  0.4661620000000  0.5566160000000  0.4526130000000 1.0
C      1  0.5318800000000  0.4647840000000  0.4449520000000 1.0
C      1  0.5286310000000  0.5668610000000  0.4944590000000 1.0
C      1  0.5242630000000  0.4619660000000  0.5602300000000 1.0
C      1  0.5050340000000  0.5089000000000  0.5779160000000 1.0
C      1  0.4963320000000  0.4320080000000  0.4716420000000 1.0
C      1  0.4938950000000  0.5580020000000  0.4544460000000 1.0
C      1  0.4525070000000  0.4513180000000  0.4939750000000 1.0
C      1  0.4517150000000  0.5275220000000  0.4626630000000 1.0
C      1  0.4526890000000  0.5211500000000  0.5455870000000 1.0
C      1  0.5873180000000  0.5219830000000  0.5428610000000 1.0
C      1  0.5865310000000  0.4484220000000  0.5108110000000 1.0
C      1  0.5852510000000  0.5345500000000  0.4541400000000 1.0
C      1  0.5641450000000  0.5273620000000  0.5339060000000 1.0
C      1  0.5621070000000  0.4551650000000  0.5128800000000 1.0
C      1  0.5636820000000  0.5214550000000  0.4572550000000 1.0
C      1  0.4718930000000  0.4974220000000  0.5359520000000 1.0
C      1  0.4740390000000  0.4695190000000  0.4771850000000 1.0
C      1  0.4743280000000  0.5349490000000  0.4851440000000 1.0
C      1  0.5389000000000  0.4681510000000  0.5317510000000 1.0
C      1  0.5484080000000  0.4936890000000  0.4528470000000 1.0
C      1  0.5466240000000  0.5452400000000  0.5138200000000 1.0
C      1  0.5153750000000  0.4932740000000  0.4466600000000 1.0
C      1  0.5138170000000  0.5509100000000  0.5193650000000 1.0
C      1  0.5088620000000  0.4438240000000  0.5414800000000 1.0
C      1  0.4951800000000  0.5090130000000  0.5203460000000 1.0
C      1  0.4978640000000  0.4750050000000  0.5006730000000 1.0
C      1  0.4961420000000  0.5099760000000  0.4774630000000 1.0
C      1  0.4514050000000  0.4879170000000  0.4633000000000 1.0
C      1  0.4533530000000  0.5375900000000  0.5095300000000 1.0
C      1  0.4536200000000  0.4722320000000  0.5276890000000 1.0
C      1  0.4617490000000  0.4394610000000  0.5236720000000 1.0
C      1  0.4607560000000  0.5071350000000  0.4383320000000 1.0
C      1  0.4622810000000  0.5517950000000  0.5381510000000 1.0
C      1  0.5201340000000  0.4859430000000  0.4795070000000 1.0
C      1  0.5161220000000  0.5246680000000  0.4985860000000 1.0
C      1  0.5219100000000  0.4907660000000  0.5189600000000 1.0
C      1  0.4783140000000  0.4807390000000  0.4286590000000 1.0
C      1  0.4793420000000  0.5720500000000  0.5185660000000 1.0
C      1  0.4793770000000  0.4501560000000  0.5488140000000 1.0
C      1  0.5062650000000  0.4421890000000  0.4976460000000 1.0
C      1  0.5056710000000  0.5313670000000  0.4528050000000 1.0
C      1  0.5121390000000  0.5295060000000  0.5530650000000 1.0
C      1  0.4794330000000  0.4760660000000  0.5580610000000 1.0
C      1  0.4839110000000  0.4617540000000  0.4481750000000 1.0
C      1  0.4822290000000  0.5646410000000  0.4920260000000 1.0
END
