TITL C-26740-8352-86 -1.21524049270121e-05 125000 -337.793527963827 0 0 60 (C1) n - 1
REM
REM in /home/nfs/bkarasulu/CARBON/AIRSS/Generating-Clusters/AIREBO/Higher-Symm/Only-C60
REM
REM
REM
REM
REM
REM ./C.cell (28575a23ae977d3b5fae324c64b13b57)
REM
REM compiler GCC version 9.2.1 20190827 (Red Hat 9.2.1-1)
REM options -cpp -mtune=generic -march=x86-64 -g -O0 -fpre-include=/usr/include/finclude/math-vector-fortran.h
REM seed 1631630783 -1650305015 1676302335 -1181837737 1515021962 871125117 100413500 588344856 1803397955 -488933244 856711230 -1195172097 498962576 1365752687 197662265 -2131787999 1590352314 1969064802 1357914895 -1865156724 450174027 -1565194034 1932102009 154775452 -1116102829 1274766515 134369289 -93062526 1880496183 597303941 1654536455 51549027 334634092
REM
CELL 1.54180   50.00000   50.00000   50.00000   90.00000   90.00000   90.00000
LATT -1
SFAC C  
C      1  0.5188520000000  0.5162650000000  0.5407070000000 1.0
C      1  0.5075880000000  0.5418930000000  0.4739350000000 1.0
C      1  0.4538830000000  0.5042140000000  0.4932210000000 1.0
C      1  0.5661060000000  0.4662100000000  0.5565420000000 1.0
C      1  0.4745850000000  0.5253960000000  0.5051540000000 1.0
C      1  0.4743330000000  0.5058190000000  0.4558590000000 1.0
C      1  0.4914120000000  0.5183200000000  0.4308010000000 1.0
C      1  0.5579500000000  0.5303780000000  0.5154530000000 1.0
C      1  0.4362360000000  0.5091130000000  0.4446400000000 1.0
C      1  0.4447870000000  0.5322600000000  0.5200190000000 1.0
C      1  0.4586730000000  0.4709840000000  0.4986290000000 1.0
C      1  0.5397250000000  0.5173160000000  0.4615110000000 1.0
C      1  0.4519860000000  0.5474290000000  0.4172960000000 1.0
C      1  0.5194450000000  0.5162690000000  0.4886840000000 1.0
C      1  0.4679930000000  0.4818550000000  0.5454890000000 1.0
C      1  0.5655850000000  0.5013150000000  0.4994380000000 1.0
C      1  0.5160170000000  0.5673690000000  0.5242510000000 1.0
C      1  0.5632900000000  0.4990020000000  0.4715980000000 1.0
C      1  0.5115240000000  0.4324440000000  0.4723540000000 1.0
C      1  0.4844400000000  0.5326680000000  0.5521540000000 1.0
C      1  0.4808720000000  0.5056100000000  0.5392950000000 1.0
C      1  0.5057830000000  0.4837440000000  0.4446190000000 1.0
C      1  0.5321060000000  0.4665160000000  0.4990480000000 1.0
C      1  0.5552930000000  0.4959910000000  0.5595510000000 1.0
C      1  0.5635560000000  0.4729070000000  0.4622670000000 1.0
C      1  0.4352660000000  0.4710580000000  0.4733830000000 1.0
C      1  0.4864090000000  0.5507630000000  0.4899380000000 1.0
C      1  0.4313000000000  0.5277480000000  0.4887460000000 1.0
C      1  0.4466370000000  0.4785970000000  0.5277950000000 1.0
C      1  0.4209330000000  0.5241170000000  0.4638470000000 1.0
C      1  0.4883960000000  0.5624070000000  0.5171030000000 1.0
C      1  0.5344820000000  0.4705350000000  0.5632390000000 1.0
C      1  0.5043110000000  0.5122470000000  0.5709270000000 1.0
C      1  0.5063530000000  0.4810690000000  0.5752540000000 1.0
C      1  0.5580940000000  0.4769320000000  0.5110160000000 1.0
C      1  0.5175280000000  0.4524070000000  0.4452320000000 1.0
C      1  0.5335990000000  0.5282000000000  0.5757950000000 1.0
C      1  0.4734640000000  0.4735940000000  0.4381540000000 1.0
C      1  0.5145830000000  0.4501890000000  0.5176940000000 1.0
C      1  0.4432930000000  0.4818890000000  0.4485490000000 1.0
C      1  0.5571080000000  0.5367310000000  0.4831090000000 1.0
C      1  0.5018930000000  0.5111080000000  0.5143390000000 1.0
C      1  0.4599200000000  0.5258090000000  0.4322960000000 1.0
C      1  0.4708970000000  0.4405730000000  0.5006410000000 1.0
C      1  0.5412630000000  0.5500630000000  0.5611030000000 1.0
C      1  0.5119010000000  0.4566700000000  0.5442870000000 1.0
C      1  0.5393310000000  0.5528590000000  0.5329060000000 1.0
C      1  0.4691090000000  0.5499860000000  0.5360720000000 1.0
C      1  0.4820600000000  0.4803250000000  0.4763440000000 1.0
C      1  0.4978470000000  0.4357120000000  0.5004780000000 1.0
C      1  0.5389440000000  0.4549220000000  0.4692990000000 1.0
C      1  0.5464940000000  0.5142660000000  0.5405940000000 1.0
C      1  0.4234160000000  0.4894770000000  0.4965710000000 1.0
C      1  0.4869330000000  0.4521190000000  0.4596420000000 1.0
C      1  0.4858310000000  0.4648320000000  0.5591220000000 1.0
C      1  0.4292390000000  0.5034740000000  0.5245410000000 1.0
C      1  0.5144060000000  0.4861940000000  0.4783650000000 1.0
C      1  0.5108380000000  0.5401530000000  0.4461300000000 1.0
C      1  0.5234740000000  0.5101830000000  0.4353860000000 1.0
C      1  0.5724280000000  0.4615090000000  0.5295830000000 1.0
END
