TITL C-26730-8313-148 -0.00344481186276387 125000 -295.278363300996 0 0 60 (C1) n - 1
REM
REM in /home/nfs/bkarasulu/CARBON/AIRSS/Generating-Clusters/AIREBO/Higher-Symm/Only-C60
REM
REM
REM
REM
REM
REM ./C.cell (28575a23ae977d3b5fae324c64b13b57)
REM
REM compiler GCC version 9.2.1 20190827 (Red Hat 9.2.1-1)
REM options -cpp -mtune=generic -march=x86-64 -g -O0 -fpre-include=/usr/include/finclude/math-vector-fortran.h
REM seed -2029961901 1848814067 -322918761 -150057050 -122818432 423372561 -369985850 308729611 2058603151 -1977898692 -1055543147 -1091983950 -1276074824 -242718600 400642580 -280724151 -1227479520 -307315229 325775694 -96484231 452563950 -1425946130 236900029 -155256035 -1345960125 1385497391 -1843894713 -879845790 1419752638 827292242 -1922846460 118920442 1314410112
REM
CELL 1.54180   50.00000   50.00000   50.00000   90.00000   90.00000   90.00000
LATT -1
SFAC C  
C      1  0.5606170000000  0.4907900000000  0.5202650000000 1.0
C      1  0.5585900000000  0.5448020000000  0.5226760000000 1.0
C      1  0.4977670000000  0.5705250000000  0.5213850000000 1.0
C      1  0.4428050000000  0.5352960000000  0.5232470000000 1.0
C      1  0.4384020000000  0.4852620000000  0.5234280000000 1.0
C      1  0.4750560000000  0.4318910000000  0.5234870000000 1.0
C      1  0.5323560000000  0.4385370000000  0.5260050000000 1.0
C      1  0.4878440000000  0.5335840000000  0.4418460000000 1.0
C      1  0.4668650000000  0.5138530000000  0.4432420000000 1.0
C      1  0.4748720000000  0.4823700000000  0.4449080000000 1.0
C      1  0.5013740000000  0.4649520000000  0.4435180000000 1.0
C      1  0.5275430000000  0.4764030000000  0.4432520000000 1.0
C      1  0.5341870000000  0.5040230000000  0.4447470000000 1.0
C      1  0.5174060000000  0.5271100000000  0.4441990000000 1.0
C      1  0.4698540000000  0.4946740000000  0.5140170000000 1.0
C      1  0.4838300000000  0.4636730000000  0.5151420000000 1.0
C      1  0.5168970000000  0.4608880000000  0.5065120000000 1.0
C      1  0.5356520000000  0.4850690000000  0.5001460000000 1.0
C      1  0.5297860000000  0.5162650000000  0.5123430000000 1.0
C      1  0.5052170000000  0.5396010000000  0.5093450000000 1.0
C      1  0.4758310000000  0.5273820000000  0.5213830000000 1.0
C      1  0.4277720000000  0.5124270000000  0.5142980000000 1.0
C      1  0.4509550000000  0.4549890000000  0.5143480000000 1.0
C      1  0.5038830000000  0.4242410000000  0.5157200000000 1.0
C      1  0.5584650000000  0.4567510000000  0.5161680000000 1.0
C      1  0.5706470000000  0.5187400000000  0.5136830000000 1.0
C      1  0.5305350000000  0.5618740000000  0.5138340000000 1.0
C      1  0.4672620000000  0.5586810000000  0.5111750000000 1.0
C      1  0.5366510000000  0.5231400000000  0.4797130000000 1.0
C      1  0.5028850000000  0.5442390000000  0.4772070000000 1.0
C      1  0.4642440000000  0.5320610000000  0.4897500000000 1.0
C      1  0.4615530000000  0.4918810000000  0.4811980000000 1.0
C      1  0.4764270000000  0.4603730000000  0.4821100000000 1.0
C      1  0.5275070000000  0.4426870000000  0.4798170000000 1.0
C      1  0.5508590000000  0.4834700000000  0.4746320000000 1.0
C      1  0.5178290000000  0.4817800000000  0.5522650000000 1.0
C      1  0.5290370000000  0.5114500000000  0.5460170000000 1.0
C      1  0.5140920000000  0.5309360000000  0.5600640000000 1.0
C      1  0.4803680000000  0.5300590000000  0.5549900000000 1.0
C      1  0.4677810000000  0.5021860000000  0.5708370000000 1.0
C      1  0.4713350000000  0.4724020000000  0.5672680000000 1.0
C      1  0.4914760000000  0.4618070000000  0.5482350000000 1.0
C      1  0.4466640000000  0.5179440000000  0.4683420000000 1.0
C      1  0.4503850000000  0.4662890000000  0.4622700000000 1.0
C      1  0.4976870000000  0.4451640000000  0.4672570000000 1.0
C      1  0.5486790000000  0.4557470000000  0.4600860000000 1.0
C      1  0.5620770000000  0.5100660000000  0.4632770000000 1.0
C      1  0.5313490000000  0.5515860000000  0.4638890000000 1.0
C      1  0.4809230000000  0.5574450000000  0.4621480000000 1.0
C      1  0.5059710000000  0.4185050000000  0.4867220000000 1.0
C      1  0.5658700000000  0.4494130000000  0.4887510000000 1.0
C      1  0.5815160000000  0.5202920000000  0.4867640000000 1.0
C      1  0.5381790000000  0.5740820000000  0.4851540000000 1.0
C      1  0.4643660000000  0.5721300000000  0.4800780000000 1.0
C      1  0.4203790000000  0.5145510000000  0.4864460000000 1.0
C      1  0.4385570000000  0.4483400000000  0.4851460000000 1.0
C      1  0.5030710000000  0.4982300000000  0.5188170000000 1.0
C      1  0.4972140000000  0.4990860000000  0.4643520000000 1.0
C      1  0.4980870000000  0.5061740000000  0.4882440000000 1.0
C      1  0.4906810000000  0.5011980000000  0.5474710000000 1.0
END
