TITL C-26735-8354-141 0.195178786743034 125000 -329.87833121592 0 0 60 (C1) n - 1
REM
REM in /home/nfs/bkarasulu/CARBON/AIRSS/Generating-Clusters/AIREBO/Higher-Symm/Only-C60
REM
REM
REM
REM
REM
REM ./C.cell (28575a23ae977d3b5fae324c64b13b57)
REM
REM compiler GCC version 9.2.1 20190827 (Red Hat 9.2.1-1)
REM options -cpp -mtune=generic -march=x86-64 -g -O0 -fpre-include=/usr/include/finclude/math-vector-fortran.h
REM seed -962153773 380295240 296355533 216857073 678877208 -1274189686 -1575904558 953967981 -942504619 1503735357 1597233604 -407159976 -73753757 1881391710 -1956466158 1588172092 -2029722758 -410202362 1314586720 -1284329606 1181597638 405881193 -410703475 1812209036 1879379893 823475932 1196679318 621939508 -2097243667 1195910358 823847574 1079457572 1707839358
REM
CELL 1.54180   50.00000   50.00000   50.00000   90.00000   90.00000   90.00000
LATT -1
SFAC C  
C      1  0.4757680000000  0.4731040000000  0.4234320000000 1.0
C      1  0.4799240000000  0.4332110000000  0.4695790000000 1.0
C      1  0.4284300000000  0.4834820000000  0.4826330000000 1.0
C      1  0.5252170000000  0.4866660000000  0.5642520000000 1.0
C      1  0.5239060000000  0.5156260000000  0.4347760000000 1.0
C      1  0.4744460000000  0.5208840000000  0.5611270000000 1.0
C      1  0.5151200000000  0.4297980000000  0.5189230000000 1.0
C      1  0.5279630000000  0.5754660000000  0.4770790000000 1.0
C      1  0.4811720000000  0.5674250000000  0.5237470000000 1.0
C      1  0.5555170000000  0.4768750000000  0.5231270000000 1.0
C      1  0.5610990000000  0.5254900000000  0.4815520000000 1.0
C      1  0.4256780000000  0.5190810000000  0.5286570000000 1.0
C      1  0.5354130000000  0.5181690000000  0.4969020000000 1.0
C      1  0.5139100000000  0.4994950000000  0.5358130000000 1.0
C      1  0.4974060000000  0.5417790000000  0.5116220000000 1.0
C      1  0.4723750000000  0.5192030000000  0.5068870000000 1.0
C      1  0.4585900000000  0.4896790000000  0.4971300000000 1.0
C      1  0.5287590000000  0.4866320000000  0.5077270000000 1.0
C      1  0.4796040000000  0.4904420000000  0.4704040000000 1.0
C      1  0.4825240000000  0.5053570000000  0.5360820000000 1.0
C      1  0.5102770000000  0.5016310000000  0.4609710000000 1.0
C      1  0.5067150000000  0.5283960000000  0.4817750000000 1.0
C      1  0.5061440000000  0.4610760000000  0.5090540000000 1.0
C      1  0.4936150000000  0.4602790000000  0.4785460000000 1.0
C      1  0.5374090000000  0.4358180000000  0.4975030000000 1.0
C      1  0.4364270000000  0.4979720000000  0.5446290000000 1.0
C      1  0.5029130000000  0.5362050000000  0.4427880000000 1.0
C      1  0.4608900000000  0.4349980000000  0.4915430000000 1.0
C      1  0.4616910000000  0.5574620000000  0.5033160000000 1.0
C      1  0.5444420000000  0.5668010000000  0.4985460000000 1.0
C      1  0.5589590000000  0.5027970000000  0.4641060000000 1.0
C      1  0.5615680000000  0.4992310000000  0.5399830000000 1.0
C      1  0.4418460000000  0.5008560000000  0.4625350000000 1.0
C      1  0.4934950000000  0.5419830000000  0.5611440000000 1.0
C      1  0.4976420000000  0.4572400000000  0.4325580000000 1.0
C      1  0.5098750000000  0.4637400000000  0.5551910000000 1.0
C      1  0.5171390000000  0.5321000000000  0.5449940000000 1.0
C      1  0.5294130000000  0.5506330000000  0.5189970000000 1.0
C      1  0.5456250000000  0.5226200000000  0.5290340000000 1.0
C      1  0.4758640000000  0.5201150000000  0.4541350000000 1.0
C      1  0.4850530000000  0.4719210000000  0.5412320000000 1.0
C      1  0.5184210000000  0.4713070000000  0.4494520000000 1.0
C      1  0.4785680000000  0.5468590000000  0.4768090000000 1.0
C      1  0.4733600000000  0.4540770000000  0.5147560000000 1.0
C      1  0.5267590000000  0.4530170000000  0.4759450000000 1.0
C      1  0.4541030000000  0.5249150000000  0.4787590000000 1.0
C      1  0.4540480000000  0.4784800000000  0.5289150000000 1.0
C      1  0.5409320000000  0.4816950000000  0.4763350000000 1.0
C      1  0.4598730000000  0.4851320000000  0.4432240000000 1.0
C      1  0.4898430000000  0.4314580000000  0.4427770000000 1.0
C      1  0.4447760000000  0.4579490000000  0.4873060000000 1.0
C      1  0.5526780000000  0.4934810000000  0.5667740000000 1.0
C      1  0.5515830000000  0.5096570000000  0.4371520000000 1.0
C      1  0.4496100000000  0.5086090000000  0.5679650000000 1.0
C      1  0.5253360000000  0.4423730000000  0.5455020000000 1.0
C      1  0.5150170000000  0.5553780000000  0.4628090000000 1.0
C      1  0.4841710000000  0.5673140000000  0.5517820000000 1.0
C      1  0.5494580000000  0.4487050000000  0.5247540000000 1.0
C      1  0.5675620000000  0.5520620000000  0.4890900000000 1.0
C      1  0.4440770000000  0.5357970000000  0.5158670000000 1.0
END
