TITL C-26736-6558-154 0.0011548888958029 125000 -331.923092480122 0 0 60 (C1) n - 1
REM
REM in /home/nfs/bkarasulu/CARBON/AIRSS/Generating-Clusters/AIREBO/Higher-Symm/Only-C60
REM
REM
REM
REM
REM
REM ./C.cell (28575a23ae977d3b5fae324c64b13b57)
REM
REM compiler GCC version 9.2.1 20190827 (Red Hat 9.2.1-1)
REM options -cpp -mtune=generic -march=x86-64 -g -O0 -fpre-include=/usr/include/finclude/math-vector-fortran.h
REM seed -153801851 -1615845191 -1910678692 -202161736 -1847912128 381562959 -1866362626 1693340813 1135639634 -955827198 1021617958 1457582323 -698025993 1086589925 -1348723906 -380152848 1183847301 -2051143299 1871492480 -1140613481 -1161657575 -2079417382 -604741844 -1821852021 -1396032488 2137387650 -1024897526 -1690023015 559697985 -522010115 -81295153 1683873733 104722333
REM
CELL 1.54180   50.00000   50.00000   50.00000   90.00000   90.00000   90.00000
LATT -1
SFAC C  
C      1  0.5129900000000  0.5167390000000  0.5209360000000 1.0
C      1  0.5187300000000  0.4852120000000  0.4749590000000 1.0
C      1  0.4802700000000  0.5148220000000  0.5242560000000 1.0
C      1  0.4848220000000  0.4814310000000  0.4743220000000 1.0
C      1  0.5150760000000  0.5185030000000  0.4789990000000 1.0
C      1  0.5197820000000  0.4833490000000  0.5233950000000 1.0
C      1  0.4813600000000  0.5149580000000  0.4757920000000 1.0
C      1  0.4858210000000  0.4812560000000  0.5249440000000 1.0
C      1  0.4865820000000  0.4636940000000  0.4387570000000 1.0
C      1  0.4864450000000  0.5354670000000  0.5578660000000 1.0
C      1  0.5150340000000  0.4653230000000  0.4406710000000 1.0
C      1  0.5140360000000  0.5346120000000  0.5566620000000 1.0
C      1  0.4873300000000  0.4653280000000  0.5614580000000 1.0
C      1  0.4865630000000  0.5372930000000  0.4431200000000 1.0
C      1  0.5155430000000  0.4659610000000  0.5590910000000 1.0
C      1  0.5138720000000  0.5379500000000  0.4440770000000 1.0
C      1  0.4483110000000  0.5187560000000  0.4828470000000 1.0
C      1  0.4518500000000  0.4781650000000  0.5270080000000 1.0
C      1  0.5485450000000  0.5225810000000  0.4834520000000 1.0
C      1  0.5505490000000  0.4716770000000  0.5139960000000 1.0
C      1  0.4484520000000  0.5223270000000  0.5149020000000 1.0
C      1  0.4511420000000  0.4767420000000  0.4735510000000 1.0
C      1  0.5454600000000  0.5175610000000  0.5158830000000 1.0
C      1  0.5509400000000  0.4768140000000  0.4821050000000 1.0
C      1  0.5487800000000  0.4378260000000  0.5166890000000 1.0
C      1  0.5506710000000  0.5557840000000  0.4889170000000 1.0
C      1  0.4493510000000  0.4504920000000  0.5146480000000 1.0
C      1  0.4514240000000  0.5651180000000  0.4863550000000 1.0
C      1  0.5505690000000  0.4429010000000  0.4863960000000 1.0
C      1  0.5466890000000  0.5644180000000  0.5149180000000 1.0
C      1  0.4490450000000  0.4498400000000  0.4873220000000 1.0
C      1  0.4475320000000  0.5557490000000  0.5121480000000 1.0
C      1  0.4730260000000  0.5474400000000  0.4701140000000 1.0
C      1  0.4778410000000  0.4492280000000  0.5331730000000 1.0
C      1  0.5234880000000  0.5504670000000  0.4707690000000 1.0
C      1  0.5226100000000  0.4506960000000  0.5324920000000 1.0
C      1  0.4741580000000  0.5476200000000  0.5311500000000 1.0
C      1  0.4781950000000  0.4486660000000  0.4680520000000 1.0
C      1  0.5238010000000  0.5476630000000  0.5301180000000 1.0
C      1  0.5229510000000  0.4519180000000  0.4694410000000 1.0
C      1  0.4390560000000  0.4818670000000  0.4460700000000 1.0
C      1  0.4408840000000  0.5182840000000  0.5471930000000 1.0
C      1  0.5597500000000  0.4841790000000  0.4531850000000 1.0
C      1  0.5556930000000  0.5115520000000  0.5420950000000 1.0
C      1  0.4439650000000  0.4885180000000  0.5521050000000 1.0
C      1  0.4485910000000  0.5109360000000  0.4531960000000 1.0
C      1  0.5599470000000  0.4816930000000  0.5430550000000 1.0
C      1  0.5545320000000  0.5134570000000  0.4541570000000 1.0
C      1  0.5317770000000  0.5188620000000  0.4343410000000 1.0
C      1  0.5360290000000  0.4846680000000  0.5638620000000 1.0
C      1  0.4710640000000  0.5165120000000  0.4331570000000 1.0
C      1  0.4688640000000  0.4847170000000  0.5712480000000 1.0
C      1  0.5337810000000  0.5164380000000  0.5653120000000 1.0
C      1  0.5338890000000  0.4857390000000  0.4343550000000 1.0
C      1  0.4669860000000  0.5171940000000  0.5669210000000 1.0
C      1  0.4680890000000  0.4840780000000  0.4310730000000 1.0
C      1  0.5138580000000  0.4491290000000  0.5008340000000 1.0
C      1  0.5115680000000  0.5517310000000  0.5007340000000 1.0
C      1  0.4866700000000  0.4482440000000  0.5005910000000 1.0
C      1  0.4853740000000  0.5498530000000  0.5007700000000 1.0
END
