TITL C-26738-6379-23 0.00362308111879709 125000 -305.842600030163 0 0 60 (C1) n - 1
REM
REM in /home/nfs/bkarasulu/CARBON/AIRSS/Generating-Clusters/AIREBO/Higher-Symm/Only-C60
REM
REM
REM
REM
REM
REM ./C.cell (28575a23ae977d3b5fae324c64b13b57)
REM
REM compiler GCC version 9.2.1 20190827 (Red Hat 9.2.1-1)
REM options -cpp -mtune=generic -march=x86-64 -g -O0 -fpre-include=/usr/include/finclude/math-vector-fortran.h
REM seed -506874359 -1006688368 1506459331 687260095 998688458 1740344620 680773876 1052276673 852133055 -700631196 167477404 787104042 1637569784 -1527388570 360332393 -1303070167 1209371315 -667100935 -1229812734 775271669 598483335 -511469952 765350776 -462880326 -273805770 2078506747 1303805757 1878924288 1967139320 -1880479284 -1810156784 1012224823 -1572716710
REM
CELL 1.54180   50.00000   50.00000   50.00000   90.00000   90.00000   90.00000
LATT -1
SFAC C  
C      1  0.5238860000000  0.5288970000000  0.5906570000000 1.0
C      1  0.5134340000000  0.4550410000000  0.4202170000000 1.0
C      1  0.5046620000000  0.5341380000000  0.4244640000000 1.0
C      1  0.5262060000000  0.4725920000000  0.5920310000000 1.0
C      1  0.4698000000000  0.5148990000000  0.4275110000000 1.0
C      1  0.4743350000000  0.4846980000000  0.5691360000000 1.0
C      1  0.4730550000000  0.5130410000000  0.5681420000000 1.0
C      1  0.4716300000000  0.4870910000000  0.4282860000000 1.0
C      1  0.4530240000000  0.5403410000000  0.5123150000000 1.0
C      1  0.4504320000000  0.4696730000000  0.4804030000000 1.0
C      1  0.4536290000000  0.5399520000000  0.4816020000000 1.0
C      1  0.4515550000000  0.4657170000000  0.5111720000000 1.0
C      1  0.4638840000000  0.4377350000000  0.5149870000000 1.0
C      1  0.4606960000000  0.5727230000000  0.4902740000000 1.0
C      1  0.4639080000000  0.4405380000000  0.4832290000000 1.0
C      1  0.4635800000000  0.5667360000000  0.5209700000000 1.0
C      1  0.4798010000000  0.5461780000000  0.4363750000000 1.0
C      1  0.4961530000000  0.4672790000000  0.5494850000000 1.0
C      1  0.4941480000000  0.5305890000000  0.5477720000000 1.0
C      1  0.4871140000000  0.4597450000000  0.4413370000000 1.0
C      1  0.5036910000000  0.5194200000000  0.4767210000000 1.0
C      1  0.5028050000000  0.4833550000000  0.5104230000000 1.0
C      1  0.4888680000000  0.5103300000000  0.5026670000000 1.0
C      1  0.5021760000000  0.4771400000000  0.4776800000000 1.0
C      1  0.4504880000000  0.4737400000000  0.4482020000000 1.0
C      1  0.4474790000000  0.5217700000000  0.5541240000000 1.0
C      1  0.4523530000000  0.4720960000000  0.5525540000000 1.0
C      1  0.4472980000000  0.5274830000000  0.4461670000000 1.0
C      1  0.5246550000000  0.5387960000000  0.4587060000000 1.0
C      1  0.5239450000000  0.4520590000000  0.5371310000000 1.0
C      1  0.5230840000000  0.5420430000000  0.5340610000000 1.0
C      1  0.5227140000000  0.4575100000000  0.4589790000000 1.0
C      1  0.5327470000000  0.4889340000000  0.5186340000000 1.0
C      1  0.5347370000000  0.5171700000000  0.4905740000000 1.0
C      1  0.5344760000000  0.4841290000000  0.4861620000000 1.0
C      1  0.5413230000000  0.5209180000000  0.5203630000000 1.0
C      1  0.4875660000000  0.4387400000000  0.5301800000000 1.0
C      1  0.4785500000000  0.5570020000000  0.4659670000000 1.0
C      1  0.4873010000000  0.4413480000000  0.4679100000000 1.0
C      1  0.4892890000000  0.5618230000000  0.5313540000000 1.0
C      1  0.5585470000000  0.4900530000000  0.5389110000000 1.0
C      1  0.5617550000000  0.5096220000000  0.4722720000000 1.0
C      1  0.5635370000000  0.4804740000000  0.4696200000000 1.0
C      1  0.5670010000000  0.5174020000000  0.5449250000000 1.0
C      1  0.5117660000000  0.4391080000000  0.4850660000000 1.0
C      1  0.5112380000000  0.5614990000000  0.5088190000000 1.0
C      1  0.5135190000000  0.4337360000000  0.5128540000000 1.0
C      1  0.5076920000000  0.5586020000000  0.4805330000000 1.0
C      1  0.5504800000000  0.5406330000000  0.5534680000000 1.0
C      1  0.5535340000000  0.4577120000000  0.4563010000000 1.0
C      1  0.5552530000000  0.5355960000000  0.4616140000000 1.0
C      1  0.5493670000000  0.4620750000000  0.5430760000000 1.0
C      1  0.5117790000000  0.4830750000000  0.4393940000000 1.0
C      1  0.5129820000000  0.5136270000000  0.5704430000000 1.0
C      1  0.5142250000000  0.4861290000000  0.5712660000000 1.0
C      1  0.5161800000000  0.5120300000000  0.4394880000000 1.0
C      1  0.4694630000000  0.5171970000000  0.5285830000000 1.0
C      1  0.4749270000000  0.4869280000000  0.4679850000000 1.0
C      1  0.4720350000000  0.5175620000000  0.4672910000000 1.0
C      1  0.4742430000000  0.4835330000000  0.5291690000000 1.0
END
