TITL C-26734-8308-41 -0.00178694475547638 125000 -318.118313021867 0 0 60 (C1) n - 1
REM
REM in /home/nfs/bkarasulu/CARBON/AIRSS/Generating-Clusters/AIREBO/Higher-Symm/Only-C60
REM
REM
REM
REM
REM
REM ./C.cell (28575a23ae977d3b5fae324c64b13b57)
REM
REM compiler GCC version 9.2.1 20190827 (Red Hat 9.2.1-1)
REM options -cpp -mtune=generic -march=x86-64 -g -O0 -fpre-include=/usr/include/finclude/math-vector-fortran.h
REM seed -1125863638 -345614654 -28217632 -856411812 1718857444 383201863 166106541 -1115688711 -239431254 -2065009460 -165718768 -308968253 -1120447171 -1451087715 -1926767306 2001207224 -745683193 -1380488446 1215097731 -32028375 -1051786495 657232801 -752022493 -153613185 -890295933 1579079511 -2143654477 519703088 -2074051645 -799085307 -1958168637 208021142 -1826808148
REM
CELL 1.54180   50.00000   50.00000   50.00000   90.00000   90.00000   90.00000
LATT -1
SFAC C  
C      1  0.4558950000000  0.5047170000000  0.5570370000000 1.0
C      1  0.4568130000000  0.4379050000000  0.5007290000000 1.0
C      1  0.4552240000000  0.4976350000000  0.4412290000000 1.0
C      1  0.4565370000000  0.5613910000000  0.4982070000000 1.0
C      1  0.5414330000000  0.5040240000000  0.5559450000000 1.0
C      1  0.5446860000000  0.4368300000000  0.5034300000000 1.0
C      1  0.5423070000000  0.4981780000000  0.4413970000000 1.0
C      1  0.5441770000000  0.5615770000000  0.4966020000000 1.0
C      1  0.5555260000000  0.4819810000000  0.5339270000000 1.0
C      1  0.5591910000000  0.4534640000000  0.4771830000000 1.0
C      1  0.5555550000000  0.5170840000000  0.4675520000000 1.0
C      1  0.5579310000000  0.5477460000000  0.5244520000000 1.0
C      1  0.4472170000000  0.4825380000000  0.5322620000000 1.0
C      1  0.4447880000000  0.4620880000000  0.4798130000000 1.0
C      1  0.4484950000000  0.5160200000000  0.4701430000000 1.0
C      1  0.4386060000000  0.5481670000000  0.5238950000000 1.0
C      1  0.4741370000000  0.4514300000000  0.4674930000000 1.0
C      1  0.4768640000000  0.5270500000000  0.4567000000000 1.0
C      1  0.4716700000000  0.5439020000000  0.5306060000000 1.0
C      1  0.4766290000000  0.4736320000000  0.5436230000000 1.0
C      1  0.5253930000000  0.4558430000000  0.4742930000000 1.0
C      1  0.5273160000000  0.5320340000000  0.4558440000000 1.0
C      1  0.5242430000000  0.5433030000000  0.5258180000000 1.0
C      1  0.5263670000000  0.4687670000000  0.5454100000000 1.0
C      1  0.4831210000000  0.5725300000000  0.5173080000000 1.0
C      1  0.4851990000000  0.4900340000000  0.5692890000000 1.0
C      1  0.4832850000000  0.4247960000000  0.4827560000000 1.0
C      1  0.4850490000000  0.5118250000000  0.4302640000000 1.0
C      1  0.5142730000000  0.5709960000000  0.5107280000000 1.0
C      1  0.5174960000000  0.4846500000000  0.5719590000000 1.0
C      1  0.5146110000000  0.4278540000000  0.4893970000000 1.0
C      1  0.5175650000000  0.5177330000000  0.4280590000000 1.0
C      1  0.4849400000000  0.5718140000000  0.4837320000000 1.0
C      1  0.4804090000000  0.5236920000000  0.5686090000000 1.0
C      1  0.4850790000000  0.4284300000000  0.5162610000000 1.0
C      1  0.4807170000000  0.4781340000000  0.4317450000000 1.0
C      1  0.5189500000000  0.5707830000000  0.4770500000000 1.0
C      1  0.5137750000000  0.5179070000000  0.5689290000000 1.0
C      1  0.5189000000000  0.4291670000000  0.5231010000000 1.0
C      1  0.5139520000000  0.4842580000000  0.4304550000000 1.0
C      1  0.4859290000000  0.5100510000000  0.4827920000000 1.0
C      1  0.4809290000000  0.5211250000000  0.5130570000000 1.0
C      1  0.4863180000000  0.4882580000000  0.5161460000000 1.0
C      1  0.4812620000000  0.4773460000000  0.4847090000000 1.0
C      1  0.5178530000000  0.5133660000000  0.4792920000000 1.0
C      1  0.5130630000000  0.5175380000000  0.5111670000000 1.0
C      1  0.5185670000000  0.4859370000000  0.5198500000000 1.0
C      1  0.5134660000000  0.4815870000000  0.4876970000000 1.0
C      1  0.4455510000000  0.5295450000000  0.4961900000000 1.0
C      1  0.4442040000000  0.5150780000000  0.5271530000000 1.0
C      1  0.4378320000000  0.4626200000000  0.5130070000000 1.0
C      1  0.4352940000000  0.4855650000000  0.4650360000000 1.0
C      1  0.5547230000000  0.5292620000000  0.4958530000000 1.0
C      1  0.5543580000000  0.5151570000000  0.5273650000000 1.0
C      1  0.5558330000000  0.4680570000000  0.5077090000000 1.0
C      1  0.5536310000000  0.4835220000000  0.4684000000000 1.0
C      1  0.4986200000000  0.5462920000000  0.4672690000000 1.0
C      1  0.5009190000000  0.5406860000000  0.5476780000000 1.0
C      1  0.4984850000000  0.4539360000000  0.5327780000000 1.0
C      1  0.5020540000000  0.4631650000000  0.4536200000000 1.0
END
