TITL C-26733-8285-197 0.000611139902567307 125000 -333.468582263299 0 0 60 (C1) n - 1
REM
REM in /home/nfs/bkarasulu/CARBON/AIRSS/Generating-Clusters/AIREBO/Higher-Symm/Only-C60
REM
REM
REM
REM
REM
REM ./C.cell (28575a23ae977d3b5fae324c64b13b57)
REM
REM compiler GCC version 9.2.1 20190827 (Red Hat 9.2.1-1)
REM options -cpp -mtune=generic -march=x86-64 -g -O0 -fpre-include=/usr/include/finclude/math-vector-fortran.h
REM seed -1158887464 1990574622 1752754649 576544377 -1797614804 1145027723 1562694646 114154091 -1327507926 335918234 784081116 -1476075436 -1776553867 2067884622 345454895 312084712 -127654966 -2134803185 2013699474 -107344895 -897121034 -845209377 -197919500 -1515607560 -196197738 -470183548 509778869 -1436171982 450183168 -704408194 -344843824 41876160 27915038
REM
CELL 1.54180   50.00000   50.00000   50.00000   90.00000   90.00000   90.00000
LATT -1
SFAC C  
C      1  0.4559090000000  0.4776280000000  0.4846500000000 1.0
C      1  0.4737930000000  0.4836140000000  0.5364600000000 1.0
C      1  0.5312630000000  0.4723430000000  0.5354530000000 1.0
C      1  0.5434000000000  0.4785930000000  0.4848350000000 1.0
C      1  0.4997790000000  0.4733990000000  0.4475520000000 1.0
C      1  0.5014510000000  0.4497710000000  0.4708630000000 1.0
C      1  0.4736590000000  0.4506550000000  0.4878070000000 1.0
C      1  0.4817820000000  0.4561220000000  0.5189020000000 1.0
C      1  0.5128900000000  0.4492300000000  0.5225820000000 1.0
C      1  0.5264390000000  0.4509960000000  0.4924120000000 1.0
C      1  0.5140040000000  0.5409160000000  0.4484880000000 1.0
C      1  0.4373610000000  0.5392520000000  0.4683960000000 1.0
C      1  0.4601230000000  0.5478470000000  0.5425110000000 1.0
C      1  0.5252340000000  0.5439350000000  0.5491200000000 1.0
C      1  0.5699580000000  0.5431010000000  0.4913120000000 1.0
C      1  0.4950980000000  0.5095480000000  0.5333010000000 1.0
C      1  0.5215280000000  0.5012310000000  0.5203700000000 1.0
C      1  0.5228780000000  0.5056610000000  0.4866000000000 1.0
C      1  0.4946770000000  0.4965100000000  0.4720610000000 1.0
C      1  0.4702630000000  0.5078200000000  0.4910180000000 1.0
C      1  0.5512710000000  0.5576320000000  0.5049000000000 1.0
C      1  0.5278230000000  0.5624430000000  0.4654780000000 1.0
C      1  0.4587950000000  0.5560350000000  0.4677080000000 1.0
C      1  0.4555680000000  0.5538340000000  0.5143390000000 1.0
C      1  0.5011400000000  0.5586310000000  0.5572880000000 1.0
C      1  0.4913660000000  0.5429430000000  0.5280720000000 1.0
C      1  0.5231260000000  0.5490140000000  0.5175250000000 1.0
C      1  0.5170890000000  0.5391480000000  0.4882910000000 1.0
C      1  0.4904050000000  0.5509380000000  0.4708220000000 1.0
C      1  0.4781750000000  0.5373170000000  0.4972340000000 1.0
C      1  0.5462290000000  0.4675190000000  0.4556270000000 1.0
C      1  0.4718790000000  0.4615510000000  0.4379970000000 1.0
C      1  0.4441310000000  0.4675140000000  0.5116910000000 1.0
C      1  0.4846850000000  0.4632950000000  0.5607860000000 1.0
C      1  0.5601550000000  0.4620380000000  0.5283500000000 1.0
C      1  0.4328920000000  0.5128710000000  0.4774420000000 1.0
C      1  0.4560350000000  0.5273930000000  0.5615380000000 1.0
C      1  0.5359060000000  0.5196630000000  0.5567810000000 1.0
C      1  0.5673370000000  0.5177290000000  0.4792550000000 1.0
C      1  0.5037130000000  0.5216730000000  0.4308800000000 1.0
C      1  0.5436900000000  0.5145340000000  0.4612070000000 1.0
C      1  0.4803610000000  0.5078340000000  0.4433190000000 1.0
C      1  0.4398270000000  0.5068650000000  0.5061460000000 1.0
C      1  0.4796450000000  0.5125470000000  0.5634380000000 1.0
C      1  0.5519510000000  0.5064790000000  0.5346980000000 1.0
C      1  0.5693220000000  0.4931030000000  0.4942500000000 1.0
C      1  0.5163460000000  0.4938680000000  0.4306690000000 1.0
C      1  0.4402240000000  0.4899610000000  0.4600040000000 1.0
C      1  0.4338410000000  0.5101420000000  0.5564810000000 1.0
C      1  0.5234050000000  0.4924540000000  0.5592930000000 1.0
C      1  0.5296690000000  0.4457040000000  0.4529510000000 1.0
C      1  0.4650430000000  0.4418890000000  0.4564150000000 1.0
C      1  0.4518550000000  0.4399980000000  0.5195840000000 1.0
C      1  0.4994380000000  0.4421280000000  0.5518210000000 1.0
C      1  0.5551510000000  0.4435080000000  0.5079980000000 1.0
C      1  0.5426150000000  0.4930070000000  0.4420080000000 1.0
C      1  0.4592240000000  0.4886520000000  0.4388170000000 1.0
C      1  0.4418900000000  0.4915140000000  0.5334350000000 1.0
C      1  0.4970460000000  0.4893990000000  0.5684960000000 1.0
C      1  0.5702460000000  0.4890620000000  0.5222740000000 1.0
END
