TITL C-26740-8352-165 0.00206435018675134 125000 -318.154892408785 0 0 60 (C1) n - 1
REM
REM in /home/nfs/bkarasulu/CARBON/AIRSS/Generating-Clusters/AIREBO/Higher-Symm/Only-C60
REM
REM
REM
REM
REM
REM ./C.cell (28575a23ae977d3b5fae324c64b13b57)
REM
REM compiler GCC version 9.2.1 20190827 (Red Hat 9.2.1-1)
REM options -cpp -mtune=generic -march=x86-64 -g -O0 -fpre-include=/usr/include/finclude/math-vector-fortran.h
REM seed 274790496 -1169293355 1837358775 451095563 -1218852621 -1812387616 -1073139208 -255628430 1154225971 1918840252 1049964626 1351788669 -1807419574 79743190 -871424049 -1093927216 -535732071 -1662843045 -461884655 1696679254 1082668654 1703690698 70958818 -1637433316 -1886189371 -514555980 713546362 -1742570809 1757982697 634075019 201422996 469936578 1872287394
REM
CELL 1.54180   50.00000   50.00000   50.00000   90.00000   90.00000   90.00000
LATT -1
SFAC C  
C      1  0.5473340000000  0.4658870000000  0.4620490000000 1.0
C      1  0.5656070000000  0.4703550000000  0.5322020000000 1.0
C      1  0.5401050000000  0.4713460000000  0.5543150000000 1.0
C      1  0.4830270000000  0.4706490000000  0.5623250000000 1.0
C      1  0.4366320000000  0.4699060000000  0.4969790000000 1.0
C      1  0.4399320000000  0.4723820000000  0.4497240000000 1.0
C      1  0.5054740000000  0.4670640000000  0.4348570000000 1.0
C      1  0.5151930000000  0.5247620000000  0.4299970000000 1.0
C      1  0.5606690000000  0.5240090000000  0.4697170000000 1.0
C      1  0.5680320000000  0.5264460000000  0.5290990000000 1.0
C      1  0.5190660000000  0.5286630000000  0.5653100000000 1.0
C      1  0.4575050000000  0.5266410000000  0.5561240000000 1.0
C      1  0.4320140000000  0.5274930000000  0.5033810000000 1.0
C      1  0.4581010000000  0.5288750000000  0.4472050000000 1.0
C      1  0.5485390000000  0.4951420000000  0.4574530000000 1.0
C      1  0.5669950000000  0.4955000000000  0.5155830000000 1.0
C      1  0.5341020000000  0.5010880000000  0.5547380000000 1.0
C      1  0.4770830000000  0.5000750000000  0.5602470000000 1.0
C      1  0.4357730000000  0.4966600000000  0.5165520000000 1.0
C      1  0.4460310000000  0.5014200000000  0.4605450000000 1.0
C      1  0.4968580000000  0.4975690000000  0.4347990000000 1.0
C      1  0.4927000000000  0.5753860000000  0.5353810000000 1.0
C      1  0.4708510000000  0.5917310000000  0.5255220000000 1.0
C      1  0.4640060000000  0.5801520000000  0.4999320000000 1.0
C      1  0.4789510000000  0.5874610000000  0.4768180000000 1.0
C      1  0.5100490000000  0.5907540000000  0.4743820000000 1.0
C      1  0.5263700000000  0.5916290000000  0.4965940000000 1.0
C      1  0.5179910000000  0.5832710000000  0.5265340000000 1.0
C      1  0.5191320000000  0.5387340000000  0.4843610000000 1.0
C      1  0.5324120000000  0.5610450000000  0.5065980000000 1.0
C      1  0.5147990000000  0.5349060000000  0.5166880000000 1.0
C      1  0.4856380000000  0.5442100000000  0.5273160000000 1.0
C      1  0.4659710000000  0.5516230000000  0.5033460000000 1.0
C      1  0.4793210000000  0.5376800000000  0.4819570000000 1.0
C      1  0.4993440000000  0.5597980000000  0.4688150000000 1.0
C      1  0.5374170000000  0.4526050000000  0.5253860000000 1.0
C      1  0.5097640000000  0.4628640000000  0.5428000000000 1.0
C      1  0.4797150000000  0.4676030000000  0.5275690000000 1.0
C      1  0.4526420000000  0.4647970000000  0.4750520000000 1.0
C      1  0.4830900000000  0.4662320000000  0.4734590000000 1.0
C      1  0.5149330000000  0.4558150000000  0.4643090000000 1.0
C      1  0.5324920000000  0.4603420000000  0.4930880000000 1.0
C      1  0.4657800000000  0.4937210000000  0.5101410000000 1.0
C      1  0.4721940000000  0.5065810000000  0.4808230000000 1.0
C      1  0.4976950000000  0.4953570000000  0.4661400000000 1.0
C      1  0.5234120000000  0.5095440000000  0.4752630000000 1.0
C      1  0.5410290000000  0.4930660000000  0.4966060000000 1.0
C      1  0.5303220000000  0.5085270000000  0.5243970000000 1.0
C      1  0.4839520000000  0.5116310000000  0.5303640000000 1.0
C      1  0.4365410000000  0.5237660000000  0.5369530000000 1.0
C      1  0.4404560000000  0.5304830000000  0.4766100000000 1.0
C      1  0.4810910000000  0.5260720000000  0.4310740000000 1.0
C      1  0.5403530000000  0.5240360000000  0.4421950000000 1.0
C      1  0.5709540000000  0.5222390000000  0.4953830000000 1.0
C      1  0.5502140000000  0.5302380000000  0.5512360000000 1.0
C      1  0.4905010000000  0.5300610000000  0.5652400000000 1.0
C      1  0.4826260000000  0.4108590000000  0.5142790000000 1.0
C      1  0.4999420000000  0.4638450000000  0.5004930000000 1.0
C      1  0.4873510000000  0.4357120000000  0.5148780000000 1.0
C      1  0.5051000000000  0.4949130000000  0.5133130000000 1.0
END
