TITL C-26733-8285-92 -216.678712657613 125000 -324.335614218758 0 0 60 (C2) n - 1
REM
REM in /home/nfs/bkarasulu/CARBON/AIRSS/Generating-Clusters/AIREBO/Higher-Symm/Only-C60
REM
REM
REM
REM
REM
REM ./C.cell (28575a23ae977d3b5fae324c64b13b57)
REM
REM compiler GCC version 9.2.1 20190827 (Red Hat 9.2.1-1)
REM options -cpp -mtune=generic -march=x86-64 -g -O0 -fpre-include=/usr/include/finclude/math-vector-fortran.h
REM seed 1858301216 -1126192994 -282420329 -1323274754 -781055593 -440980883 -1887865784 589371544 1647811313 -1242458397 1989058405 -1272781105 1105907158 730122343 -981559745 -1086960634 -1921925111 -926828664 -1209913466 -1144792066 1107154856 -1287117875 1811412878 842746802 -1190681926 -2017264467 -120022345 816667716 1382191584 -987940983 1401097098 -1169407581 708179136
REM
CELL 1.54180   50.00000   50.00000   50.00000   90.00000   90.00000   90.00000
LATT -1
SFAC C  
C      1  0.4984630000000  0.4305420000000  0.5121350000000 1.0
C      1  0.4400720000000  0.4817650000000  0.5094430000000 1.0
C      1  0.4611890000000  0.5603840000000  0.5107560000000 1.0
C      1  0.5437310000000  0.5547700000000  0.5147540000000 1.0
C      1  0.5598860000000  0.4786370000000  0.5110080000000 1.0
C      1  0.4959300000000  0.5716700000000  0.4892360000000 1.0
C      1  0.4323380000000  0.5185490000000  0.4852620000000 1.0
C      1  0.4640900000000  0.4474480000000  0.4890010000000 1.0
C      1  0.5420830000000  0.4447070000000  0.4879010000000 1.0
C      1  0.5590860000000  0.5204870000000  0.4905840000000 1.0
C      1  0.4710160000000  0.4940240000000  0.4442750000000 1.0
C      1  0.4850020000000  0.5243090000000  0.4473870000000 1.0
C      1  0.5179260000000  0.5197480000000  0.4517130000000 1.0
C      1  0.5239710000000  0.4867430000000  0.4468940000000 1.0
C      1  0.4951460000000  0.4709050000000  0.4479430000000 1.0
C      1  0.4738970000000  0.5054390000000  0.5482930000000 1.0
C      1  0.4884010000000  0.4751820000000  0.5531420000000 1.0
C      1  0.5210450000000  0.4793360000000  0.5520030000000 1.0
C      1  0.5268750000000  0.5121390000000  0.5557980000000 1.0
C      1  0.4978150000000  0.5284520000000  0.5526340000000 1.0
C      1  0.5047000000000  0.4376550000000  0.4532330000000 1.0
C      1  0.4421180000000  0.4763560000000  0.4507560000000 1.0
C      1  0.4590370000000  0.5449800000000  0.4545790000000 1.0
C      1  0.5291680000000  0.5522450000000  0.4570170000000 1.0
C      1  0.5575380000000  0.4839860000000  0.4523330000000 1.0
C      1  0.5067410000000  0.5603970000000  0.5453640000000 1.0
C      1  0.4456960000000  0.5250460000000  0.5429560000000 1.0
C      1  0.4628660000000  0.4532270000000  0.5476790000000 1.0
C      1  0.5328480000000  0.4468140000000  0.5468060000000 1.0
C      1  0.5609560000000  0.5148930000000  0.5492500000000 1.0
C      1  0.5532500000000  0.4852400000000  0.5428210000000 1.0
C      1  0.5017130000000  0.4460100000000  0.5417430000000 1.0
C      1  0.4510200000000  0.4813880000000  0.5408800000000 1.0
C      1  0.4708530000000  0.5440120000000  0.5389460000000 1.0
C      1  0.5337350000000  0.5437970000000  0.5449120000000 1.0
C      1  0.5505760000000  0.5137450000000  0.4591070000000 1.0
C      1  0.4977030000000  0.5527420000000  0.4610460000000 1.0
C      1  0.4468940000000  0.5157550000000  0.4551350000000 1.0
C      1  0.4656630000000  0.4567180000000  0.4572040000000 1.0
C      1  0.5303530000000  0.4553210000000  0.4582990000000 1.0
C      1  0.5591830000000  0.4807430000000  0.4861410000000 1.0
C      1  0.5013130000000  0.4333100000000  0.4867860000000 1.0
C      1  0.4405700000000  0.4794860000000  0.4845790000000 1.0
C      1  0.4603020000000  0.5540720000000  0.4852810000000 1.0
C      1  0.5375200000000  0.5540270000000  0.4899280000000 1.0
C      1  0.5601670000000  0.5183810000000  0.5154350000000 1.0
C      1  0.5003660000000  0.5670480000000  0.5147020000000 1.0
C      1  0.4378310000000  0.5215820000000  0.5100610000000 1.0
C      1  0.4634230000000  0.4496020000000  0.5138750000000 1.0
C      1  0.5381460000000  0.4452790000000  0.5132540000000 1.0
C      1  0.5643450000000  0.4540500000000  0.4644650000000 1.0
C      1  0.4757570000000  0.4256340000000  0.4656460000000 1.0
C      1  0.4193770000000  0.4968880000000  0.4630760000000 1.0
C      1  0.4743690000000  0.5774260000000  0.4649560000000 1.0
C      1  0.5607080000000  0.5448430000000  0.4668140000000 1.0
C      1  0.5672000000000  0.5446770000000  0.5365760000000 1.0
C      1  0.4752740000000  0.5776870000000  0.5350390000000 1.0
C      1  0.4244770000000  0.5005500000000  0.5332060000000 1.0
C      1  0.4749660000000  0.4249980000000  0.5355740000000 1.0
C      1  0.5633170000000  0.4541550000000  0.5343810000000 1.0
END
