TITL C-26741-8371-88 0.00315189633215384 125000 -325.793528462875 0 0 60 (C1) n - 1
REM
REM in /home/nfs/bkarasulu/CARBON/AIRSS/Generating-Clusters/AIREBO/Higher-Symm/Only-C60
REM
REM
REM
REM
REM
REM ./C.cell (28575a23ae977d3b5fae324c64b13b57)
REM
REM compiler GCC version 9.2.1 20190827 (Red Hat 9.2.1-1)
REM options -cpp -mtune=generic -march=x86-64 -g -O0 -fpre-include=/usr/include/finclude/math-vector-fortran.h
REM seed 460109831 -450403313 -1386069819 -809372313 1229224184 2125029742 -562046054 -1047498290 440822600 974086678 1528051415 -117954615 1986327929 -1291955056 430160780 -1326879424 -2034589559 -1962278841 -956646286 1132370642 -1852424451 -2102592125 -2056290385 577684588 -546341447 1116538649 1240826195 -327277511 -165391019 -563793783 -1047153952 760230522 888638269
REM
CELL 1.54180   50.00000   50.00000   50.00000   90.00000   90.00000   90.00000
LATT -1
SFAC C  
C      1  0.4870130000000  0.5465220000000  0.4781340000000 1.0
C      1  0.4813130000000  0.4596010000000  0.5279120000000 1.0
C      1  0.5195560000000  0.5368570000000  0.4800620000000 1.0
C      1  0.5142790000000  0.4627390000000  0.5223780000000 1.0
C      1  0.5657570000000  0.4680690000000  0.4982650000000 1.0
C      1  0.5574260000000  0.5276860000000  0.5173990000000 1.0
C      1  0.4403580000000  0.4800630000000  0.4870470000000 1.0
C      1  0.4369960000000  0.5277690000000  0.5191790000000 1.0
C      1  0.4899990000000  0.5866480000000  0.5120570000000 1.0
C      1  0.4853430000000  0.4173010000000  0.4942750000000 1.0
C      1  0.5184060000000  0.5826570000000  0.5018840000000 1.0
C      1  0.5132370000000  0.4114070000000  0.4945770000000 1.0
C      1  0.5293170000000  0.4868180000000  0.5344840000000 1.0
C      1  0.5336530000000  0.5140840000000  0.4656670000000 1.0
C      1  0.4622770000000  0.4814990000000  0.5359080000000 1.0
C      1  0.4628300000000  0.5274110000000  0.4528050000000 1.0
C      1  0.4721160000000  0.5249970000000  0.5002850000000 1.0
C      1  0.4849720000000  0.4593870000000  0.4960930000000 1.0
C      1  0.5049680000000  0.5242160000000  0.5059540000000 1.0
C      1  0.5143950000000  0.4686640000000  0.4886300000000 1.0
C      1  0.5380820000000  0.5746760000000  0.5226530000000 1.0
C      1  0.5296290000000  0.4229500000000  0.4752770000000 1.0
C      1  0.4715810000000  0.5743780000000  0.5298020000000 1.0
C      1  0.4723690000000  0.4278090000000  0.4718540000000 1.0
C      1  0.4247730000000  0.5379180000000  0.4910890000000 1.0
C      1  0.4202290000000  0.4682520000000  0.5115810000000 1.0
C      1  0.5720620000000  0.5354220000000  0.4927340000000 1.0
C      1  0.5745730000000  0.4677680000000  0.5276460000000 1.0
C      1  0.5575900000000  0.4743000000000  0.5458710000000 1.0
C      1  0.5638860000000  0.5266810000000  0.4700810000000 1.0
C      1  0.4310500000000  0.4687130000000  0.5350810000000 1.0
C      1  0.4346760000000  0.5339620000000  0.4681760000000 1.0
C      1  0.4871880000000  0.4701330000000  0.4408750000000 1.0
C      1  0.4847940000000  0.5313600000000  0.5568030000000 1.0
C      1  0.5162930000000  0.4649600000000  0.4427280000000 1.0
C      1  0.5157350000000  0.5403060000000  0.5516210000000 1.0
C      1  0.5261400000000  0.4367980000000  0.5348620000000 1.0
C      1  0.5034060000000  0.5719470000000  0.4519860000000 1.0
C      1  0.5356390000000  0.4379920000000  0.5606020000000 1.0
C      1  0.4834230000000  0.5507860000000  0.4453660000000 1.0
C      1  0.5240620000000  0.4126870000000  0.5206560000000 1.0
C      1  0.5197820000000  0.5690390000000  0.4763040000000 1.0
C      1  0.4754710000000  0.4281110000000  0.5190940000000 1.0
C      1  0.4816770000000  0.5773820000000  0.4850410000000 1.0
C      1  0.4698350000000  0.4506530000000  0.4497160000000 1.0
C      1  0.4603880000000  0.5445690000000  0.5422790000000 1.0
C      1  0.5319980000000  0.4453250000000  0.4530650000000 1.0
C      1  0.5482740000000  0.5503730000000  0.5449900000000 1.0
C      1  0.5110450000000  0.5100700000000  0.5362710000000 1.0
C      1  0.5121230000000  0.4906910000000  0.4641620000000 1.0
C      1  0.4777130000000  0.5101300000000  0.5316130000000 1.0
C      1  0.4810550000000  0.4987880000000  0.4526380000000 1.0
C      1  0.5269860000000  0.5426720000000  0.5196170000000 1.0
C      1  0.5428310000000  0.4525330000000  0.4843280000000 1.0
C      1  0.4559290000000  0.5530060000000  0.5107600000000 1.0
C      1  0.4585100000000  0.4574040000000  0.4798120000000 1.0
C      1  0.4438370000000  0.5000960000000  0.5142350000000 1.0
C      1  0.4599670000000  0.5046640000000  0.4781000000000 1.0
C      1  0.5523290000000  0.4983150000000  0.5145540000000 1.0
C      1  0.5488580000000  0.4919890000000  0.4830850000000 1.0
END
