TITL C-26736-6558-12 0.00194689988316034 125000 -321.624811694718 0 0 60 (C1) n - 1
REM
REM in /home/nfs/bkarasulu/CARBON/AIRSS/Generating-Clusters/AIREBO/Higher-Symm/Only-C60
REM
REM
REM
REM
REM
REM ./C.cell (28575a23ae977d3b5fae324c64b13b57)
REM
REM compiler GCC version 9.2.1 20190827 (Red Hat 9.2.1-1)
REM options -cpp -mtune=generic -march=x86-64 -g -O0 -fpre-include=/usr/include/finclude/math-vector-fortran.h
REM seed -859205520 1239012335 1780676058 -300506396 -1537074172 651631116 -1418102289 81270348 -1029921364 1231604961 -772867756 2031799720 188415846 652933322 1150944758 1430119538 903847737 -1331149558 -2041812617 1661718943 -880090571 1450604772 898692131 -1519606814 -46573041 533251627 1669849770 1657156690 -417298347 1095256001 -557218193 1536569561 -254695323
REM
CELL 1.54180   50.00000   50.00000   50.00000   90.00000   90.00000   90.00000
LATT -1
SFAC C  
C      1  0.5225940000000  0.4334050000000  0.4829740000000 1.0
C      1  0.5587090000000  0.4720130000000  0.4876360000000 1.0
C      1  0.5512990000000  0.5233690000000  0.4902860000000 1.0
C      1  0.5055020000000  0.5541480000000  0.4972450000000 1.0
C      1  0.4641070000000  0.5495600000000  0.4915910000000 1.0
C      1  0.4444040000000  0.4896980000000  0.4888130000000 1.0
C      1  0.4749750000000  0.4461280000000  0.4982220000000 1.0
C      1  0.5582890000000  0.4950450000000  0.5034230000000 1.0
C      1  0.5336570000000  0.5402000000000  0.5089990000000 1.0
C      1  0.4795190000000  0.5558300000000  0.5191550000000 1.0
C      1  0.4512530000000  0.5200110000000  0.4974330000000 1.0
C      1  0.4562570000000  0.4680400000000  0.5111640000000 1.0
C      1  0.5025260000000  0.4452550000000  0.5060510000000 1.0
C      1  0.5443630000000  0.4507220000000  0.5000160000000 1.0
C      1  0.5017550000000  0.5672320000000  0.4660830000000 1.0
C      1  0.4460200000000  0.5456890000000  0.4628430000000 1.0
C      1  0.4295370000000  0.4858170000000  0.4577560000000 1.0
C      1  0.4684180000000  0.4409230000000  0.4703830000000 1.0
C      1  0.5287980000000  0.4319920000000  0.4507560000000 1.0
C      1  0.5612010000000  0.4759560000000  0.4591730000000 1.0
C      1  0.5525560000000  0.5314220000000  0.4588120000000 1.0
C      1  0.5042690000000  0.4579680000000  0.4682350000000 1.0
C      1  0.5220070000000  0.4794160000000  0.4530320000000 1.0
C      1  0.5315450000000  0.5015060000000  0.4745270000000 1.0
C      1  0.5156640000000  0.5311350000000  0.4740570000000 1.0
C      1  0.4818370000000  0.5298310000000  0.4708110000000 1.0
C      1  0.4651670000000  0.5017540000000  0.4647390000000 1.0
C      1  0.4821520000000  0.4762440000000  0.4521620000000 1.0
C      1  0.4858100000000  0.4798380000000  0.5638840000000 1.0
C      1  0.5133560000000  0.4715120000000  0.5746970000000 1.0
C      1  0.5310880000000  0.4930610000000  0.5787010000000 1.0
C      1  0.5233650000000  0.5210880000000  0.5863100000000 1.0
C      1  0.4995900000000  0.5367850000000  0.5827510000000 1.0
C      1  0.4730080000000  0.5287300000000  0.5715680000000 1.0
C      1  0.4658470000000  0.5011670000000  0.5739170000000 1.0
C      1  0.5315810000000  0.5215660000000  0.5358730000000 1.0
C      1  0.5011160000000  0.5319090000000  0.5299980000000 1.0
C      1  0.4712900000000  0.5168840000000  0.5222800000000 1.0
C      1  0.4495860000000  0.4932540000000  0.5319480000000 1.0
C      1  0.4967200000000  0.4767930000000  0.5314130000000 1.0
C      1  0.5248080000000  0.4612170000000  0.5261860000000 1.0
C      1  0.5418850000000  0.4907210000000  0.5285990000000 1.0
C      1  0.4655690000000  0.5404600000000  0.5461020000000 1.0
C      1  0.4427740000000  0.4946520000000  0.5581120000000 1.0
C      1  0.4693330000000  0.4601740000000  0.5415670000000 1.0
C      1  0.5243490000000  0.4514840000000  0.5582690000000 1.0
C      1  0.5521860000000  0.4918360000000  0.5593000000000 1.0
C      1  0.5416580000000  0.5300510000000  0.5641290000000 1.0
C      1  0.5021720000000  0.5520150000000  0.5568240000000 1.0
C      1  0.4521310000000  0.4646260000000  0.4578880000000 1.0
C      1  0.4950590000000  0.4282490000000  0.4545650000000 1.0
C      1  0.5417490000000  0.4565390000000  0.4436710000000 1.0
C      1  0.5637940000000  0.5041960000000  0.4510170000000 1.0
C      1  0.5311270000000  0.5541200000000  0.4550620000000 1.0
C      1  0.4750340000000  0.5588480000000  0.4544460000000 1.0
C      1  0.4383540000000  0.5185850000000  0.4599210000000 1.0
C      1  0.4925070000000  0.4959400000000  0.5097680000000 1.0
C      1  0.5033720000000  0.5159740000000  0.4211890000000 1.0
C      1  0.5013900000000  0.5033260000000  0.4486060000000 1.0
C      1  0.5000360000000  0.4958180000000  0.4818590000000 1.0
END
