TITL C-26727-7196-2 5.74618917729588e-05 125000 -291.922081399399 0 0 60 (C1) n - 1
REM
REM in /home/nfs/bkarasulu/CARBON/AIRSS/Generating-Clusters/AIREBO/Higher-Symm/Only-C60
REM
REM
REM
REM
REM
REM ./C.cell (28575a23ae977d3b5fae324c64b13b57)
REM
REM compiler GCC version 9.2.1 20190827 (Red Hat 9.2.1-1)
REM options -cpp -mtune=generic -march=x86-64 -g -O0 -fpre-include=/usr/include/finclude/math-vector-fortran.h
REM seed -225539930 1680568286 555120767 473438526 -1456503301 -1059112220 1037255716 421092107 -1497826587 -493385781 1071802012 1567788657 893600759 520883916 -1961824048 -117377071 1184291998 -1755152365 -657472356 46112653 -1441122617 1449868957 -1241100477 -1982175070 -2023454889 914425114 -178008805 -182999879 2108909285 1156375945 -1770338465 -1796162614 -2061100692
REM
CELL 1.54180   50.00000   50.00000   50.00000   90.00000   90.00000   90.00000
LATT -1
SFAC C  
C      1  0.4749350000000  0.5081780000000  0.4633970000000 1.0
C      1  0.5262900000000  0.5097060000000  0.4605640000000 1.0
C      1  0.5617490000000  0.4818280000000  0.4458930000000 1.0
C      1  0.4426610000000  0.4805200000000  0.4448980000000 1.0
C      1  0.4765970000000  0.5092750000000  0.5792030000000 1.0
C      1  0.5248880000000  0.5081110000000  0.5793830000000 1.0
C      1  0.4535020000000  0.5435160000000  0.5229730000000 1.0
C      1  0.5490180000000  0.5423820000000  0.5226080000000 1.0
C      1  0.4703440000000  0.5474050000000  0.4573200000000 1.0
C      1  0.5337530000000  0.5496590000000  0.4561240000000 1.0
C      1  0.5292970000000  0.4761100000000  0.5291720000000 1.0
C      1  0.4734570000000  0.4764400000000  0.5285490000000 1.0
C      1  0.5753680000000  0.4995120000000  0.5050100000000 1.0
C      1  0.4246320000000  0.4988560000000  0.5063240000000 1.0
C      1  0.5490090000000  0.5587380000000  0.4993510000000 1.0
C      1  0.4531090000000  0.5588870000000  0.4989870000000 1.0
C      1  0.5348460000000  0.4471460000000  0.5125450000000 1.0
C      1  0.4668810000000  0.4474400000000  0.5120630000000 1.0
C      1  0.4621120000000  0.4963680000000  0.4363500000000 1.0
C      1  0.5459820000000  0.5001230000000  0.4367620000000 1.0
C      1  0.4458520000000  0.4786110000000  0.4755170000000 1.0
C      1  0.5557170000000  0.4787240000000  0.4755650000000 1.0
C      1  0.4729180000000  0.5004840000000  0.5488380000000 1.0
C      1  0.5293650000000  0.5003710000000  0.5487080000000 1.0
C      1  0.4693980000000  0.4582000000000  0.4816920000000 1.0
C      1  0.5323500000000  0.4580710000000  0.4817070000000 1.0
C      1  0.4463820000000  0.4749310000000  0.5093150000000 1.0
C      1  0.5559030000000  0.4740890000000  0.5092300000000 1.0
C      1  0.5314380000000  0.5812240000000  0.4964870000000 1.0
C      1  0.4697450000000  0.5817370000000  0.4942460000000 1.0
C      1  0.5504570000000  0.5417950000000  0.4767080000000 1.0
C      1  0.4525570000000  0.5407660000000  0.4773310000000 1.0
C      1  0.4840130000000  0.4571270000000  0.5702810000000 1.0
C      1  0.5165300000000  0.4563270000000  0.5711520000000 1.0
C      1  0.4687600000000  0.5149500000000  0.5189920000000 1.0
C      1  0.5333270000000  0.5142200000000  0.5179070000000 1.0
C      1  0.5474390000000  0.5095870000000  0.4872120000000 1.0
C      1  0.4528680000000  0.5089190000000  0.4892610000000 1.0
C      1  0.5000020000000  0.4649370000000  0.4749300000000 1.0
C      1  0.5011230000000  0.4831340000000  0.5566000000000 1.0
C      1  0.4997190000000  0.5142830000000  0.4149440000000 1.0
C      1  0.4998930000000  0.5252100000000  0.4726100000000 1.0
C      1  0.5006220000000  0.4409080000000  0.5068150000000 1.0
C      1  0.5083910000000  0.4010100000000  0.4739290000000 1.0
C      1  0.4994530000000  0.5009400000000  0.4409760000000 1.0
C      1  0.5008780000000  0.5157070000000  0.5899610000000 1.0
C      1  0.5019300000000  0.5796240000000  0.5260280000000 1.0
C      1  0.5002390000000  0.5194130000000  0.5135570000000 1.0
C      1  0.5061800000000  0.5498880000000  0.5635320000000 1.0
C      1  0.5061850000000  0.5523540000000  0.5075500000000 1.0
C      1  0.5005300000000  0.4705250000000  0.4424170000000 1.0
C      1  0.5000260000000  0.5762240000000  0.4862450000000 1.0
C      1  0.5037330000000  0.5420420000000  0.5395220000000 1.0
C      1  0.5039500000000  0.4310190000000  0.4744420000000 1.0
C      1  0.5024100000000  0.5552070000000  0.4625510000000 1.0
C      1  0.4989290000000  0.4411700000000  0.4429100000000 1.0
C      1  0.5002670000000  0.4196780000000  0.5330520000000 1.0
C      1  0.4999730000000  0.4308450000000  0.5585480000000 1.0
C      1  0.5026180000000  0.4956920000000  0.4892930000000 1.0
C      1  0.5017310000000  0.4741800000000  0.5137430000000 1.0
END
