TITL C-26727-7196-21 0.00441519578325297 125000 -369.248690160915 0 0 60 (C1) n - 1
REM
REM in /home/nfs/bkarasulu/CARBON/AIRSS/Generating-Clusters/AIREBO/Higher-Symm/Only-C60
REM
REM
REM
REM
REM
REM ./C.cell (28575a23ae977d3b5fae324c64b13b57)
REM
REM compiler GCC version 9.2.1 20190827 (Red Hat 9.2.1-1)
REM options -cpp -mtune=generic -march=x86-64 -g -O0 -fpre-include=/usr/include/finclude/math-vector-fortran.h
REM seed 1987678793 -1104796941 -1778857594 -1293964545 1387515197 593537825 -1628391795 -381906295 386506539 1505729998 655422036 1402810298 1705208633 1974275716 1738176023 -1539570209 -398159603 -310808056 -1387459847 -2073432437 280177038 1695446610 -65914245 794646802 1146088583 21867281 600615205 1399149311 -1001440890 1064864480 43926479 -744044121 -1477406726
REM
CELL 1.54180   50.00000   50.00000   50.00000   90.00000   90.00000   90.00000
LATT -1
SFAC C  
C      1  0.4682090000000  0.4808600000000  0.4399730000000 1.0
C      1  0.4443270000000  0.4637050000000  0.4804090000000 1.0
C      1  0.4879920000000  0.4425350000000  0.4636370000000 1.0
C      1  0.4698090000000  0.5140200000000  0.5493390000000 1.0
C      1  0.5289670000000  0.5067950000000  0.4495450000000 1.0
C      1  0.5354770000000  0.4804790000000  0.5575430000000 1.0
C      1  0.4525660000000  0.5282830000000  0.5055500000000 1.0
C      1  0.5497250000000  0.5284110000000  0.4880540000000 1.0
C      1  0.5513360000000  0.4649920000000  0.5119800000000 1.0
C      1  0.4885700000000  0.5572550000000  0.5262780000000 1.0
C      1  0.5124100000000  0.5504950000000  0.4662490000000 1.0
C      1  0.5104600000000  0.4435420000000  0.5317010000000 1.0
C      1  0.4651370000000  0.4405400000000  0.4791290000000 1.0
C      1  0.4456230000000  0.4832330000000  0.4608890000000 1.0
C      1  0.4889430000000  0.4628350000000  0.4426840000000 1.0
C      1  0.4674120000000  0.5556320000000  0.5073000000000 1.0
C      1  0.5304450000000  0.4452940000000  0.5109550000000 1.0
C      1  0.5319180000000  0.5511820000000  0.4856740000000 1.0
C      1  0.4532000000000  0.5107430000000  0.5263030000000 1.0
C      1  0.5533440000000  0.4830670000000  0.5327720000000 1.0
C      1  0.5492380000000  0.5073840000000  0.4703890000000 1.0
C      1  0.4894620000000  0.5352650000000  0.5505460000000 1.0
C      1  0.5124570000000  0.4631120000000  0.5575590000000 1.0
C      1  0.5100260000000  0.5268600000000  0.4492580000000 1.0
C      1  0.5381170000000  0.5113400000000  0.5562250000000 1.0
C      1  0.5640250000000  0.5603450000000  0.5173790000000 1.0
C      1  0.4993740000000  0.5739200000000  0.5530720000000 1.0
C      1  0.5613030000000  0.4754810000000  0.4398430000000 1.0
C      1  0.4657170000000  0.4915320000000  0.5668910000000 1.0
C      1  0.4639320000000  0.5118010000000  0.4402080000000 1.0
C      1  0.5604270000000  0.4360740000000  0.4779270000000 1.0
C      1  0.4393920000000  0.4654070000000  0.5107750000000 1.0
C      1  0.4222360000000  0.5563360000000  0.4850710000000 1.0
C      1  0.5250670000000  0.4351950000000  0.4381050000000 1.0
C      1  0.4923620000000  0.4285630000000  0.5559530000000 1.0
C      1  0.4897470000000  0.5681760000000  0.4601790000000 1.0
C      1  0.5372690000000  0.5690420000000  0.5084270000000 1.0
C      1  0.5596930000000  0.5132860000000  0.5331360000000 1.0
C      1  0.5055570000000  0.5555400000000  0.5753520000000 1.0
C      1  0.5327100000000  0.4304690000000  0.4860690000000 1.0
C      1  0.4430130000000  0.5745660000000  0.4944670000000 1.0
C      1  0.4601730000000  0.4419940000000  0.5097270000000 1.0
C      1  0.5661040000000  0.4836450000000  0.4675930000000 1.0
C      1  0.4396570000000  0.5134950000000  0.4614560000000 1.0
C      1  0.4406010000000  0.4797030000000  0.5578350000000 1.0
C      1  0.5153460000000  0.4617440000000  0.4303510000000 1.0
C      1  0.4814980000000  0.5585780000000  0.4334440000000 1.0
C      1  0.4914720000000  0.4445530000000  0.5802710000000 1.0
C      1  0.5668700000000  0.4632030000000  0.4871350000000 1.0
C      1  0.4685070000000  0.5710640000000  0.4767320000000 1.0
C      1  0.4858470000000  0.4746160000000  0.5740150000000 1.0
C      1  0.5649060000000  0.5314490000000  0.5127500000000 1.0
C      1  0.4336970000000  0.5295830000000  0.4836680000000 1.0
C      1  0.4381030000000  0.4858680000000  0.5294500000000 1.0
C      1  0.4788620000000  0.4349480000000  0.5276660000000 1.0
C      1  0.5141120000000  0.4291420000000  0.4647760000000 1.0
C      1  0.4849690000000  0.5294900000000  0.4340800000000 1.0
C      1  0.5191960000000  0.5289270000000  0.5646050000000 1.0
C      1  0.5337650000000  0.4830200000000  0.4330560000000 1.0
C      1  0.5193230000000  0.5713880000000  0.5285960000000 1.0
END
