TITL C-26737-6152-207 0.00144199286120762 125000 -356.709128590666 0 0 60 (C1) n - 1
REM
REM in /home/nfs/bkarasulu/CARBON/AIRSS/Generating-Clusters/AIREBO/Higher-Symm/Only-C60
REM
REM
REM
REM
REM
REM ./C.cell (28575a23ae977d3b5fae324c64b13b57)
REM
REM compiler GCC version 9.2.1 20190827 (Red Hat 9.2.1-1)
REM options -cpp -mtune=generic -march=x86-64 -g -O0 -fpre-include=/usr/include/finclude/math-vector-fortran.h
REM seed -1651419151 -1129294241 -2086895355 1369865425 -613118769 -342481737 969230915 645079397 -966663109 -1872079025 642696636 928994986 931349053 1682715514 1949307733 -879866633 -988786501 261845121 -1561899335 -1855136647 803879760 -48602933 -1354155973 1928819007 905620063 -1312999103 956344757 -2068169674 -1697919004 1367857585 -54996389 -826289630 910708450
REM
CELL 1.54180   50.00000   50.00000   50.00000   90.00000   90.00000   90.00000
LATT -1
SFAC C  
C      1  0.4682700000000  0.4966370000000  0.5774020000000 1.0
C      1  0.5440500000000  0.4956180000000  0.5710120000000 1.0
C      1  0.5841200000000  0.4955470000000  0.4965840000000 1.0
C      1  0.5393340000000  0.4953930000000  0.4245450000000 1.0
C      1  0.4535970000000  0.4955230000000  0.4284480000000 1.0
C      1  0.4188130000000  0.4942680000000  0.5166700000000 1.0
C      1  0.5404410000000  0.4697210000000  0.5582790000000 1.0
C      1  0.5709080000000  0.4700850000000  0.4920220000000 1.0
C      1  0.5283030000000  0.4699370000000  0.4332050000000 1.0
C      1  0.4560210000000  0.4700080000000  0.4419310000000 1.0
C      1  0.4239880000000  0.4647420000000  0.5044940000000 1.0
C      1  0.4661800000000  0.4690520000000  0.5685410000000 1.0
C      1  0.4554850000000  0.4783200000000  0.4708050000000 1.0
C      1  0.4491320000000  0.4796350000000  0.5218720000000 1.0
C      1  0.4928760000000  0.4775700000000  0.5522890000000 1.0
C      1  0.5426130000000  0.4781960000000  0.5297880000000 1.0
C      1  0.5468840000000  0.4787350000000  0.4764520000000 1.0
C      1  0.5028860000000  0.4786820000000  0.4465100000000 1.0
C      1  0.5631160000000  0.5188360000000  0.4941130000000 1.0
C      1  0.5273700000000  0.5184690000000  0.4422470000000 1.0
C      1  0.4640810000000  0.5181300000000  0.4475230000000 1.0
C      1  0.4406980000000  0.5167240000000  0.5096320000000 1.0
C      1  0.4782450000000  0.5175460000000  0.5569050000000 1.0
C      1  0.5371440000000  0.5184820000000  0.5505560000000 1.0
C      1  0.4556130000000  0.5389760000000  0.5502290000000 1.0
C      1  0.5201960000000  0.5416870000000  0.5644440000000 1.0
C      1  0.5661330000000  0.5405740000000  0.5170650000000 1.0
C      1  0.5489310000000  0.5396610000000  0.4514870000000 1.0
C      1  0.4830960000000  0.5382420000000  0.4328070000000 1.0
C      1  0.4343900000000  0.5337720000000  0.4838910000000 1.0
C      1  0.4900420000000  0.4413080000000  0.4719690000000 1.0
C      1  0.4711250000000  0.4408130000000  0.4936920000000 1.0
C      1  0.4802910000000  0.4413110000000  0.5205170000000 1.0
C      1  0.5083050000000  0.4411090000000  0.5266150000000 1.0
C      1  0.5274630000000  0.4414090000000  0.5050360000000 1.0
C      1  0.5183140000000  0.4414760000000  0.4776550000000 1.0
C      1  0.5498040000000  0.4587930000000  0.5108940000000 1.0
C      1  0.5343380000000  0.4589450000000  0.4610660000000 1.0
C      1  0.4833490000000  0.4588750000000  0.4499260000000 1.0
C      1  0.4486380000000  0.4577770000000  0.4884940000000 1.0
C      1  0.4638620000000  0.4595800000000  0.5378410000000 1.0
C      1  0.5142520000000  0.4579620000000  0.5493080000000 1.0
C      1  0.5107710000000  0.5030640000000  0.4676710000000 1.0
C      1  0.4782800000000  0.5025090000000  0.4742720000000 1.0
C      1  0.4696440000000  0.5002050000000  0.5060370000000 1.0
C      1  0.4914090000000  0.5014840000000  0.5300400000000 1.0
C      1  0.5226390000000  0.5034200000000  0.5236420000000 1.0
C      1  0.5325680000000  0.5038630000000  0.4926030000000 1.0
C      1  0.5260810000000  0.5551940000000  0.4889430000000 1.0
C      1  0.5035120000000  0.5541850000000  0.4717140000000 1.0
C      1  0.4771210000000  0.5532830000000  0.4827080000000 1.0
C      1  0.4736870000000  0.5549990000000  0.5108890000000 1.0
C      1  0.4963840000000  0.5562470000000  0.5277510000000 1.0
C      1  0.5224220000000  0.5560220000000  0.5169260000000 1.0
C      1  0.4517410000000  0.5424970000000  0.5235710000000 1.0
C      1  0.4953600000000  0.5444610000000  0.5534490000000 1.0
C      1  0.5434350000000  0.5441590000000  0.5317260000000 1.0
C      1  0.5496310000000  0.5435750000000  0.4783790000000 1.0
C      1  0.5064470000000  0.5425970000000  0.4459770000000 1.0
C      1  0.4561710000000  0.5401050000000  0.4689400000000 1.0
END
