TITL C-26740-8352-30 -0.00164932047641791 125000 -316.685809931067 0 0 60 (C1) n - 1
REM
REM in /home/nfs/bkarasulu/CARBON/AIRSS/Generating-Clusters/AIREBO/Higher-Symm/Only-C60
REM
REM
REM
REM
REM
REM ./C.cell (28575a23ae977d3b5fae324c64b13b57)
REM
REM compiler GCC version 9.2.1 20190827 (Red Hat 9.2.1-1)
REM options -cpp -mtune=generic -march=x86-64 -g -O0 -fpre-include=/usr/include/finclude/math-vector-fortran.h
REM seed -988605531 596985628 -393463375 -1649008443 1885715165 1683418971 894234181 2001251803 2027273304 1105662644 -1401128820 -1403890926 166484756 171204846 -2088267529 -257206529 115828399 -1066816035 -8761385 1467794104 -54713195 -195660820 -2092095418 1843851898 -1384638416 -808078465 2123522910 -1044580481 -466670706 -2044956001 1456650039 -813983251 1524488709
REM
CELL 1.54180   50.00000   50.00000   50.00000   90.00000   90.00000   90.00000
LATT -1
SFAC C  
C      1  0.5627080000000  0.4921900000000  0.5260910000000 1.0
C      1  0.4369650000000  0.5024170000000  0.4717150000000 1.0
C      1  0.5537690000000  0.4685460000000  0.5362700000000 1.0
C      1  0.4365870000000  0.5239740000000  0.4532610000000 1.0
C      1  0.4775550000000  0.5363800000000  0.5619080000000 1.0
C      1  0.5257720000000  0.4671500000000  0.4358350000000 1.0
C      1  0.4464160000000  0.4523900000000  0.4828700000000 1.0
C      1  0.5478530000000  0.5444260000000  0.5159410000000 1.0
C      1  0.5260810000000  0.4944830000000  0.4569980000000 1.0
C      1  0.4741890000000  0.5069880000000  0.5438500000000 1.0
C      1  0.5119010000000  0.4918130000000  0.5404130000000 1.0
C      1  0.4897900000000  0.5107050000000  0.4603630000000 1.0
C      1  0.4999120000000  0.5104570000000  0.5658300000000 1.0
C      1  0.5004840000000  0.4909850000000  0.4348730000000 1.0
C      1  0.4875950000000  0.5412770000000  0.5071660000000 1.0
C      1  0.5071950000000  0.4607810000000  0.4868810000000 1.0
C      1  0.5725300000000  0.4924000000000  0.5003380000000 1.0
C      1  0.4359070000000  0.5064980000000  0.4980980000000 1.0
C      1  0.4802600000000  0.4622410000000  0.5654010000000 1.0
C      1  0.5214650000000  0.5386170000000  0.4342820000000 1.0
C      1  0.5312800000000  0.5240920000000  0.5640870000000 1.0
C      1  0.4723350000000  0.4721170000000  0.4376480000000 1.0
C      1  0.5426360000000  0.5430070000000  0.4859530000000 1.0
C      1  0.4564950000000  0.4575900000000  0.5149240000000 1.0
C      1  0.4931830000000  0.4228100000000  0.4857410000000 1.0
C      1  0.5059880000000  0.5755270000000  0.5161360000000 1.0
C      1  0.4529580000000  0.4672650000000  0.5476940000000 1.0
C      1  0.5488720000000  0.5331420000000  0.4535860000000 1.0
C      1  0.4980190000000  0.5203220000000  0.4178550000000 1.0
C      1  0.5011030000000  0.4808170000000  0.5824730000000 1.0
C      1  0.4397250000000  0.5241300000000  0.5242320000000 1.0
C      1  0.5608980000000  0.4748060000000  0.4761980000000 1.0
C      1  0.4931820000000  0.5671070000000  0.4869930000000 1.0
C      1  0.5102450000000  0.4371890000000  0.5099680000000 1.0
C      1  0.4728240000000  0.5328290000000  0.4199750000000 1.0
C      1  0.5260250000000  0.4681750000000  0.5829140000000 1.0
C      1  0.4789090000000  0.4329490000000  0.5508200000000 1.0
C      1  0.5256270000000  0.5681250000000  0.4476180000000 1.0
C      1  0.5418350000000  0.4557650000000  0.5627440000000 1.0
C      1  0.4565220000000  0.5419150000000  0.4427740000000 1.0
C      1  0.5068550000000  0.5148900000000  0.5021450000000 1.0
C      1  0.4921550000000  0.4894180000000  0.4999280000000 1.0
C      1  0.5176710000000  0.5244770000000  0.5329210000000 1.0
C      1  0.4841260000000  0.4783280000000  0.4690690000000 1.0
C      1  0.4945240000000  0.5368970000000  0.4538600000000 1.0
C      1  0.5072820000000  0.4663840000000  0.5458730000000 1.0
C      1  0.4702000000000  0.4874470000000  0.5188000000000 1.0
C      1  0.5281020000000  0.5147570000000  0.4817760000000 1.0
C      1  0.4792090000000  0.4357880000000  0.5229100000000 1.0
C      1  0.5235320000000  0.5664140000000  0.4753850000000 1.0
C      1  0.4742350000000  0.5551450000000  0.4643940000000 1.0
C      1  0.5272180000000  0.4476770000000  0.5323160000000 1.0
C      1  0.4678330000000  0.5366740000000  0.5293840000000 1.0
C      1  0.5326550000000  0.4638530000000  0.4688530000000 1.0
C      1  0.4699880000000  0.4364670000000  0.4839990000000 1.0
C      1  0.5226170000000  0.5575810000000  0.5269330000000 1.0
C      1  0.5591560000000  0.5084460000000  0.4745770000000 1.0
C      1  0.4375690000000  0.4902600000000  0.5279250000000 1.0
C      1  0.5509520000000  0.5179980000000  0.5361700000000 1.0
C      1  0.4505250000000  0.4767040000000  0.4640670000000 1.0
END
