TITL C-26726-4881-118 -0.000382240645168397 125000 -318.282961677442 0 0 60 (C1) n - 1
REM
REM in /home/nfs/bkarasulu/CARBON/AIRSS/Generating-Clusters/AIREBO/Higher-Symm/Only-C60
REM
REM
REM
REM
REM
REM ./C.cell (28575a23ae977d3b5fae324c64b13b57)
REM
REM compiler GCC version 9.2.1 20190827 (Red Hat 9.2.1-1)
REM options -cpp -mtune=generic -march=x86-64 -g -O0 -fpre-include=/usr/include/finclude/math-vector-fortran.h
REM seed 2061994784 600919370 -2128048222 1485114276 -1922817938 1215850390 -719930441 693877241 1215114180 1920515055 802255236 499485301 1643177296 921164664 1033015721 968022778 -1433187537 1547524187 1696961072 715957320 1903368332 -1814167716 224879147 593286544 -1965050851 112112820 -1146293774 -639793604 -1201082135 352495709 1378824765 -707919529 1538380314
REM
CELL 1.54180   50.00000   50.00000   50.00000   90.00000   90.00000   90.00000
LATT -1
SFAC C  
C      1  0.5090950000000  0.4635720000000  0.5598240000000 1.0
C      1  0.5485830000000  0.4583370000000  0.4603900000000 1.0
C      1  0.4402540000000  0.4605820000000  0.4782900000000 1.0
C      1  0.4980970000000  0.4382980000000  0.5194910000000 1.0
C      1  0.5181490000000  0.4378840000000  0.4937940000000 1.0
C      1  0.4850980000000  0.4397870000000  0.4889550000000 1.0
C      1  0.5516420000000  0.5509770000000  0.4938690000000 1.0
C      1  0.4744180000000  0.5480990000000  0.4686480000000 1.0
C      1  0.4831570000000  0.5465650000000  0.5401560000000 1.0
C      1  0.5486470000000  0.5607200000000  0.5548440000000 1.0
C      1  0.5275590000000  0.5600260000000  0.4347120000000 1.0
C      1  0.4155340000000  0.5570030000000  0.5167550000000 1.0
C      1  0.5374340000000  0.4515830000000  0.5514890000000 1.0
C      1  0.5228280000000  0.4500800000000  0.4434810000000 1.0
C      1  0.4375900000000  0.4500930000000  0.5084880000000 1.0
C      1  0.4329690000000  0.5385400000000  0.5113510000000 1.0
C      1  0.5393480000000  0.5395940000000  0.5426010000000 1.0
C      1  0.5225200000000  0.5384580000000  0.4485800000000 1.0
C      1  0.4644980000000  0.4930120000000  0.4381680000000 1.0
C      1  0.4666400000000  0.4959830000000  0.5580670000000 1.0
C      1  0.5734630000000  0.4889380000000  0.5004660000000 1.0
C      1  0.4580240000000  0.5407720000000  0.4931600000000 1.0
C      1  0.5108150000000  0.5381210000000  0.5289980000000 1.0
C      1  0.5263870000000  0.5365040000000  0.4800700000000 1.0
C      1  0.4681360000000  0.5261680000000  0.5614500000000 1.0
C      1  0.5790060000000  0.5317720000000  0.4953460000000 1.0
C      1  0.4639100000000  0.5359520000000  0.4389320000000 1.0
C      1  0.4948990000000  0.4880550000000  0.5409640000000 1.0
C      1  0.5449720000000  0.4838020000000  0.4826320000000 1.0
C      1  0.4604910000000  0.4870280000000  0.4714000000000 1.0
C      1  0.5504350000000  0.4629730000000  0.5294730000000 1.0
C      1  0.4989630000000  0.4645020000000  0.4447680000000 1.0
C      1  0.4515360000000  0.4633550000000  0.5288830000000 1.0
C      1  0.5546870000000  0.5015860000000  0.4557480000000 1.0
C      1  0.4298960000000  0.5015130000000  0.4745890000000 1.0
C      1  0.5142880000000  0.5039400000000  0.5639410000000 1.0
C      1  0.4554750000000  0.4338550000000  0.4875150000000 1.0
C      1  0.5108040000000  0.4342020000000  0.5464790000000 1.0
C      1  0.5324730000000  0.4317350000000  0.4680550000000 1.0
C      1  0.5025680000000  0.5589290000000  0.4763550000000 1.0
C      1  0.4656270000000  0.5605440000000  0.5176750000000 1.0
C      1  0.5263510000000  0.5611040000000  0.5116100000000 1.0
C      1  0.4652120000000  0.5208970000000  0.5270450000000 1.0
C      1  0.5507670000000  0.5206260000000  0.5093890000000 1.0
C      1  0.4876960000000  0.5202740000000  0.4558740000000 1.0
C      1  0.4764430000000  0.5127550000000  0.4872130000000 1.0
C      1  0.4954240000000  0.5105070000000  0.5153640000000 1.0
C      1  0.5232600000000  0.5066230000000  0.4958140000000 1.0
C      1  0.5673090000000  0.4855500000000  0.5274520000000 1.0
C      1  0.4909950000000  0.4877410000000  0.4311850000000 1.0
C      1  0.4444560000000  0.4867610000000  0.5426380000000 1.0
C      1  0.5565210000000  0.5113990000000  0.5401430000000 1.0
C      1  0.5103530000000  0.5112960000000  0.4350340000000 1.0
C      1  0.4341450000000  0.5091150000000  0.5242110000000 1.0
C      1  0.5388350000000  0.5076510000000  0.5664080000000 1.0
C      1  0.5419360000000  0.5065020000000  0.4347950000000 1.0
C      1  0.4183680000000  0.5045090000000  0.4966810000000 1.0
C      1  0.4839800000000  0.4626360000000  0.4681570000000 1.0
C      1  0.4791380000000  0.4615440000000  0.5272700000000 1.0
C      1  0.5378980000000  0.4590690000000  0.5048670000000 1.0
END
