TITL C-26740-8352-131 -0.00105751917367236 125000 -346.560345685458 0 0 60 (C1) n - 1
REM
REM in /home/nfs/bkarasulu/CARBON/AIRSS/Generating-Clusters/AIREBO/Higher-Symm/Only-C60
REM
REM
REM
REM
REM
REM ./C.cell (28575a23ae977d3b5fae324c64b13b57)
REM
REM compiler GCC version 9.2.1 20190827 (Red Hat 9.2.1-1)
REM options -cpp -mtune=generic -march=x86-64 -g -O0 -fpre-include=/usr/include/finclude/math-vector-fortran.h
REM seed 1253093438 -1060657365 -206943686 -961993472 2102928762 662183903 1239062675 -1220627334 760253665 462526005 -843821518 -790599457 1000341069 -965815802 1383050347 905077306 -1535568729 1064499748 -689103709 747042090 -4881659 -229890490 309791468 -1885853046 -1512533361 452385153 863429191 1284024430 -1367180608 -749936207 610991344 -1212415110 -467184672
REM
CELL 1.54180   50.00000   50.00000   50.00000   90.00000   90.00000   90.00000
LATT -1
SFAC C  
C      1  0.4608070000000  0.4864260000000  0.4936880000000 1.0
C      1  0.4510430000000  0.4651260000000  0.4743710000000 1.0
C      1  0.4610440000000  0.4689350000000  0.4466270000000 1.0
C      1  0.5123710000000  0.4610530000000  0.4515190000000 1.0
C      1  0.5273970000000  0.4817530000000  0.4623360000000 1.0
C      1  0.5482030000000  0.4766220000000  0.4803690000000 1.0
C      1  0.5476690000000  0.4876710000000  0.5080090000000 1.0
C      1  0.5210770000000  0.4811970000000  0.5279290000000 1.0
C      1  0.5009010000000  0.4711610000000  0.5478290000000 1.0
C      1  0.4746150000000  0.4858460000000  0.5418750000000 1.0
C      1  0.4562180000000  0.4812790000000  0.5210580000000 1.0
C      1  0.5243690000000  0.3982180000000  0.5519240000000 1.0
C      1  0.5002090000000  0.3867500000000  0.5605180000000 1.0
C      1  0.4770580000000  0.3963150000000  0.5477240000000 1.0
C      1  0.4648150000000  0.3825340000000  0.5259990000000 1.0
C      1  0.4624010000000  0.3959020000000  0.5011080000000 1.0
C      1  0.4815480000000  0.3972930000000  0.4794280000000 1.0
C      1  0.5025450000000  0.3836350000000  0.4664450000000 1.0
C      1  0.5246580000000  0.4013890000000  0.4631920000000 1.0
C      1  0.5487530000000  0.3967880000000  0.4801740000000 1.0
C      1  0.5518750000000  0.3946920000000  0.5111640000000 1.0
C      1  0.5443940000000  0.3849560000000  0.5364450000000 1.0
C      1  0.4746160000000  0.4250100000000  0.5462380000000 1.0
C      1  0.4525040000000  0.4332670000000  0.5303510000000 1.0
C      1  0.4515380000000  0.4230550000000  0.5038870000000 1.0
C      1  0.4624640000000  0.4388380000000  0.4830300000000 1.0
C      1  0.4843310000000  0.4254130000000  0.4726990000000 1.0
C      1  0.5137300000000  0.4336060000000  0.4638290000000 1.0
C      1  0.5409950000000  0.4319660000000  0.4818630000000 1.0
C      1  0.5498900000000  0.4244810000000  0.5088200000000 1.0
C      1  0.5440620000000  0.4372720000000  0.5331130000000 1.0
C      1  0.5227720000000  0.4265320000000  0.5481570000000 1.0
C      1  0.4981750000000  0.4403580000000  0.5472590000000 1.0
C      1  0.4626830000000  0.5859110000000  0.5259440000000 1.0
C      1  0.4611710000000  0.6094360000000  0.5128010000000 1.0
C      1  0.4752550000000  0.6309280000000  0.5042270000000 1.0
C      1  0.5006190000000  0.6367890000000  0.4966160000000 1.0
C      1  0.5232530000000  0.6249890000000  0.4876380000000 1.0
C      1  0.5407860000000  0.6050290000000  0.4924950000000 1.0
C      1  0.5441240000000  0.5785510000000  0.4963380000000 1.0
C      1  0.5380140000000  0.5564660000000  0.5104440000000 1.0
C      1  0.5202250000000  0.5366970000000  0.5190070000000 1.0
C      1  0.4960860000000  0.5462620000000  0.5293330000000 1.0
C      1  0.4739870000000  0.5614880000000  0.5273200000000 1.0
C      1  0.5091940000000  0.4783060000000  0.5744730000000 1.0
C      1  0.4692910000000  0.5072340000000  0.5586590000000 1.0
C      1  0.4308100000000  0.4747820000000  0.5283250000000 1.0
C      1  0.4670740000000  0.5109550000000  0.4829550000000 1.0
C      1  0.4225220000000  0.4640540000000  0.4741930000000 1.0
C      1  0.4671980000000  0.4773310000000  0.4163510000000 1.0
C      1  0.4913010000000  0.4680020000000  0.4357490000000 1.0
C      1  0.5229200000000  0.5071490000000  0.4540780000000 1.0
C      1  0.5716500000000  0.4653270000000  0.4713520000000 1.0
C      1  0.5728170000000  0.4893220000000  0.5203010000000 1.0
C      1  0.5261610000000  0.5107780000000  0.5179330000000 1.0
C      1  0.4827350000000  0.5559790000000  0.4593440000000 1.0
C      1  0.4972090000000  0.6248220000000  0.4226040000000 1.0
C      1  0.4937270000000  0.6017580000000  0.4345620000000 1.0
C      1  0.4755920000000  0.5338000000000  0.4722400000000 1.0
C      1  0.4883350000000  0.5794730000000  0.4481210000000 1.0
END
