TITL C-26738-6379-18 -0.00056951908065177 125000 -334.012023938401 0 0 60 (C1) n - 1
REM
REM in /home/nfs/bkarasulu/CARBON/AIRSS/Generating-Clusters/AIREBO/Higher-Symm/Only-C60
REM
REM
REM
REM
REM
REM ./C.cell (28575a23ae977d3b5fae324c64b13b57)
REM
REM compiler GCC version 9.2.1 20190827 (Red Hat 9.2.1-1)
REM options -cpp -mtune=generic -march=x86-64 -g -O0 -fpre-include=/usr/include/finclude/math-vector-fortran.h
REM seed -1127687293 -1439908981 -50839695 -1081207873 -1876399309 -173383857 1537525463 1746377967 -20586488 322133593 -389633556 435967986 -1899174132 -340794946 820043394 27698287 1293307501 500313287 234278765 660060945 -2125340905 -1921081846 -1129904846 1162138740 -2074021484 -1384384815 -15226719 -297244327 2096284824 -535249489 -1505686549 -614730 -1748755076
REM
CELL 1.54180   50.00000   50.00000   50.00000   90.00000   90.00000   90.00000
LATT -1
SFAC C  
C      1  0.4758280000000  0.5137260000000  0.5158720000000 1.0
C      1  0.5043540000000  0.5149070000000  0.4758710000000 1.0
C      1  0.5265220000000  0.5161270000000  0.5182060000000 1.0
C      1  0.4725870000000  0.5249660000000  0.4838700000000 1.0
C      1  0.5018190000000  0.5258230000000  0.5344080000000 1.0
C      1  0.5278220000000  0.5279520000000  0.4909880000000 1.0
C      1  0.4450540000000  0.4934430000000  0.4769350000000 1.0
C      1  0.5530160000000  0.4804330000000  0.4456490000000 1.0
C      1  0.5003220000000  0.4825360000000  0.5634300000000 1.0
C      1  0.4352560000000  0.4879830000000  0.5273510000000 1.0
C      1  0.5491160000000  0.4895020000000  0.5504320000000 1.0
C      1  0.5121750000000  0.4830950000000  0.4235460000000 1.0
C      1  0.5057750000000  0.5629510000000  0.4672010000000 1.0
C      1  0.5200080000000  0.5719090000000  0.5120790000000 1.0
C      1  0.4705070000000  0.5614440000000  0.5129880000000 1.0
C      1  0.4973690000000  0.5593980000000  0.5294610000000 1.0
C      1  0.5246160000000  0.5590490000000  0.4886400000000 1.0
C      1  0.4787330000000  0.5581990000000  0.4801540000000 1.0
C      1  0.4510770000000  0.4600430000000  0.4729490000000 1.0
C      1  0.5478860000000  0.4645540000000  0.4723950000000 1.0
C      1  0.4985810000000  0.4503940000000  0.5563570000000 1.0
C      1  0.4535280000000  0.4605310000000  0.5298380000000 1.0
C      1  0.5483480000000  0.4645170000000  0.5280190000000 1.0
C      1  0.4979240000000  0.4651290000000  0.4456860000000 1.0
C      1  0.5745010000000  0.4604840000000  0.4878590000000 1.0
C      1  0.4728200000000  0.4403790000000  0.5692730000000 1.0
C      1  0.4499980000000  0.4532780000000  0.4430890000000 1.0
C      1  0.5748490000000  0.4605280000000  0.5130930000000 1.0
C      1  0.4718100000000  0.4555660000000  0.4305180000000 1.0
C      1  0.4511470000000  0.4470630000000  0.5577090000000 1.0
C      1  0.5249540000000  0.4444020000000  0.5136940000000 1.0
C      1  0.4766090000000  0.4425510000000  0.5133790000000 1.0
C      1  0.5002070000000  0.4444430000000  0.4716710000000 1.0
C      1  0.5250790000000  0.4429980000000  0.4849280000000 1.0
C      1  0.4757060000000  0.4416160000000  0.4858040000000 1.0
C      1  0.5010970000000  0.4378570000000  0.5272730000000 1.0
C      1  0.5008640000000  0.4772520000000  0.5318850000000 1.0
C      1  0.4731740000000  0.4813120000000  0.4876240000000 1.0
C      1  0.5256540000000  0.4826000000000  0.4872310000000 1.0
C      1  0.4985400000000  0.4843350000000  0.4723790000000 1.0
C      1  0.4749490000000  0.4827980000000  0.5181210000000 1.0
C      1  0.5261370000000  0.4856740000000  0.5175970000000 1.0
C      1  0.5338360000000  0.5415370000000  0.5677840000000 1.0
C      1  0.4408560000000  0.5468070000000  0.5214350000000 1.0
C      1  0.5174720000000  0.5485520000000  0.4389850000000 1.0
C      1  0.5455840000000  0.5326080000000  0.4463210000000 1.0
C      1  0.4464390000000  0.5547320000000  0.4890910000000 1.0
C      1  0.5109850000000  0.5546650000000  0.5602610000000 1.0
C      1  0.4928440000000  0.5287960000000  0.4496480000000 1.0
C      1  0.5759790000000  0.5435680000000  0.4841230000000 1.0
C      1  0.4626640000000  0.5317400000000  0.5385660000000 1.0
C      1  0.4833310000000  0.5352670000000  0.5613480000000 1.0
C      1  0.5525220000000  0.5348780000000  0.4732830000000 1.0
C      1  0.4628840000000  0.5256650000000  0.4512860000000 1.0
C      1  0.5394600000000  0.5122760000000  0.5609530000000 1.0
C      1  0.4323240000000  0.5138920000000  0.5200910000000 1.0
C      1  0.5143370000000  0.5141770000000  0.4300250000000 1.0
C      1  0.5450040000000  0.5042710000000  0.4365030000000 1.0
C      1  0.4393100000000  0.5215080000000  0.4902730000000 1.0
C      1  0.5078520000000  0.5113120000000  0.5645710000000 1.0
END
