TITL C-26726-4881-56 0.00154582342875481 125000 -319.971597043776 0 0 60 (C1) n - 1
REM
REM in /home/nfs/bkarasulu/CARBON/AIRSS/Generating-Clusters/AIREBO/Higher-Symm/Only-C60
REM
REM
REM
REM
REM
REM ./C.cell (28575a23ae977d3b5fae324c64b13b57)
REM
REM compiler GCC version 9.2.1 20190827 (Red Hat 9.2.1-1)
REM options -cpp -mtune=generic -march=x86-64 -g -O0 -fpre-include=/usr/include/finclude/math-vector-fortran.h
REM seed 1590869303 889211125 -408795853 1389450706 1750826381 1215636317 -1331942000 -400346670 -77748465 1335980453 1439177287 -460804474 2138425808 -1263381943 -995203070 1236235917 -1920826368 33870216 1524554055 -1111727737 -2108832008 1408382745 1704063410 -1189982168 958402842 449192884 -1275174049 -1173921400 -571189001 -685295328 -581320539 -1534936683 -20179504
REM
CELL 1.54180   50.00000   50.00000   50.00000   90.00000   90.00000   90.00000
LATT -1
SFAC C  
C      1  0.5558420000000  0.5432000000000  0.4816460000000 1.0
C      1  0.4713540000000  0.5594200000000  0.5139860000000 1.0
C      1  0.4451850000000  0.4555200000000  0.4699920000000 1.0
C      1  0.5430790000000  0.4512970000000  0.5389710000000 1.0
C      1  0.5247880000000  0.5392970000000  0.5941210000000 1.0
C      1  0.4819990000000  0.5314970000000  0.4215110000000 1.0
C      1  0.4556610000000  0.4671360000000  0.6108580000000 1.0
C      1  0.5260530000000  0.4685400000000  0.4065080000000 1.0
C      1  0.5383200000000  0.4936810000000  0.4573600000000 1.0
C      1  0.5068630000000  0.5342100000000  0.5388560000000 1.0
C      1  0.4643000000000  0.5062520000000  0.4581760000000 1.0
C      1  0.4915040000000  0.4682300000000  0.5456050000000 1.0
C      1  0.4605960000000  0.4677500000000  0.5851260000000 1.0
C      1  0.4983720000000  0.4753140000000  0.4164630000000 1.0
C      1  0.5269750000000  0.5093410000000  0.5910590000000 1.0
C      1  0.5068880000000  0.5353180000000  0.4327490000000 1.0
C      1  0.5164480000000  0.4493390000000  0.4960010000000 1.0
C      1  0.5677150000000  0.5211450000000  0.5048710000000 1.0
C      1  0.4701350000000  0.5638950000000  0.4827760000000 1.0
C      1  0.4490540000000  0.4822870000000  0.5123470000000 1.0
C      1  0.5564910000000  0.4745040000000  0.5328580000000 1.0
C      1  0.5332450000000  0.5564890000000  0.4730520000000 1.0
C      1  0.4549620000000  0.5395620000000  0.5239040000000 1.0
C      1  0.4693190000000  0.4421900000000  0.4702640000000 1.0
C      1  0.4375770000000  0.5108750000000  0.5264250000000 1.0
C      1  0.4945130000000  0.4273960000000  0.4819120000000 1.0
C      1  0.5760700000000  0.4955500000000  0.5228610000000 1.0
C      1  0.5008800000000  0.5679310000000  0.4744370000000 1.0
C      1  0.5445310000000  0.5211710000000  0.5373880000000 1.0
C      1  0.4547860000000  0.5525750000000  0.4546220000000 1.0
C      1  0.4462790000000  0.4609220000000  0.5369070000000 1.0
C      1  0.5223660000000  0.4479570000000  0.4625390000000 1.0
C      1  0.4912610000000  0.5101470000000  0.4744510000000 1.0
C      1  0.4885870000000  0.4873340000000  0.5218570000000 1.0
C      1  0.5101970000000  0.4881390000000  0.4746140000000 1.0
C      1  0.5091770000000  0.5102130000000  0.5180340000000 1.0
C      1  0.5620910000000  0.4771780000000  0.4752090000000 1.0
C      1  0.5263490000000  0.5569150000000  0.5123730000000 1.0
C      1  0.4419470000000  0.5198380000000  0.4880740000000 1.0
C      1  0.4821130000000  0.4438900000000  0.5154680000000 1.0
C      1  0.5623630000000  0.5111870000000  0.4732180000000 1.0
C      1  0.4970300000000  0.5602200000000  0.5263380000000 1.0
C      1  0.4452050000000  0.4872190000000  0.4788920000000 1.0
C      1  0.5126560000000  0.4480840000000  0.5289260000000 1.0
C      1  0.4581250000000  0.4361070000000  0.5266420000000 1.0
C      1  0.5523920000000  0.4529630000000  0.4586720000000 1.0
C      1  0.5507920000000  0.5456960000000  0.5212100000000 1.0
C      1  0.4404880000000  0.5466080000000  0.4809520000000 1.0
C      1  0.5074160000000  0.5359910000000  0.4647540000000 1.0
C      1  0.4711610000000  0.5116790000000  0.5301190000000 1.0
C      1  0.4928270000000  0.4641030000000  0.4673100000000 1.0
C      1  0.5364530000000  0.4955550000000  0.5192380000000 1.0
C      1  0.5265330000000  0.5275540000000  0.5622600000000 1.0
C      1  0.4611670000000  0.5287540000000  0.4405640000000 1.0
C      1  0.4661770000000  0.4657210000000  0.5583130000000 1.0
C      1  0.5227000000000  0.4722810000000  0.4401360000000 1.0
C      1  0.4771150000000  0.4709950000000  0.4966870000000 1.0
C      1  0.5346160000000  0.4779680000000  0.4937580000000 1.0
C      1  0.5110000000000  0.5351850000000  0.4985630000000 1.0
C      1  0.4699140000000  0.5126850000000  0.4972150000000 1.0
END
