TITL C-26739-6686-2 -0.00168195662593298 125000 -314.31800269556 0 0 60 (C1) n - 1
REM
REM in /home/nfs/bkarasulu/CARBON/AIRSS/Generating-Clusters/AIREBO/Higher-Symm/Only-C60
REM
REM
REM
REM
REM
REM ./C.cell (28575a23ae977d3b5fae324c64b13b57)
REM
REM compiler GCC version 9.2.1 20190827 (Red Hat 9.2.1-1)
REM options -cpp -mtune=generic -march=x86-64 -g -O0 -fpre-include=/usr/include/finclude/math-vector-fortran.h
REM seed 1611057730 2072747880 -1946688060 -663166345 -2129526950 1809018707 -1411876346 2050406411 -367846405 -1481148535 511282130 1084433707 -1803253670 -1417822787 -28000924 66749062 1459852705 -1099757696 1624302659 1315048877 -449857585 -1328047258 -2049702706 -1718435338 2028582620 1500056947 -2056899852 -1860761303 865799628 -897321876 310250130 287546597 1598559332
REM
CELL 1.54180   50.00000   50.00000   50.00000   90.00000   90.00000   90.00000
LATT -1
SFAC C  
C      1  0.4942260000000  0.5766970000000  0.4855120000000 1.0
C      1  0.4933150000000  0.4713140000000  0.5776160000000 1.0
C      1  0.4963740000000  0.4469110000000  0.4421930000000 1.0
C      1  0.4800960000000  0.5496980000000  0.5297570000000 1.0
C      1  0.4744130000000  0.4510640000000  0.5309830000000 1.0
C      1  0.4759970000000  0.4982740000000  0.4461290000000 1.0
C      1  0.5455530000000  0.4884890000000  0.5611820000000 1.0
C      1  0.5462670000000  0.4623290000000  0.4556290000000 1.0
C      1  0.5535920000000  0.5612820000000  0.4783250000000 1.0
C      1  0.5180540000000  0.4449140000000  0.5245170000000 1.0
C      1  0.5151810000000  0.5006360000000  0.4398210000000 1.0
C      1  0.5140850000000  0.5497290000000  0.5287190000000 1.0
C      1  0.5053910000000  0.5283630000000  0.4483590000000 1.0
C      1  0.5004180000000  0.5321470000000  0.5524830000000 1.0
C      1  0.5022750000000  0.4378050000000  0.4985740000000 1.0
C      1  0.4289530000000  0.5227380000000  0.5197710000000 1.0
C      1  0.4271320000000  0.4628920000000  0.5115260000000 1.0
C      1  0.4224650000000  0.5172900000000  0.4641950000000 1.0
C      1  0.4716340000000  0.4800110000000  0.4803420000000 1.0
C      1  0.4756550000000  0.5293090000000  0.4950830000000 1.0
C      1  0.4731290000000  0.4893540000000  0.5315200000000 1.0
C      1  0.5700100000000  0.5329740000000  0.4737050000000 1.0
C      1  0.5622080000000  0.5094890000000  0.5419990000000 1.0
C      1  0.5680780000000  0.4612530000000  0.4799630000000 1.0
C      1  0.4290000000000  0.5441100000000  0.4642760000000 1.0
C      1  0.4291690000000  0.5037810000000  0.5408800000000 1.0
C      1  0.4342360000000  0.4665160000000  0.4846890000000 1.0
C      1  0.5319090000000  0.5161190000000  0.5168120000000 1.0
C      1  0.5266630000000  0.4788270000000  0.5035000000000 1.0
C      1  0.5287990000000  0.5067890000000  0.4842520000000 1.0
C      1  0.4458050000000  0.5196970000000  0.4985620000000 1.0
C      1  0.4412200000000  0.4775980000000  0.5308460000000 1.0
C      1  0.4417260000000  0.4961150000000  0.4787840000000 1.0
C      1  0.5432560000000  0.4992570000000  0.4396310000000 1.0
C      1  0.5441540000000  0.5516580000000  0.5299360000000 1.0
C      1  0.5454010000000  0.4498770000000  0.5235380000000 1.0
C      1  0.4982970000000  0.4719940000000  0.5188180000000 1.0
C      1  0.5001730000000  0.4952470000000  0.4698570000000 1.0
C      1  0.5025720000000  0.5266740000000  0.5065360000000 1.0
C      1  0.5578070000000  0.4405530000000  0.4988260000000 1.0
C      1  0.5545750000000  0.5250040000000  0.4487570000000 1.0
C      1  0.5593280000000  0.5358020000000  0.5472870000000 1.0
C      1  0.4728890000000  0.4644800000000  0.4501170000000 1.0
C      1  0.4701590000000  0.5615580000000  0.4993670000000 1.0
C      1  0.4685290000000  0.4700560000000  0.5589700000000 1.0
C      1  0.5151570000000  0.4851890000000  0.5707760000000 1.0
C      1  0.5135040000000  0.4367930000000  0.4572590000000 1.0
C      1  0.5108690000000  0.5650610000000  0.4709610000000 1.0
C      1  0.4518750000000  0.4472900000000  0.4706440000000 1.0
C      1  0.4541070000000  0.5515440000000  0.4708840000000 1.0
C      1  0.4512280000000  0.4993880000000  0.5626980000000 1.0
C      1  0.4733960000000  0.4501860000000  0.4968320000000 1.0
C      1  0.4771690000000  0.5287850000000  0.4612770000000 1.0
C      1  0.4714940000000  0.5201610000000  0.5447830000000 1.0
C      1  0.5295050000000  0.4514530000000  0.4834420000000 1.0
C      1  0.5305410000000  0.5373610000000  0.4694000000000 1.0
C      1  0.5226490000000  0.5098000000000  0.5478590000000 1.0
C      1  0.5498330000000  0.4805720000000  0.5286670000000 1.0
C      1  0.5554240000000  0.4911990000000  0.4699540000000 1.0
C      1  0.5530840000000  0.5385450000000  0.5024190000000 1.0
END
