TITL C-26731-8310-160 0.00289967793185766 125000 -320.556979627437 0 0 60 (C1) n - 1
REM
REM in /home/nfs/bkarasulu/CARBON/AIRSS/Generating-Clusters/AIREBO/Higher-Symm/Only-C60
REM
REM
REM
REM
REM
REM ./C.cell (28575a23ae977d3b5fae324c64b13b57)
REM
REM compiler GCC version 9.2.1 20190827 (Red Hat 9.2.1-1)
REM options -cpp -mtune=generic -march=x86-64 -g -O0 -fpre-include=/usr/include/finclude/math-vector-fortran.h
REM seed -2066338249 872205764 -1377019920 2070244354 -194047236 856874405 -510295900 739983875 2025523156 1063677905 1358193771 -738232292 1542604720 902817527 -1268156721 -1901458357 -88275534 1661436047 -1672066118 640061030 1814936272 -1069460758 1232642057 694854473 -2108331362 1853895544 -1222164340 -1576015332 730427144 -1454323192 681149499 1444580194 -1810140910
REM
CELL 1.54180   50.00000   50.00000   50.00000   90.00000   90.00000   90.00000
LATT -1
SFAC C  
C      1  0.4209810000000  0.4897550000000  0.4642450000000 1.0
C      1  0.4017980000000  0.5104820000000  0.4626340000000 1.0
C      1  0.3975910000000  0.5266620000000  0.4849970000000 1.0
C      1  0.4127030000000  0.5221930000000  0.5086880000000 1.0
C      1  0.4102130000000  0.4954290000000  0.5203380000000 1.0
C      1  0.4214420000000  0.4701740000000  0.5098230000000 1.0
C      1  0.4152300000000  0.4675420000000  0.4816040000000 1.0
C      1  0.4552300000000  0.4715880000000  0.5134430000000 1.0
C      1  0.4629600000000  0.4717820000000  0.4803110000000 1.0
C      1  0.4510320000000  0.4974290000000  0.4613650000000 1.0
C      1  0.4547180000000  0.5287650000000  0.4746130000000 1.0
C      1  0.4449670000000  0.5327980000000  0.5069630000000 1.0
C      1  0.4584310000000  0.5212500000000  0.5360020000000 1.0
C      1  0.4597400000000  0.4919010000000  0.5403990000000 1.0
C      1  0.4836120000000  0.4860240000000  0.5544810000000 1.0
C      1  0.4791440000000  0.4494250000000  0.5198220000000 1.0
C      1  0.4844580000000  0.4568860000000  0.4723680000000 1.0
C      1  0.4823800000000  0.4945860000000  0.4508600000000 1.0
C      1  0.4738940000000  0.5466340000000  0.4628070000000 1.0
C      1  0.4581800000000  0.5624210000000  0.5089400000000 1.0
C      1  0.4858920000000  0.5307720000000  0.5395870000000 1.0
C      1  0.5137740000000  0.4658530000000  0.4859250000000 1.0
C      1  0.5078110000000  0.5103360000000  0.4653080000000 1.0
C      1  0.5026470000000  0.5404560000000  0.4696730000000 1.0
C      1  0.5055800000000  0.5460430000000  0.5021540000000 1.0
C      1  0.5018760000000  0.5145180000000  0.5143580000000 1.0
C      1  0.5072430000000  0.4889260000000  0.5333550000000 1.0
C      1  0.5080450000000  0.4608440000000  0.5166980000000 1.0
C      1  0.5852770000000  0.4774410000000  0.4599740000000 1.0
C      1  0.5837890000000  0.5108900000000  0.4566480000000 1.0
C      1  0.5838770000000  0.5240430000000  0.4877140000000 1.0
C      1  0.5886440000000  0.5232280000000  0.5207090000000 1.0
C      1  0.5832230000000  0.5076320000000  0.5504350000000 1.0
C      1  0.5804140000000  0.4541220000000  0.5037370000000 1.0
C      1  0.5788240000000  0.4554520000000  0.4756890000000 1.0
C      1  0.5319100000000  0.4546600000000  0.4592370000000 1.0
C      1  0.5365880000000  0.4783470000000  0.4404580000000 1.0
C      1  0.5353640000000  0.5364860000000  0.4778090000000 1.0
C      1  0.5372250000000  0.5422330000000  0.5103470000000 1.0
C      1  0.5367570000000  0.5220280000000  0.5376970000000 1.0
C      1  0.5353850000000  0.4913160000000  0.5522890000000 1.0
C      1  0.5378280000000  0.4637080000000  0.5324500000000 1.0
C      1  0.5030500000000  0.4406390000000  0.4570270000000 1.0
C      1  0.5133540000000  0.4935730000000  0.4378930000000 1.0
C      1  0.4674950000000  0.5655480000000  0.4440920000000 1.0
C      1  0.4831550000000  0.5651480000000  0.5112100000000 1.0
C      1  0.5108220000000  0.5363430000000  0.5521290000000 1.0
C      1  0.5082660000000  0.4855920000000  0.5729350000000 1.0
C      1  0.4737340000000  0.4245600000000  0.5257720000000 1.0
C      1  0.5666050000000  0.5336070000000  0.5446300000000 1.0
C      1  0.5669480000000  0.4893130000000  0.5623560000000 1.0
C      1  0.5603710000000  0.4540850000000  0.5221940000000 1.0
C      1  0.5580080000000  0.4397040000000  0.4646160000000 1.0
C      1  0.5620340000000  0.4889850000000  0.4416640000000 1.0
C      1  0.5563820000000  0.5256160000000  0.4684540000000 1.0
C      1  0.5683660000000  0.5471930000000  0.5071950000000 1.0
C      1  0.5390570000000  0.5001880000000  0.5117330000000 1.0
C      1  0.4743480000000  0.5059900000000  0.5028120000000 1.0
C      1  0.5180440000000  0.4966920000000  0.4903360000000 1.0
C      1  0.4453300000000  0.5005780000000  0.5007420000000 1.0
END
