TITL C-26729-7230-68 -2535.80125386825 125000 -309.572098376324 0 0 60 (C1) n - 1
REM
REM in /home/nfs/bkarasulu/CARBON/AIRSS/Generating-Clusters/AIREBO/Higher-Symm/Only-C60
REM
REM
REM
REM
REM
REM ./C.cell (28575a23ae977d3b5fae324c64b13b57)
REM
REM compiler GCC version 9.2.1 20190827 (Red Hat 9.2.1-1)
REM options -cpp -mtune=generic -march=x86-64 -g -O0 -fpre-include=/usr/include/finclude/math-vector-fortran.h
REM seed -1257419691 -392187277 1643274700 -704856358 1603001713 -1425830231 576944668 -1905151017 -947904626 569474700 404310774 -7019921 -2079628455 2044645588 2015811933 1998986077 -1045989080 -513616750 1794707116 -1144214228 1898950702 455061407 52699735 -82049412 -586805888 1921080636 -771672942 -1362394369 1469297932 1458493792 -556940378 1517270987 -1334962217
REM
CELL 1.54180   50.00000   50.00000   50.00000   90.00000   90.00000   90.00000
LATT -1
SFAC C  
C      1  0.4934220000000  0.4484570000000  0.4784180000000 1.0
C      1  0.4672380000000  0.4638870000000  0.4849460000000 1.0
C      1  0.4702650000000  0.4915770000000  0.4712930000000 1.0
C      1  0.4619500000000  0.5175670000000  0.4786750000000 1.0
C      1  0.4787260000000  0.5394750000000  0.4718100000000 1.0
C      1  0.4999920000000  0.5559850000000  0.4887200000000 1.0
C      1  0.5207120000000  0.5362930000000  0.4733870000000 1.0
C      1  0.5462180000000  0.5279100000000  0.4816220000000 1.0
C      1  0.5524280000000  0.4980530000000  0.4884150000000 1.0
C      1  0.5303020000000  0.4820810000000  0.4730500000000 1.0
C      1  0.5202810000000  0.4564920000000  0.4793170000000 1.0
C      1  0.4817080000000  0.4477330000000  0.5332540000000 1.0
C      1  0.4628210000000  0.4637190000000  0.5147810000000 1.0
C      1  0.4510790000000  0.4913750000000  0.5267580000000 1.0
C      1  0.4597000000000  0.5195960000000  0.5386920000000 1.0
C      1  0.4726560000000  0.5486560000000  0.5339150000000 1.0
C      1  0.4990100000000  0.5533360000000  0.5186710000000 1.0
C      1  0.5279430000000  0.5428340000000  0.5287730000000 1.0
C      1  0.5496390000000  0.5203220000000  0.5360190000000 1.0
C      1  0.5525620000000  0.4949930000000  0.5185950000000 1.0
C      1  0.5394930000000  0.4679060000000  0.5306010000000 1.0
C      1  0.5113120000000  0.4574390000000  0.5405250000000 1.0
C      1  0.5386790000000  0.4365940000000  0.4823040000000 1.0
C      1  0.4891000000000  0.4217160000000  0.4722080000000 1.0
C      1  0.4452440000000  0.4502450000000  0.4723470000000 1.0
C      1  0.4787810000000  0.4894550000000  0.4448220000000 1.0
C      1  0.4356010000000  0.5227060000000  0.4827410000000 1.0
C      1  0.4783890000000  0.5463330000000  0.4449320000000 1.0
C      1  0.5013120000000  0.5830910000000  0.4808340000000 1.0
C      1  0.5148470000000  0.5300780000000  0.4468330000000 1.0
C      1  0.5672010000000  0.5457600000000  0.4826040000000 1.0
C      1  0.5780460000000  0.4909190000000  0.4777990000000 1.0
C      1  0.5250600000000  0.4914660000000  0.4476740000000 1.0
C      1  0.4422260000000  0.5464240000000  0.5501420000000 1.0
C      1  0.4713460000000  0.5719990000000  0.5586060000000 1.0
C      1  0.5117820000000  0.5624550000000  0.5495130000000 1.0
C      1  0.5492650000000  0.5496660000000  0.5542040000000 1.0
C      1  0.5730930000000  0.5187250000000  0.5605860000000 1.0
C      1  0.5636090000000  0.4818910000000  0.5485560000000 1.0
C      1  0.5399280000000  0.4407130000000  0.5510100000000 1.0
C      1  0.5016070000000  0.4271550000000  0.5525630000000 1.0
C      1  0.4623250000000  0.4313270000000  0.5558660000000 1.0
C      1  0.4428130000000  0.4636550000000  0.5428980000000 1.0
C      1  0.4279120000000  0.5090550000000  0.5445820000000 1.0
C      1  0.5402250000000  0.4685770000000  0.5705010000000 1.0
C      1  0.5185080000000  0.4440860000000  0.5775050000000 1.0
C      1  0.4862820000000  0.4495540000000  0.5730540000000 1.0
C      1  0.4542810000000  0.4586010000000  0.5745050000000 1.0
C      1  0.4460200000000  0.4891320000000  0.5662680000000 1.0
C      1  0.4405620000000  0.5211340000000  0.5737400000000 1.0
C      1  0.4670040000000  0.5404030000000  0.5726480000000 1.0
C      1  0.4946030000000  0.5566850000000  0.5778570000000 1.0
C      1  0.5269000000000  0.5535230000000  0.5795230000000 1.0
C      1  0.5433430000000  0.5247660000000  0.5772930000000 1.0
C      1  0.5578400000000  0.4948940000000  0.5794380000000 1.0
C      1  0.5074000000000  0.5130370000000  0.4247180000000 1.0
C      1  0.4970680000000  0.5070080000000  0.4007680000000 1.0
C      1  0.4788240000000  0.4960060000000  0.3520090000000 1.0
C      1  0.4891820000000  0.5014760000000  0.3759330000000 1.0
C      1  0.4704520000000  0.4921230000000  0.3274760000000 1.0
END
