TITL C-26738-6379-6 -0.000941851332069747 125000 -308.881684540265 0 0 60 (C1) n - 1
REM
REM in /home/nfs/bkarasulu/CARBON/AIRSS/Generating-Clusters/AIREBO/Higher-Symm/Only-C60
REM
REM
REM
REM
REM
REM ./C.cell (28575a23ae977d3b5fae324c64b13b57)
REM
REM compiler GCC version 9.2.1 20190827 (Red Hat 9.2.1-1)
REM options -cpp -mtune=generic -march=x86-64 -g -O0 -fpre-include=/usr/include/finclude/math-vector-fortran.h
REM seed -1939228614 -2091954403 2047544262 -949415790 1970772698 1877133881 -1421030012 641678188 1214277809 1012242544 383730609 -1916663300 1053503211 203593051 -1849953498 -1170274901 -429387513 276719143 -47514354 1642124882 1337698746 -1167760233 -1456120832 239372432 -1382899398 2096260 1318062041 -454755811 293001936 -818823119 -1851906186 -1427537456 -528375375
REM
CELL 1.54180   50.00000   50.00000   50.00000   90.00000   90.00000   90.00000
LATT -1
SFAC C  
C      1  0.5574430000000  0.4652110000000  0.5189070000000 1.0
C      1  0.4452500000000  0.5079670000000  0.5387110000000 1.0
C      1  0.4160630000000  0.4892030000000  0.4618870000000 1.0
C      1  0.5019050000000  0.5637650000000  0.5483880000000 1.0
C      1  0.4274510000000  0.4319610000000  0.5065410000000 1.0
C      1  0.4688220000000  0.4805020000000  0.4695400000000 1.0
C      1  0.5012100000000  0.5823330000000  0.4808690000000 1.0
C      1  0.5132460000000  0.5137350000000  0.4888530000000 1.0
C      1  0.5144720000000  0.4608240000000  0.4738840000000 1.0
C      1  0.4870280000000  0.5669110000000  0.4663980000000 1.0
C      1  0.4695870000000  0.5251550000000  0.5468200000000 1.0
C      1  0.5302030000000  0.4800860000000  0.5050110000000 1.0
C      1  0.5493670000000  0.4796520000000  0.5459520000000 1.0
C      1  0.5086220000000  0.4927620000000  0.5225850000000 1.0
C      1  0.5609880000000  0.4721690000000  0.4667470000000 1.0
C      1  0.5452740000000  0.5101150000000  0.4997020000000 1.0
C      1  0.4782700000000  0.5558750000000  0.5530210000000 1.0
C      1  0.5356940000000  0.5244560000000  0.5290400000000 1.0
C      1  0.4360300000000  0.5063190000000  0.5125480000000 1.0
C      1  0.4507310000000  0.4815690000000  0.5532610000000 1.0
C      1  0.4391340000000  0.4967890000000  0.4712290000000 1.0
C      1  0.5000090000000  0.5046580000000  0.4380910000000 1.0
C      1  0.5697690000000  0.4405810000000  0.5211230000000 1.0
C      1  0.5288030000000  0.4882880000000  0.4303780000000 1.0
C      1  0.4809890000000  0.5082540000000  0.4849940000000 1.0
C      1  0.4688990000000  0.4790620000000  0.5246940000000 1.0
C      1  0.4709470000000  0.4929480000000  0.4379600000000 1.0
C      1  0.4914440000000  0.4617780000000  0.4523710000000 1.0
C      1  0.5188300000000  0.5508260000000  0.5238430000000 1.0
C      1  0.5427590000000  0.4502860000000  0.4680570000000 1.0
C      1  0.5157810000000  0.4782760000000  0.5510700000000 1.0
C      1  0.4702250000000  0.4296640000000  0.4834740000000 1.0
C      1  0.5062060000000  0.4664180000000  0.4287810000000 1.0
C      1  0.4824060000000  0.4737700000000  0.5557660000000 1.0
C      1  0.5189740000000  0.5117440000000  0.5561440000000 1.0
C      1  0.4444850000000  0.5242680000000  0.4871240000000 1.0
C      1  0.5478880000000  0.5156780000000  0.4662370000000 1.0
C      1  0.4818210000000  0.5099830000000  0.5189400000000 1.0
C      1  0.5577890000000  0.5630070000000  0.4997490000000 1.0
C      1  0.5573390000000  0.5066470000000  0.5464870000000 1.0
C      1  0.5166820000000  0.4451330000000  0.5472430000000 1.0
C      1  0.4678270000000  0.5594560000000  0.5145770000000 1.0
C      1  0.5090040000000  0.4359150000000  0.5228870000000 1.0
C      1  0.5002790000000  0.5314880000000  0.4535780000000 1.0
C      1  0.5312960000000  0.5365940000000  0.4586360000000 1.0
C      1  0.4472630000000  0.5546530000000  0.4972010000000 1.0
C      1  0.4714480000000  0.5371030000000  0.4707340000000 1.0
C      1  0.4709130000000  0.4600900000000  0.4966670000000 1.0
C      1  0.5157830000000  0.5454890000000  0.4843960000000 1.0
C      1  0.5271360000000  0.5708930000000  0.4996620000000 1.0
C      1  0.5123350000000  0.4925790000000  0.4661450000000 1.0
C      1  0.5042630000000  0.4581330000000  0.5030810000000 1.0
C      1  0.4249160000000  0.4815440000000  0.5053670000000 1.0
C      1  0.4378850000000  0.4569900000000  0.5030240000000 1.0
C      1  0.5674840000000  0.4834790000000  0.4926420000000 1.0
C      1  0.5639410000000  0.5385430000000  0.5000430000000 1.0
C      1  0.5501330000000  0.4927630000000  0.4497140000000 1.0
C      1  0.5041630000000  0.4099500000000  0.5158800000000 1.0
C      1  0.4891520000000  0.5429160000000  0.5167990000000 1.0
C      1  0.4959450000000  0.5227920000000  0.5665480000000 1.0
END
