TITL C-26727-7196-138 -0.000351530742901946 125000 -356.428189818594 0 0 60 (C1) n - 1
REM
REM in /home/nfs/bkarasulu/CARBON/AIRSS/Generating-Clusters/AIREBO/Higher-Symm/Only-C60
REM
REM
REM
REM
REM
REM ./C.cell (28575a23ae977d3b5fae324c64b13b57)
REM
REM compiler GCC version 9.2.1 20190827 (Red Hat 9.2.1-1)
REM options -cpp -mtune=generic -march=x86-64 -g -O0 -fpre-include=/usr/include/finclude/math-vector-fortran.h
REM seed 1677048494 -1313946968 -1219380047 231329820 -429396566 -310062653 1536977820 1023418046 -1571562433 -2008645708 -1069535193 -2137527549 1174175507 -1020753029 -2114749704 1586044646 1322903554 1880474188 1333441007 9117656 -962902305 18698904 207333574 669533438 1099262184 220253898 -1548376050 1712677908 1330585596 1813186213 -1237067158 1431968765 461950755
REM
CELL 1.54180   50.00000   50.00000   50.00000   90.00000   90.00000   90.00000
LATT -1
SFAC C  
C      1  0.4446590000000  0.5456370000000  0.5626350000000 1.0
C      1  0.4496110000000  0.4560900000000  0.4378310000000 1.0
C      1  0.5525100000000  0.4583750000000  0.5616270000000 1.0
C      1  0.5531020000000  0.5435860000000  0.4363730000000 1.0
C      1  0.4476840000000  0.5624470000000  0.5412450000000 1.0
C      1  0.4498050000000  0.4370470000000  0.4573400000000 1.0
C      1  0.5519160000000  0.5613410000000  0.4570890000000 1.0
C      1  0.5545700000000  0.4378440000000  0.5437280000000 1.0
C      1  0.5173010000000  0.4708640000000  0.4346240000000 1.0
C      1  0.5185520000000  0.5276440000000  0.5637390000000 1.0
C      1  0.4792820000000  0.5253360000000  0.4382260000000 1.0
C      1  0.4848110000000  0.4764330000000  0.5579950000000 1.0
C      1  0.5178000000000  0.4347860000000  0.4714150000000 1.0
C      1  0.5159660000000  0.5610670000000  0.5277770000000 1.0
C      1  0.4808100000000  0.4387430000000  0.5262490000000 1.0
C      1  0.4846070000000  0.5598760000000  0.4726000000000 1.0
C      1  0.5341590000000  0.4782500000000  0.5680840000000 1.0
C      1  0.5377200000000  0.5213280000000  0.4307180000000 1.0
C      1  0.4594930000000  0.5228850000000  0.5688510000000 1.0
C      1  0.4668100000000  0.4773340000000  0.4324980000000 1.0
C      1  0.5338400000000  0.5680920000000  0.4771910000000 1.0
C      1  0.5392700000000  0.4318860000000  0.5214810000000 1.0
C      1  0.4669860000000  0.5681220000000  0.5219600000000 1.0
C      1  0.4671900000000  0.4322750000000  0.4785660000000 1.0
C      1  0.4872140000000  0.4912140000000  0.4747500000000 1.0
C      1  0.4938210000000  0.5132140000000  0.5358740000000 1.0
C      1  0.5084440000000  0.5120880000000  0.4664660000000 1.0
C      1  0.5101090000000  0.4845090000000  0.5367530000000 1.0
C      1  0.4879240000000  0.4736750000000  0.4930420000000 1.0
C      1  0.4974770000000  0.5348940000000  0.5162210000000 1.0
C      1  0.5106860000000  0.4672810000000  0.5123030000000 1.0
C      1  0.5064040000000  0.5364830000000  0.4836910000000 1.0
C      1  0.4636680000000  0.4980220000000  0.5501000000000 1.0
C      1  0.4670290000000  0.5005600000000  0.4517790000000 1.0
C      1  0.5329310000000  0.5040810000000  0.5509000000000 1.0
C      1  0.5307230000000  0.4950460000000  0.4483350000000 1.0
C      1  0.4712720000000  0.5476420000000  0.4990630000000 1.0
C      1  0.4673440000000  0.4518530000000  0.5015900000000 1.0
C      1  0.5317820000000  0.5494580000000  0.5020830000000 1.0
C      1  0.5319170000000  0.4488140000000  0.4950380000000 1.0
C      1  0.5096300000000  0.5794590000000  0.4714730000000 1.0
C      1  0.5089740000000  0.4329560000000  0.5233420000000 1.0
C      1  0.4929350000000  0.4215970000000  0.4737010000000 1.0
C      1  0.4908230000000  0.5803990000000  0.5278810000000 1.0
C      1  0.5094860000000  0.4729110000000  0.5783350000000 1.0
C      1  0.5074810000000  0.5228400000000  0.4321990000000 1.0
C      1  0.4923960000000  0.4725720000000  0.4214590000000 1.0
C      1  0.4889010000000  0.5246670000000  0.5659030000000 1.0
C      1  0.4488520000000  0.5285260000000  0.4898170000000 1.0
C      1  0.4433700000000  0.4680800000000  0.5136960000000 1.0
C      1  0.5543910000000  0.4664710000000  0.4833090000000 1.0
C      1  0.5532360000000  0.5301550000000  0.5122380000000 1.0
C      1  0.4437760000000  0.4860260000000  0.5311760000000 1.0
C      1  0.4451970000000  0.5119700000000  0.4715180000000 1.0
C      1  0.5536980000000  0.4842270000000  0.4659200000000 1.0
C      1  0.5540190000000  0.5140020000000  0.5310810000000 1.0
C      1  0.5238270000000  0.4462040000000  0.4464310000000 1.0
C      1  0.4714070000000  0.5499820000000  0.4467120000000 1.0
C      1  0.4735860000000  0.4484370000000  0.5505900000000 1.0
C      1  0.5268160000000  0.5523970000000  0.5553920000000 1.0
END
