TITL C-26734-8308-15 0.000514643242724991 125000 -348.938796468022 0 0 60 (C1) n - 1
REM
REM in /home/nfs/bkarasulu/CARBON/AIRSS/Generating-Clusters/AIREBO/Higher-Symm/Only-C60
REM
REM
REM
REM
REM
REM ./C.cell (28575a23ae977d3b5fae324c64b13b57)
REM
REM compiler GCC version 9.2.1 20190827 (Red Hat 9.2.1-1)
REM options -cpp -mtune=generic -march=x86-64 -g -O0 -fpre-include=/usr/include/finclude/math-vector-fortran.h
REM seed -1866626515 -1303896830 1997509869 853804477 2146110351 1739916453 -608781169 -602069391 652760590 2097495326 -111523154 416063445 -1939941940 1501990422 -555140733 598538910 -1994958398 1655746004 1453078113 125025352 -1505441164 -1622352490 -350210796 228410719 1055517062 -1560956973 501627892 -1032290047 -1775454825 1847818298 -1022592006 794021079 -2122000880
REM
CELL 1.54180   50.00000   50.00000   50.00000   90.00000   90.00000   90.00000
LATT -1
SFAC C  
C      1  0.5357280000000  0.5090180000000  0.5118760000000 1.0
C      1  0.4847490000000  0.4952700000000  0.5350080000000 1.0
C      1  0.4659220000000  0.4985620000000  0.4836260000000 1.0
C      1  0.5150560000000  0.5052960000000  0.4656570000000 1.0
C      1  0.5351470000000  0.5191560000000  0.4837440000000 1.0
C      1  0.4849660000000  0.5132090000000  0.4647010000000 1.0
C      1  0.4603670000000  0.5038970000000  0.5142520000000 1.0
C      1  0.5141500000000  0.4956710000000  0.5326680000000 1.0
C      1  0.4329910000000  0.4808150000000  0.4696050000000 1.0
C      1  0.5332620000000  0.4872160000000  0.4350000000000 1.0
C      1  0.5748800000000  0.4782990000000  0.5199560000000 1.0
C      1  0.4770440000000  0.4732800000000  0.5794220000000 1.0
C      1  0.4206360000000  0.4856190000000  0.5390350000000 1.0
C      1  0.5332930000000  0.4787710000000  0.5676760000000 1.0
C      1  0.5655360000000  0.4764070000000  0.4799700000000 1.0
C      1  0.4863350000000  0.4739780000000  0.4235270000000 1.0
C      1  0.5365200000000  0.4618120000000  0.4841730000000 1.0
C      1  0.5272500000000  0.4665840000000  0.5392260000000 1.0
C      1  0.4472350000000  0.4826610000000  0.5357510000000 1.0
C      1  0.4912950000000  0.4637070000000  0.4514570000000 1.0
C      1  0.5439590000000  0.4772330000000  0.5135760000000 1.0
C      1  0.5187880000000  0.4749690000000  0.4615150000000 1.0
C      1  0.4620030000000  0.4686790000000  0.4726860000000 1.0
C      1  0.4728180000000  0.4683630000000  0.5491680000000 1.0
C      1  0.5096080000000  0.4225910000000  0.4701440000000 1.0
C      1  0.5247940000000  0.4251190000000  0.5155990000000 1.0
C      1  0.4839220000000  0.4444530000000  0.5349510000000 1.0
C      1  0.4672870000000  0.4413310000000  0.4873840000000 1.0
C      1  0.5114220000000  0.4424060000000  0.5332130000000 1.0
C      1  0.5282180000000  0.4328340000000  0.4887090000000 1.0
C      1  0.4862910000000  0.4376670000000  0.4657400000000 1.0
C      1  0.4683980000000  0.4343780000000  0.5139110000000 1.0
C      1  0.5119110000000  0.5524040000000  0.5308090000000 1.0
C      1  0.4644120000000  0.5629480000000  0.5125500000000 1.0
C      1  0.4829410000000  0.5588210000000  0.4636790000000 1.0
C      1  0.5339940000000  0.5591270000000  0.4830690000000 1.0
C      1  0.5132520000000  0.5551440000000  0.4637670000000 1.0
C      1  0.4642670000000  0.5536990000000  0.4851160000000 1.0
C      1  0.4847720000000  0.5523160000000  0.5309770000000 1.0
C      1  0.5315450000000  0.5619400000000  0.5111370000000 1.0
C      1  0.4497740000000  0.5348910000000  0.5233530000000 1.0
C      1  0.4794070000000  0.5348320000000  0.4455330000000 1.0
C      1  0.5574970000000  0.5400140000000  0.4782810000000 1.0
C      1  0.5225720000000  0.5258770000000  0.5456010000000 1.0
C      1  0.4513170000000  0.5285110000000  0.4840650000000 1.0
C      1  0.4748430000000  0.5252540000000  0.5446120000000 1.0
C      1  0.5481040000000  0.5366510000000  0.5257220000000 1.0
C      1  0.5189600000000  0.5318800000000  0.4477800000000 1.0
C      1  0.4868120000000  0.4951160000000  0.5875730000000 1.0
C      1  0.4224840000000  0.5018140000000  0.4779420000000 1.0
C      1  0.5263740000000  0.5052950000000  0.4190920000000 1.0
C      1  0.5873280000000  0.5004800000000  0.5191590000000 1.0
C      1  0.4882660000000  0.4958900000000  0.4117570000000 1.0
C      1  0.4090540000000  0.5083290000000  0.5283110000000 1.0
C      1  0.5248040000000  0.5005790000000  0.5763740000000 1.0
C      1  0.5716530000000  0.5004660000000  0.4824560000000 1.0
C      1  0.4990920000000  0.5255270000000  0.4209020000000 1.0
C      1  0.5716410000000  0.5254230000000  0.5055500000000 1.0
C      1  0.4252520000000  0.5205800000000  0.5044230000000 1.0
C      1  0.4978030000000  0.5177510000000  0.5674840000000 1.0
END
