TITL C-26737-6152-50 -0.000198001177562256 125000 -332.835594077279 0 0 60 (Ci) n - 1
REM
REM in /home/nfs/bkarasulu/CARBON/AIRSS/Generating-Clusters/AIREBO/Higher-Symm/Only-C60
REM
REM
REM
REM
REM
REM ./C.cell (28575a23ae977d3b5fae324c64b13b57)
REM
REM compiler GCC version 9.2.1 20190827 (Red Hat 9.2.1-1)
REM options -cpp -mtune=generic -march=x86-64 -g -O0 -fpre-include=/usr/include/finclude/math-vector-fortran.h
REM seed 1338806907 851502284 -1840918216 1714513288 1862132036 1631354182 -2123611087 1473751624 790816152 -413935007 1565573432 719522779 237786234 -1777966499 -2027612740 86749768 -76439687 825821933 -761248520 -2047381273 1876199975 -1020522152 1077841481 515886297 1307959313 -1649127093 -1662389717 -1460649211 1573660137 992013519 -1277201032 -1034264713 880238834
REM
CELL 1.54180   50.00000   50.00000   50.00000   90.00000   90.00000   90.00000
LATT -1
SFAC C  
C      1  0.5195540000000  0.4875090000000  0.5398000000000 1.0
C      1  0.5276570000000  0.5040460000000  0.4633760000000 1.0
C      1  0.4990220000000  0.5109810000000  0.5379950000000 1.0
C      1  0.4804610000000  0.5124730000000  0.4602160000000 1.0
C      1  0.4723890000000  0.4958830000000  0.5366550000000 1.0
C      1  0.5009940000000  0.4890160000000  0.4620140000000 1.0
C      1  0.4706150000000  0.5511100000000  0.5458760000000 1.0
C      1  0.4294070000000  0.4937980000000  0.4515340000000 1.0
C      1  0.4685740000000  0.4420160000000  0.5457210000000 1.0
C      1  0.5293740000000  0.4488760000000  0.4541070000000 1.0
C      1  0.5706120000000  0.5061830000000  0.5484540000000 1.0
C      1  0.5314400000000  0.5580500000000  0.4542860000000 1.0
C      1  0.4332000000000  0.5275860000000  0.5144990000000 1.0
C      1  0.4377900000000  0.4531230000000  0.4848390000000 1.0
C      1  0.5092550000000  0.4332320000000  0.5148500000000 1.0
C      1  0.5667770000000  0.4724210000000  0.4854730000000 1.0
C      1  0.5622060000000  0.5468650000000  0.5151620000000 1.0
C      1  0.4907400000000  0.5667610000000  0.4851530000000 1.0
C      1  0.5440190000000  0.4617480000000  0.5064040000000 1.0
C      1  0.5567630000000  0.5211420000000  0.4961780000000 1.0
C      1  0.5100980000000  0.5536590000000  0.5074310000000 1.0
C      1  0.4559780000000  0.5382440000000  0.4935880000000 1.0
C      1  0.4432370000000  0.4788580000000  0.5038060000000 1.0
C      1  0.4898950000000  0.4463390000000  0.4925760000000 1.0
C      1  0.4822970000000  0.4433790000000  0.4633080000000 1.0
C      1  0.5490650000000  0.4608550000000  0.5381360000000 1.0
C      1  0.5637760000000  0.5202610000000  0.4660520000000 1.0
C      1  0.5176980000000  0.5566240000000  0.5367000000000 1.0
C      1  0.4509500000000  0.5391290000000  0.4618530000000 1.0
C      1  0.4362270000000  0.4797720000000  0.5339300000000 1.0
C      1  0.4650060000000  0.5766810000000  0.5000580000000 1.0
C      1  0.4129010000000  0.5082430000000  0.4993120000000 1.0
C      1  0.4473100000000  0.4269750000000  0.5012380000000 1.0
C      1  0.5349840000000  0.4233140000000  0.4999320000000 1.0
C      1  0.5870840000000  0.4917590000000  0.5006550000000 1.0
C      1  0.5526700000000  0.5730350000000  0.4988030000000 1.0
C      1  0.4414390000000  0.5102240000000  0.5386830000000 1.0
C      1  0.4554880000000  0.4450510000000  0.4594440000000 1.0
C      1  0.5181060000000  0.4534380000000  0.5357080000000 1.0
C      1  0.5585040000000  0.4898040000000  0.4613160000000 1.0
C      1  0.5445070000000  0.5549480000000  0.5405590000000 1.0
C      1  0.4819080000000  0.5465450000000  0.4642980000000 1.0
C      1  0.4754090000000  0.4297820000000  0.5176090000000 1.0
C      1  0.5487320000000  0.4443200000000  0.4783680000000 1.0
C      1  0.5786030000000  0.5173900000000  0.5207220000000 1.0
C      1  0.5245830000000  0.5702370000000  0.4824100000000 1.0
C      1  0.4512540000000  0.5556770000000  0.5216190000000 1.0
C      1  0.4213970000000  0.4826000000000  0.4792650000000 1.0
C      1  0.5215500000000  0.4821070000000  0.5080450000000 1.0
C      1  0.5287150000000  0.5090420000000  0.4952260000000 1.0
C      1  0.5047270000000  0.5242130000000  0.5069230000000 1.0
C      1  0.4784480000000  0.5178850000000  0.4919690000000 1.0
C      1  0.4712860000000  0.4909520000000  0.5047970000000 1.0
C      1  0.4952720000000  0.4757840000000  0.4930850000000 1.0
C      1  0.4959330000000  0.5409200000000  0.5474290000000 1.0
C      1  0.4487220000000  0.5120010000000  0.4488970000000 1.0
C      1  0.4594520000000  0.4669640000000  0.5490910000000 1.0
C      1  0.5040580000000  0.4590760000000  0.4525690000000 1.0
C      1  0.5513000000000  0.4879790000000  0.5510990000000 1.0
C      1  0.5405850000000  0.5331160000000  0.4508970000000 1.0
END
