TITL C-26740-8352-164 4.91151770480081e-05 125000 -339.584423732771 0 0 60 (Ci) n - 1
REM
REM in /home/nfs/bkarasulu/CARBON/AIRSS/Generating-Clusters/AIREBO/Higher-Symm/Only-C60
REM
REM
REM
REM
REM
REM ./C.cell (28575a23ae977d3b5fae324c64b13b57)
REM
REM compiler GCC version 9.2.1 20190827 (Red Hat 9.2.1-1)
REM options -cpp -mtune=generic -march=x86-64 -g -O0 -fpre-include=/usr/include/finclude/math-vector-fortran.h
REM seed -337671709 1638463268 -116697396 -1180713298 2145272427 1432146606 -416459653 1234396574 1923810118 -556222304 -907785268 2066077214 -1928875495 2087649114 -1607934031 174136846 609280714 309047030 -1031993326 -644664540 1459934103 -540514274 951626449 -1055237474 301037323 -2129512970 -1197023325 875912866 -233658650 -1849000402 -1976573547 -315230732 1725606827
REM
CELL 1.54180   50.00000   50.00000   50.00000   90.00000   90.00000   90.00000
LATT -1
SFAC C  
C      1  0.5752680000000  0.5104730000000  0.5333880000000 1.0
C      1  0.5265870000000  0.5731410000000  0.4645040000000 1.0
C      1  0.4543600000000  0.5629520000000  0.5357300000000 1.0
C      1  0.4247320000000  0.4895270000000  0.4666120000000 1.0
C      1  0.4734130000000  0.4268590000000  0.5354960000000 1.0
C      1  0.5456400000000  0.4370480000000  0.4642700000000 1.0
C      1  0.5090690000000  0.5269730000000  0.5198360000000 1.0
C      1  0.4839720000000  0.5235900000000  0.4803450000000 1.0
C      1  0.4685260000000  0.4955910000000  0.5260480000000 1.0
C      1  0.4909310000000  0.4730270000000  0.4801640000000 1.0
C      1  0.5160280000000  0.4764100000000  0.5196550000000 1.0
C      1  0.5314740000000  0.5044090000000  0.4739520000000 1.0
C      1  0.5253340000000  0.4617370000000  0.4974260000000 1.0
C      1  0.5471390000000  0.5065460000000  0.4975010000000 1.0
C      1  0.5139690000000  0.5437140000000  0.4976390000000 1.0
C      1  0.4746660000000  0.5382630000000  0.5025740000000 1.0
C      1  0.4528610000000  0.4934540000000  0.5024990000000 1.0
C      1  0.4860310000000  0.4562860000000  0.5023610000000 1.0
C      1  0.5302230000000  0.4597440000000  0.4219820000000 1.0
C      1  0.5445590000000  0.5042250000000  0.5727920000000 1.0
C      1  0.5187740000000  0.5465730000000  0.4221840000000 1.0
C      1  0.4697770000000  0.5402560000000  0.5780180000000 1.0
C      1  0.4554410000000  0.4957750000000  0.4272080000000 1.0
C      1  0.4812260000000  0.4534270000000  0.5778160000000 1.0
C      1  0.5411790000000  0.4390640000000  0.4925420000000 1.0
C      1  0.5737490000000  0.5104110000000  0.5048180000000 1.0
C      1  0.5229000000000  0.5699080000000  0.4927830000000 1.0
C      1  0.4588210000000  0.5609360000000  0.5074580000000 1.0
C      1  0.4262510000000  0.4895890000000  0.4951820000000 1.0
C      1  0.4771000000000  0.4300920000000  0.5072170000000 1.0
C      1  0.4673590000000  0.5423960000000  0.5507420000000 1.0
C      1  0.4500880000000  0.4935740000000  0.4541700000000 1.0
C      1  0.4800250000000  0.4502370000000  0.5505280000000 1.0
C      1  0.5326410000000  0.4576040000000  0.4492580000000 1.0
C      1  0.5499120000000  0.5064260000000  0.5458300000000 1.0
C      1  0.5199750000000  0.5497630000000  0.4494720000000 1.0
C      1  0.4689580000000  0.5625760000000  0.5932640000000 1.0
C      1  0.4376920000000  0.5083870000000  0.4111640000000 1.0
C      1  0.4643830000000  0.4394340000000  0.5936690000000 1.0
C      1  0.5310420000000  0.4374240000000  0.4067360000000 1.0
C      1  0.5623080000000  0.4916130000000  0.5888360000000 1.0
C      1  0.5356170000000  0.5605660000000  0.4063310000000 1.0
C      1  0.5008300000000  0.5293910000000  0.4115110000000 1.0
C      1  0.4729080000000  0.5159290000000  0.5893930000000 1.0
C      1  0.4782250000000  0.4854410000000  0.4169850000000 1.0
C      1  0.4991700000000  0.4706090000000  0.5884890000000 1.0
C      1  0.5270920000000  0.4840710000000  0.4106070000000 1.0
C      1  0.5217750000000  0.5145590000000  0.5830150000000 1.0
C      1  0.4712240000000  0.4961070000000  0.4763840000000 1.0
C      1  0.4869500000000  0.4721980000000  0.5306260000000 1.0
C      1  0.5200970000000  0.4768920000000  0.4692180000000 1.0
C      1  0.5287760000000  0.5038930000000  0.5236160000000 1.0
C      1  0.5130500000000  0.5278020000000  0.4693740000000 1.0
C      1  0.4799030000000  0.5231080000000  0.5307820000000 1.0
C      1  0.4734260000000  0.4109260000000  0.4888420000000 1.0
C      1  0.5499970000000  0.4216230000000  0.5108850000000 1.0
C      1  0.5945560000000  0.5135310000000  0.4882210000000 1.0
C      1  0.5265740000000  0.5890740000000  0.5111580000000 1.0
C      1  0.4500030000000  0.5783770000000  0.4891150000000 1.0
C      1  0.4054440000000  0.4864690000000  0.5117790000000 1.0
END
