TITL C-26726-4881-103 0.000403729844200071 125000 -338.698483607972 0 0 60 (C1) n - 1
REM
REM in /home/nfs/bkarasulu/CARBON/AIRSS/Generating-Clusters/AIREBO/Higher-Symm/Only-C60
REM
REM
REM
REM
REM
REM ./C.cell (28575a23ae977d3b5fae324c64b13b57)
REM
REM compiler GCC version 9.2.1 20190827 (Red Hat 9.2.1-1)
REM options -cpp -mtune=generic -march=x86-64 -g -O0 -fpre-include=/usr/include/finclude/math-vector-fortran.h
REM seed -639505148 -553691147 -2054529615 557234642 2115124207 -1044125192 1768527517 -459356777 647332296 2048155476 -362601251 -1618405811 725851615 -1923350714 101220105 898677811 605345368 -346021140 -2002881129 -1102244199 -184659691 2005808216 974059079 772393714 -650811814 715912745 -1479182624 671587425 -438636631 -2144035482 995688472 -386804243 -1443804612
REM
CELL 1.54180   50.00000   50.00000   50.00000   90.00000   90.00000   90.00000
LATT -1
SFAC C  
C      1  0.5004010000000  0.5482080000000  0.5748780000000 1.0
C      1  0.5564980000000  0.5636510000000  0.5265860000000 1.0
C      1  0.5554020000000  0.5379940000000  0.4543900000000 1.0
C      1  0.4742950000000  0.5461430000000  0.4401230000000 1.0
C      1  0.4260420000000  0.5478490000000  0.5154040000000 1.0
C      1  0.4815580000000  0.4539070000000  0.5602160000000 1.0
C      1  0.5583400000000  0.4497970000000  0.5341740000000 1.0
C      1  0.5559530000000  0.4597740000000  0.4607470000000 1.0
C      1  0.4702260000000  0.4441260000000  0.4311340000000 1.0
C      1  0.4289920000000  0.4649200000000  0.5048000000000 1.0
C      1  0.5223220000000  0.4749920000000  0.5093170000000 1.0
C      1  0.5165600000000  0.4880160000000  0.4785620000000 1.0
C      1  0.4868310000000  0.4766210000000  0.4666280000000 1.0
C      1  0.4758430000000  0.4853230000000  0.5105460000000 1.0
C      1  0.5012600000000  0.4893630000000  0.5297650000000 1.0
C      1  0.5285150000000  0.5275170000000  0.5118540000000 1.0
C      1  0.5138760000000  0.5197220000000  0.4847380000000 1.0
C      1  0.4826110000000  0.5087710000000  0.4768600000000 1.0
C      1  0.4633780000000  0.5161860000000  0.5035330000000 1.0
C      1  0.5084300000000  0.5200670000000  0.5346360000000 1.0
C      1  0.4742580000000  0.4541040000000  0.4970850000000 1.0
C      1  0.4888540000000  0.4359380000000  0.5177590000000 1.0
C      1  0.5178120000000  0.4418610000000  0.5109040000000 1.0
C      1  0.5211340000000  0.4347940000000  0.4815050000000 1.0
C      1  0.4936760000000  0.4438070000000  0.4723570000000 1.0
C      1  0.4720050000000  0.5491140000000  0.5038750000000 1.0
C      1  0.4926490000000  0.5493510000000  0.5275100000000 1.0
C      1  0.5130590000000  0.5661020000000  0.5107960000000 1.0
C      1  0.5163200000000  0.5515510000000  0.4823340000000 1.0
C      1  0.4871620000000  0.5622110000000  0.4809250000000 1.0
C      1  0.5404240000000  0.5582920000000  0.4647180000000 1.0
C      1  0.4776260000000  0.5677310000000  0.4565240000000 1.0
C      1  0.4446990000000  0.5636490000000  0.5082230000000 1.0
C      1  0.4852460000000  0.5607660000000  0.5554180000000 1.0
C      1  0.5343220000000  0.5790160000000  0.5212400000000 1.0
C      1  0.5440250000000  0.4362870000000  0.4679300000000 1.0
C      1  0.4824970000000  0.4270670000000  0.4489400000000 1.0
C      1  0.4440710000000  0.4480550000000  0.4930410000000 1.0
C      1  0.4799880000000  0.4328190000000  0.5428260000000 1.0
C      1  0.5392230000000  0.4302760000000  0.5299800000000 1.0
C      1  0.5507830000000  0.5131740000000  0.4443880000000 1.0
C      1  0.4676040000000  0.5220250000000  0.4522910000000 1.0
C      1  0.4363340000000  0.5209240000000  0.5236350000000 1.0
C      1  0.5152010000000  0.5263050000000  0.5649710000000 1.0
C      1  0.5545920000000  0.5368470000000  0.5182500000000 1.0
C      1  0.5374980000000  0.4840230000000  0.4557870000000 1.0
C      1  0.4661630000000  0.4695660000000  0.4425130000000 1.0
C      1  0.4442260000000  0.4853530000000  0.5200930000000 1.0
C      1  0.4998530000000  0.4746150000000  0.5568020000000 1.0
C      1  0.5530290000000  0.4732110000000  0.5191880000000 1.0
C      1  0.4423500000000  0.4837040000000  0.4406610000000 1.0
C      1  0.4383000000000  0.4906730000000  0.5497180000000 1.0
C      1  0.5200680000000  0.4804320000000  0.5752780000000 1.0
C      1  0.5715300000000  0.4922540000000  0.5125060000000 1.0
C      1  0.5220260000000  0.4788130000000  0.4254770000000 1.0
C      1  0.4429880000000  0.5104970000000  0.4456360000000 1.0
C      1  0.4349870000000  0.5170520000000  0.5558490000000 1.0
C      1  0.5287250000000  0.5062700000000  0.5786870000000 1.0
C      1  0.5755790000000  0.5187400000000  0.5160980000000 1.0
C      1  0.5417760000000  0.4997870000000  0.4193950000000 1.0
END
