TITL C-26738-6379-192 -0.00157537882548555 125000 -314.718864942991 0 0 60 (C1) n - 1
REM
REM in /home/nfs/bkarasulu/CARBON/AIRSS/Generating-Clusters/AIREBO/Higher-Symm/Only-C60
REM
REM
REM
REM
REM
REM ./C.cell (28575a23ae977d3b5fae324c64b13b57)
REM
REM compiler GCC version 9.2.1 20190827 (Red Hat 9.2.1-1)
REM options -cpp -mtune=generic -march=x86-64 -g -O0 -fpre-include=/usr/include/finclude/math-vector-fortran.h
REM seed -2054631200 1262620929 -1254234808 967781731 1499633743 -2101361913 -1657375133 -1081702005 -623810403 1617561130 1157790969 40682116 1256122663 2012050649 -1485473659 -1685254743 -78485095 -1407385998 1567405503 -926642776 -489579794 -390267960 1717873832 1298967209 -924368042 -397865420 -661795490 -64696887 -344681879 814718553 660984458 588015441 -164830189
REM
CELL 1.54180   50.00000   50.00000   50.00000   90.00000   90.00000   90.00000
LATT -1
SFAC C  
C      1  0.4876570000000  0.5194590000000  0.5464570000000 1.0
C      1  0.4799240000000  0.5318720000000  0.4587730000000 1.0
C      1  0.4787240000000  0.4495340000000  0.4924020000000 1.0
C      1  0.5485120000000  0.5727220000000  0.4999560000000 1.0
C      1  0.5449950000000  0.4677970000000  0.4577310000000 1.0
C      1  0.5414470000000  0.4763310000000  0.5593500000000 1.0
C      1  0.5550000000000  0.5073810000000  0.5161610000000 1.0
C      1  0.5564560000000  0.5095330000000  0.4822580000000 1.0
C      1  0.5508610000000  0.4794940000000  0.4975670000000 1.0
C      1  0.5000330000000  0.5583220000000  0.4660130000000 1.0
C      1  0.5082680000000  0.4539780000000  0.4505680000000 1.0
C      1  0.4900580000000  0.4967650000000  0.5717020000000 1.0
C      1  0.5347680000000  0.4574130000000  0.5408680000000 1.0
C      1  0.5356460000000  0.5545410000000  0.5187490000000 1.0
C      1  0.5339660000000  0.4928150000000  0.4538310000000 1.0
C      1  0.4186990000000  0.4752690000000  0.5050710000000 1.0
C      1  0.4233030000000  0.5060830000000  0.5111670000000 1.0
C      1  0.4337270000000  0.4940250000000  0.4824860000000 1.0
C      1  0.5145070000000  0.5364740000000  0.5585500000000 1.0
C      1  0.5031670000000  0.5325900000000  0.4339650000000 1.0
C      1  0.5076210000000  0.4379740000000  0.4982330000000 1.0
C      1  0.4943680000000  0.4732350000000  0.5110990000000 1.0
C      1  0.4991570000000  0.5215610000000  0.5145240000000 1.0
C      1  0.4923310000000  0.5044470000000  0.4745870000000 1.0
C      1  0.5261550000000  0.4693620000000  0.5146210000000 1.0
C      1  0.5311450000000  0.5265300000000  0.5078540000000 1.0
C      1  0.5225360000000  0.5073620000000  0.4810570000000 1.0
C      1  0.4625320000000  0.5399990000000  0.5363100000000 1.0
C      1  0.4565700000000  0.5116920000000  0.4444800000000 1.0
C      1  0.4591560000000  0.4526060000000  0.5177500000000 1.0
C      1  0.5236050000000  0.5039610000000  0.5544750000000 1.0
C      1  0.5298900000000  0.5553180000000  0.4792970000000 1.0
C      1  0.5272690000000  0.4431170000000  0.4730020000000 1.0
C      1  0.5168480000000  0.4336740000000  0.5300320000000 1.0
C      1  0.5178070000000  0.5605380000000  0.5389750000000 1.0
C      1  0.5166220000000  0.5029960000000  0.4279870000000 1.0
C      1  0.4967730000000  0.4784200000000  0.4544990000000 1.0
C      1  0.5013900000000  0.4820750000000  0.5431980000000 1.0
C      1  0.5014980000000  0.5512880000000  0.4981780000000 1.0
C      1  0.5482470000000  0.5332900000000  0.5631470000000 1.0
C      1  0.5355100000000  0.5295210000000  0.4381900000000 1.0
C      1  0.5375500000000  0.4227450000000  0.5053700000000 1.0
C      1  0.4687990000000  0.5228950000000  0.5010200000000 1.0
C      1  0.4658160000000  0.4866060000000  0.4851900000000 1.0
C      1  0.4705000000000  0.4940280000000  0.5180390000000 1.0
C      1  0.5457450000000  0.5347430000000  0.4638950000000 1.0
C      1  0.5547040000000  0.4484380000000  0.4910970000000 1.0
C      1  0.5564020000000  0.5065780000000  0.5458990000000 1.0
C      1  0.4421960000000  0.5218980000000  0.5222060000000 1.0
C      1  0.4317200000000  0.5100560000000  0.4567230000000 1.0
C      1  0.4322410000000  0.4529240000000  0.5145930000000 1.0
C      1  0.4734610000000  0.5600430000000  0.5148410000000 1.0
C      1  0.4684120000000  0.4833310000000  0.4392850000000 1.0
C      1  0.4735470000000  0.4625540000000  0.5433160000000 1.0
C      1  0.4644660000000  0.5493010000000  0.4835630000000 1.0
C      1  0.4629820000000  0.4605640000000  0.4643190000000 1.0
C      1  0.4643190000000  0.4947980000000  0.5489460000000 1.0
C      1  0.4915030000000  0.4357590000000  0.5488720000000 1.0
C      1  0.4960600000000  0.5753900000000  0.5319420000000 1.0
C      1  0.4928270000000  0.4859850000000  0.4157630000000 1.0
END
