TITL C-26735-8354-110 0.000150452686555907 125000 -337.591837894887 0 0 60 (C1) n - 1
REM
REM in /home/nfs/bkarasulu/CARBON/AIRSS/Generating-Clusters/AIREBO/Higher-Symm/Only-C60
REM
REM
REM
REM
REM
REM ./C.cell (28575a23ae977d3b5fae324c64b13b57)
REM
REM compiler GCC version 9.2.1 20190827 (Red Hat 9.2.1-1)
REM options -cpp -mtune=generic -march=x86-64 -g -O0 -fpre-include=/usr/include/finclude/math-vector-fortran.h
REM seed 889943853 -1827537694 1081923845 1009477816 1855667439 -1257429041 -1731638129 -1498510167 -986098583 -397133466 657377278 -982369247 -255387483 1315301317 344584198 -1569964952 -599215859 2142699824 -485293990 400746333 369443900 716960692 1364726296 175283521 -1497073554 5882519 38914213 1514930144 547457390 1850677374 826433320 1627521950 -761522678
REM
CELL 1.54180   50.00000   50.00000   50.00000   90.00000   90.00000   90.00000
LATT -1
SFAC C  
C      1  0.5165980000000  0.4345020000000  0.5151330000000 1.0
C      1  0.5128520000000  0.4233730000000  0.4889710000000 1.0
C      1  0.5332250000000  0.5082210000000  0.4974850000000 1.0
C      1  0.5276550000000  0.5185490000000  0.5294180000000 1.0
C      1  0.5115540000000  0.5193030000000  0.5720600000000 1.0
C      1  0.5225530000000  0.5127150000000  0.4280300000000 1.0
C      1  0.5630390000000  0.4581490000000  0.4882360000000 1.0
C      1  0.5690330000000  0.4590640000000  0.5146620000000 1.0
C      1  0.4465170000000  0.5040460000000  0.4844320000000 1.0
C      1  0.4337210000000  0.5017670000000  0.5160140000000 1.0
C      1  0.5494370000000  0.5327780000000  0.4860730000000 1.0
C      1  0.5585120000000  0.5269650000000  0.5178810000000 1.0
C      1  0.4985430000000  0.4688330000000  0.4849240000000 1.0
C      1  0.5032260000000  0.4641500000000  0.5157530000000 1.0
C      1  0.4835010000000  0.5351030000000  0.5649990000000 1.0
C      1  0.4861130000000  0.5490270000000  0.4360960000000 1.0
C      1  0.4273490000000  0.4642110000000  0.4583950000000 1.0
C      1  0.4453810000000  0.4571480000000  0.5297500000000 1.0
C      1  0.4563650000000  0.4588780000000  0.4578690000000 1.0
C      1  0.4742130000000  0.4522660000000  0.5471080000000 1.0
C      1  0.4684160000000  0.4847270000000  0.5471210000000 1.0
C      1  0.4723110000000  0.4899880000000  0.4459440000000 1.0
C      1  0.4811110000000  0.5606810000000  0.5140350000000 1.0
C      1  0.4827850000000  0.5618640000000  0.4816630000000 1.0
C      1  0.5051170000000  0.5664890000000  0.5286660000000 1.0
C      1  0.5115140000000  0.5614190000000  0.4642960000000 1.0
C      1  0.5074330000000  0.4865590000000  0.5647350000000 1.0
C      1  0.5071370000000  0.4822700000000  0.4284480000000 1.0
C      1  0.4707970000000  0.4642550000000  0.5130380000000 1.0
C      1  0.4664710000000  0.4763810000000  0.4831260000000 1.0
C      1  0.4250690000000  0.4745580000000  0.5255240000000 1.0
C      1  0.4209590000000  0.4862520000000  0.4707590000000 1.0
C      1  0.4942150000000  0.4976740000000  0.5354420000000 1.0
C      1  0.5012770000000  0.4977780000000  0.4580560000000 1.0
C      1  0.5567010000000  0.4762070000000  0.4419650000000 1.0
C      1  0.5579000000000  0.4921620000000  0.5538180000000 1.0
C      1  0.4699370000000  0.5370220000000  0.5221680000000 1.0
C      1  0.4661190000000  0.5321910000000  0.4826730000000 1.0
C      1  0.5078310000000  0.5849860000000  0.4865910000000 1.0
C      1  0.5171970000000  0.5863660000000  0.5123230000000 1.0
C      1  0.4918450000000  0.5115500000000  0.4851590000000 1.0
C      1  0.4850660000000  0.5152610000000  0.5134170000000 1.0
C      1  0.4483360000000  0.5048210000000  0.5434810000000 1.0
C      1  0.4529080000000  0.5109730000000  0.4517560000000 1.0
C      1  0.5175640000000  0.5392450000000  0.4392340000000 1.0
C      1  0.5117680000000  0.5421410000000  0.5468710000000 1.0
C      1  0.5396960000000  0.5454710000000  0.4644970000000 1.0
C      1  0.5721800000000  0.5118790000000  0.5400160000000 1.0
C      1  0.5037950000000  0.4565950000000  0.5573290000000 1.0
C      1  0.4882620000000  0.4599530000000  0.4461230000000 1.0
C      1  0.4651040000000  0.5388620000000  0.4494300000000 1.0
C      1  0.4604120000000  0.5312830000000  0.5486910000000 1.0
C      1  0.5377280000000  0.4990800000000  0.5717790000000 1.0
C      1  0.5395780000000  0.4862780000000  0.4223250000000 1.0
C      1  0.5492490000000  0.4721840000000  0.4686410000000 1.0
C      1  0.5498690000000  0.4669840000000  0.5373670000000 1.0
C      1  0.5248360000000  0.4875800000000  0.4785920000000 1.0
C      1  0.5240130000000  0.4847330000000  0.5285220000000 1.0
C      1  0.5258730000000  0.4453080000000  0.5424820000000 1.0
C      1  0.5022310000000  0.4409450000000  0.4706110000000 1.0
END
