TITL C-26727-7196-125 0.000559425920352318 125000 -299.141169517572 0 0 60 (C1) n - 1
REM
REM in /home/nfs/bkarasulu/CARBON/AIRSS/Generating-Clusters/AIREBO/Higher-Symm/Only-C60
REM
REM
REM
REM
REM
REM ./C.cell (28575a23ae977d3b5fae324c64b13b57)
REM
REM compiler GCC version 9.2.1 20190827 (Red Hat 9.2.1-1)
REM options -cpp -mtune=generic -march=x86-64 -g -O0 -fpre-include=/usr/include/finclude/math-vector-fortran.h
REM seed 663297835 -875695758 -161284950 -423523380 632106531 -696668245 593870938 105915003 -44207653 1125996062 -816785867 101522762 -479688790 -1515036038 910986103 1509434792 1202746905 -8708131 -1591854968 561157562 2124068472 139485052 2034786125 -926531821 -717325530 -1262981785 526427713 1526177601 837337704 -175497603 675997193 603137378 301019132
REM
CELL 1.54180   50.00000   50.00000   50.00000   90.00000   90.00000   90.00000
LATT -1
SFAC C  
C      1  0.5596410000000  0.4518400000000  0.5583720000000 1.0
C      1  0.4666240000000  0.5362020000000  0.5617680000000 1.0
C      1  0.5303280000000  0.5656470000000  0.4586240000000 1.0
C      1  0.4387310000000  0.5304150000000  0.5431510000000 1.0
C      1  0.5579750000000  0.5546410000000  0.4437800000000 1.0
C      1  0.4384940000000  0.4704170000000  0.4593860000000 1.0
C      1  0.5325870000000  0.4518510000000  0.5772590000000 1.0
C      1  0.4623090000000  0.4539990000000  0.4431480000000 1.0
C      1  0.5285570000000  0.5459250000000  0.4320000000000 1.0
C      1  0.4517870000000  0.4423540000000  0.4715910000000 1.0
C      1  0.5339460000000  0.4334190000000  0.5496930000000 1.0
C      1  0.4561400000000  0.5573610000000  0.5382040000000 1.0
C      1  0.5560390000000  0.4736230000000  0.5332480000000 1.0
C      1  0.4914800000000  0.5146140000000  0.5532250000000 1.0
C      1  0.5156330000000  0.5481370000000  0.4834860000000 1.0
C      1  0.4591740000000  0.4996580000000  0.5072430000000 1.0
C      1  0.5563610000000  0.5283350000000  0.4683290000000 1.0
C      1  0.4484500000000  0.4972470000000  0.4760830000000 1.0
C      1  0.5102610000000  0.4891240000000  0.5500900000000 1.0
C      1  0.4843620000000  0.4784500000000  0.4457930000000 1.0
C      1  0.5169160000000  0.5184310000000  0.4468200000000 1.0
C      1  0.4791540000000  0.4581480000000  0.4797620000000 1.0
C      1  0.5227310000000  0.4492130000000  0.5227770000000 1.0
C      1  0.4804090000000  0.5475640000000  0.5175760000000 1.0
C      1  0.4573150000000  0.5440300000000  0.4722440000000 1.0
C      1  0.5528810000000  0.4786400000000  0.4781550000000 1.0
C      1  0.4747170000000  0.4484730000000  0.5405470000000 1.0
C      1  0.5331940000000  0.4498540000000  0.4773270000000 1.0
C      1  0.4572450000000  0.4425420000000  0.5182860000000 1.0
C      1  0.5318480000000  0.5508360000000  0.5228810000000 1.0
C      1  0.4602550000000  0.5210910000000  0.4318850000000 1.0
C      1  0.5519910000000  0.5234430000000  0.5231040000000 1.0
C      1  0.4510110000000  0.4809310000000  0.5578740000000 1.0
C      1  0.5309930000000  0.5290430000000  0.5500660000000 1.0
C      1  0.4745720000000  0.5523220000000  0.4523440000000 1.0
C      1  0.5355170000000  0.4712410000000  0.4500670000000 1.0
C      1  0.5457740000000  0.5380260000000  0.4945720000000 1.0
C      1  0.5404760000000  0.4977800000000  0.5406470000000 1.0
C      1  0.5033170000000  0.5386510000000  0.5328090000000 1.0
C      1  0.4751330000000  0.4711500000000  0.5080120000000 1.0
C      1  0.5464540000000  0.4627150000000  0.5058740000000 1.0
C      1  0.4734700000000  0.5284520000000  0.4960540000000 1.0
C      1  0.4621970000000  0.5023820000000  0.5410100000000 1.0
C      1  0.5413620000000  0.5036010000000  0.4588810000000 1.0
C      1  0.4714410000000  0.5044570000000  0.4558690000000 1.0
C      1  0.4999430000000  0.4673090000000  0.5305910000000 1.0
C      1  0.5058520000000  0.4645190000000  0.4649970000000 1.0
C      1  0.4933120000000  0.5272550000000  0.4684540000000 1.0
C      1  0.4874700000000  0.5263690000000  0.5855720000000 1.0
C      1  0.5113850000000  0.5810760000000  0.4789110000000 1.0
C      1  0.5863810000000  0.4663110000000  0.5448570000000 1.0
C      1  0.5160100000000  0.4739490000000  0.5776430000000 1.0
C      1  0.4735730000000  0.4657270000000  0.4161200000000 1.0
C      1  0.5111340000000  0.5255220000000  0.4149010000000 1.0
C      1  0.4444820000000  0.4298250000000  0.4982200000000 1.0
C      1  0.5216180000000  0.4158950000000  0.5241460000000 1.0
C      1  0.4684340000000  0.5783610000000  0.5176510000000 1.0
C      1  0.4313820000000  0.5148150000000  0.5188890000000 1.0
C      1  0.5834340000000  0.5396870000000  0.4546890000000 1.0
C      1  0.4163410000000  0.4871040000000  0.4744450000000 1.0
END
