TITL C-26734-8308-184 0.00312506422003414 125000 -338.282934915607 0 0 60 (C1) n - 1
REM
REM in /home/nfs/bkarasulu/CARBON/AIRSS/Generating-Clusters/AIREBO/Higher-Symm/Only-C60
REM
REM
REM
REM
REM
REM ./C.cell (28575a23ae977d3b5fae324c64b13b57)
REM
REM compiler GCC version 9.2.1 20190827 (Red Hat 9.2.1-1)
REM options -cpp -mtune=generic -march=x86-64 -g -O0 -fpre-include=/usr/include/finclude/math-vector-fortran.h
REM seed 1403606355 -1070625058 -303334817 -986593719 -1229984783 -1925472079 -391305528 -1972655893 1657942936 -695335575 535021412 -1605005912 1836330049 800749056 836606091 -445735699 -1215662574 654702302 -1098679087 1605190877 -1329243320 -784044245 -1665285387 -171434094 241815620 1374384390 1123914290 -2059120068 -1714551444 -773237935 -1114291531 2079529504 167716082
REM
CELL 1.54180   50.00000   50.00000   50.00000   90.00000   90.00000   90.00000
LATT -1
SFAC C  
C      1  0.4548520000000  0.5155080000000  0.5520320000000 1.0
C      1  0.4656950000000  0.4465710000000  0.4862270000000 1.0
C      1  0.4617920000000  0.5372410000000  0.4686910000000 1.0
C      1  0.4626970000000  0.5113500000000  0.4551180000000 1.0
C      1  0.4607040000000  0.4465670000000  0.5148800000000 1.0
C      1  0.4529650000000  0.5369850000000  0.5319790000000 1.0
C      1  0.5363040000000  0.5492830000000  0.4682050000000 1.0
C      1  0.5426060000000  0.4970190000000  0.5560050000000 1.0
C      1  0.5407360000000  0.4480070000000  0.4699820000000 1.0
C      1  0.5433160000000  0.5502220000000  0.5332720000000 1.0
C      1  0.5365470000000  0.5036540000000  0.4381390000000 1.0
C      1  0.5404620000000  0.4440040000000  0.5263790000000 1.0
C      1  0.4804840000000  0.4931550000000  0.5523120000000 1.0
C      1  0.4858980000000  0.4635620000000  0.4666450000000 1.0
C      1  0.4855580000000  0.5495210000000  0.4859390000000 1.0
C      1  0.4894130000000  0.4944920000000  0.4568450000000 1.0
C      1  0.4826810000000  0.4653040000000  0.5329230000000 1.0
C      1  0.4855070000000  0.5443610000000  0.5187870000000 1.0
C      1  0.4433650000000  0.4890080000000  0.4600290000000 1.0
C      1  0.4332170000000  0.5388820000000  0.5088480000000 1.0
C      1  0.4430990000000  0.4691110000000  0.5286800000000 1.0
C      1  0.4416760000000  0.4877920000000  0.5443540000000 1.0
C      1  0.4373580000000  0.5421870000000  0.4839970000000 1.0
C      1  0.4460200000000  0.4652500000000  0.4677860000000 1.0
C      1  0.5495780000000  0.5266820000000  0.4832510000000 1.0
C      1  0.5519800000000  0.4983320000000  0.5286750000000 1.0
C      1  0.5528110000000  0.4716100000000  0.4832110000000 1.0
C      1  0.5435650000000  0.5248410000000  0.5141290000000 1.0
C      1  0.5461830000000  0.4989680000000  0.4688320000000 1.0
C      1  0.5442040000000  0.4727070000000  0.5123720000000 1.0
C      1  0.5107310000000  0.5300000000000  0.4919120000000 1.0
C      1  0.5081710000000  0.4954140000000  0.5359140000000 1.0
C      1  0.5129730000000  0.4741760000000  0.4813830000000 1.0
C      1  0.5107510000000  0.5218930000000  0.5225300000000 1.0
C      1  0.5142760000000  0.5062200000000  0.4752310000000 1.0
C      1  0.5102990000000  0.4705550000000  0.5137460000000 1.0
C      1  0.4856820000000  0.4072150000000  0.4558770000000 1.0
C      1  0.4786470000000  0.5803670000000  0.4402910000000 1.0
C      1  0.4736890000000  0.5222110000000  0.5783760000000 1.0
C      1  0.4800060000000  0.4359740000000  0.5480330000000 1.0
C      1  0.4696830000000  0.5866270000000  0.5513610000000 1.0
C      1  0.4766060000000  0.5120050000000  0.4023660000000 1.0
C      1  0.4892480000000  0.5581500000000  0.4552100000000 1.0
C      1  0.5009980000000  0.5124190000000  0.5716750000000 1.0
C      1  0.4931970000000  0.4309920000000  0.4731640000000 1.0
C      1  0.4695070000000  0.5645100000000  0.5389270000000 1.0
C      1  0.4882980000000  0.5109580000000  0.4285280000000 1.0
C      1  0.4631360000000  0.4187600000000  0.5340890000000 1.0
C      1  0.5319130000000  0.4481020000000  0.5527650000000 1.0
C      1  0.5314930000000  0.4769200000000  0.4295320000000 1.0
C      1  0.5343540000000  0.5712160000000  0.5164420000000 1.0
C      1  0.5221750000000  0.4616240000000  0.4510760000000 1.0
C      1  0.5234990000000  0.4741600000000  0.5576460000000 1.0
C      1  0.5230100000000  0.5617330000000  0.4925720000000 1.0
C      1  0.5162980000000  0.5226930000000  0.4335100000000 1.0
C      1  0.5388620000000  0.5441450000000  0.5605150000000 1.0
C      1  0.5325750000000  0.4230710000000  0.5093030000000 1.0
C      1  0.5285900000000  0.5188660000000  0.5690120000000 1.0
C      1  0.5166940000000  0.5474130000000  0.4468620000000 1.0
C      1  0.5233640000000  0.4294320000000  0.4836250000000 1.0
END
