TITL C-26734-8308-58 -0.0141848670587476 125000 -323.855854951567 0 0 60 (C2) n - 1
REM
REM in /home/nfs/bkarasulu/CARBON/AIRSS/Generating-Clusters/AIREBO/Higher-Symm/Only-C60
REM
REM
REM
REM
REM
REM ./C.cell (28575a23ae977d3b5fae324c64b13b57)
REM
REM compiler GCC version 9.2.1 20190827 (Red Hat 9.2.1-1)
REM options -cpp -mtune=generic -march=x86-64 -g -O0 -fpre-include=/usr/include/finclude/math-vector-fortran.h
REM seed -1035115820 787949699 1577847418 1082200356 -713834197 1992646273 -1904919877 1986194272 -1807122601 -1576314092 -1764941532 -404743676 1978959397 86458898 775854964 -889451602 -672527500 -1509774288 249638676 281777815 488545160 513268995 682568148 1534796540 1562885488 -760607110 974866480 902763897 -1255025521 698858839 -896194702 984388891 -135692923
REM
CELL 1.54180   50.00000   50.00000   50.00000   90.00000   90.00000   90.00000
LATT -1
SFAC C  
C      1  0.5381050000000  0.4673930000000  0.5871260000000 1.0
C      1  0.4618880000000  0.4674710000000  0.4128480000000 1.0
C      1  0.4640480000000  0.5194100000000  0.4703160000000 1.0
C      1  0.5359560000000  0.5193780000000  0.5297000000000 1.0
C      1  0.5097730000000  0.5101840000000  0.4623850000000 1.0
C      1  0.4902290000000  0.5101560000000  0.5376230000000 1.0
C      1  0.4806280000000  0.5381570000000  0.5692040000000 1.0
C      1  0.5193800000000  0.5382080000000  0.4308260000000 1.0
C      1  0.4685490000000  0.5268540000000  0.5172060000000 1.0
C      1  0.5314570000000  0.5268610000000  0.4828160000000 1.0
C      1  0.5073940000000  0.5345670000000  0.5680690000000 1.0
C      1  0.4926140000000  0.5346240000000  0.4319590000000 1.0
C      1  0.4613030000000  0.4947500000000  0.4890170000000 1.0
C      1  0.5386960000000  0.4947330000000  0.5109780000000 1.0
C      1  0.5064920000000  0.4571490000000  0.4824280000000 1.0
C      1  0.4934990000000  0.4571360000000  0.5175380000000 1.0
C      1  0.4351930000000  0.4553640000000  0.4849500000000 1.0
C      1  0.5647970000000  0.4553380000000  0.5150140000000 1.0
C      1  0.4643820000000  0.5401550000000  0.4431840000000 1.0
C      1  0.5356270000000  0.5401020000000  0.5568480000000 1.0
C      1  0.4425620000000  0.5578080000000  0.4461990000000 1.0
C      1  0.5574500000000  0.5577530000000  0.5538480000000 1.0
C      1  0.5396170000000  0.4368270000000  0.5238630000000 1.0
C      1  0.4603690000000  0.4368550000000  0.4760860000000 1.0
C      1  0.4873340000000  0.5655820000000  0.4801940000000 1.0
C      1  0.5126810000000  0.5655630000000  0.5198590000000 1.0
C      1  0.4363430000000  0.5604000000000  0.4733610000000 1.0
C      1  0.5636700000000  0.5603650000000  0.5266870000000 1.0
C      1  0.4931880000000  0.4462770000000  0.5436420000000 1.0
C      1  0.5068000000000  0.4463110000000  0.4563150000000 1.0
C      1  0.4583620000000  0.4108530000000  0.4862970000000 1.0
C      1  0.5416190000000  0.4108330000000  0.5136320000000 1.0
C      1  0.5614860000000  0.4771840000000  0.4992460000000 1.0
C      1  0.4385090000000  0.4771960000000  0.5007360000000 1.0
C      1  0.4629000000000  0.5690090000000  0.5161610000000 1.0
C      1  0.5371140000000  0.5690140000000  0.4838950000000 1.0
C      1  0.4341670000000  0.4799620000000  0.5276750000000 1.0
C      1  0.5658290000000  0.4799700000000  0.4723090000000 1.0
C      1  0.5392710000000  0.5209340000000  0.4503630000000 1.0
C      1  0.4607330000000  0.5209030000000  0.5496540000000 1.0
C      1  0.4694290000000  0.4499490000000  0.5578790000000 1.0
C      1  0.5305600000000  0.4499890000000  0.4420810000000 1.0
C      1  0.5387450000000  0.5464560000000  0.5092890000000 1.0
C      1  0.4612650000000  0.5464720000000  0.4907480000000 1.0
C      1  0.5493990000000  0.4693430000000  0.4468660000000 1.0
C      1  0.4505950000000  0.4693110000000  0.5531090000000 1.0
C      1  0.5126090000000  0.5000120000000  0.4929390000000 1.0
C      1  0.4873910000000  0.5000090000000  0.5070610000000 1.0
C      1  0.5122730000000  0.5725590000000  0.4729610000000 1.0
C      1  0.4877430000000  0.5725400000000  0.5270970000000 1.0
C      1  0.4721710000000  0.4850110000000  0.4282700000000 1.0
C      1  0.5278250000000  0.4849480000000  0.5717180000000 1.0
C      1  0.4838730000000  0.5059530000000  0.4461750000000 1.0
C      1  0.5161280000000  0.5059070000000  0.5538300000000 1.0
C      1  0.4405320000000  0.4996420000000  0.5527850000000 1.0
C      1  0.5594680000000  0.4996710000000  0.4472140000000 1.0
C      1  0.5251390000000  0.4636380000000  0.5086320000000 1.0
C      1  0.4748530000000  0.4636500000000  0.4913380000000 1.0
C      1  0.4800140000000  0.4386990000000  0.4502190000000 1.0
C      1  0.5199730000000  0.4386550000000  0.5497320000000 1.0
END
