TITL C-26726-4881-36 -0.00178761074640606 125000 -270.542507025699 0 0 60 (C1) n - 1
REM
REM in /home/nfs/bkarasulu/CARBON/AIRSS/Generating-Clusters/AIREBO/Higher-Symm/Only-C60
REM
REM
REM
REM
REM
REM ./C.cell (28575a23ae977d3b5fae324c64b13b57)
REM
REM compiler GCC version 9.2.1 20190827 (Red Hat 9.2.1-1)
REM options -cpp -mtune=generic -march=x86-64 -g -O0 -fpre-include=/usr/include/finclude/math-vector-fortran.h
REM seed -2104518469 -440730989 100297900 1542245008 742161021 -1766749503 -367156366 -1787902149 1146962693 -225958751 1920313800 -1997924535 -485618452 1503401118 1398302260 -1530223183 -1244404924 2121243808 -25545464 -1987515358 -248597286 -1432182946 1773138563 -738539391 -1437909005 -1170089811 260881615 -31018215 -561108853 -683492523 517263585 1414761841 1747870967
REM
CELL 1.54180   50.00000   50.00000   50.00000   90.00000   90.00000   90.00000
LATT -1
SFAC C  
C      1  0.4850240000000  0.4454710000000  0.4860860000000 1.0
C      1  0.4880330000000  0.4831200000000  0.4462110000000 1.0
C      1  0.4460850000000  0.4875610000000  0.4815880000000 1.0
C      1  0.5203460000000  0.4400300000000  0.5122500000000 1.0
C      1  0.4857060000000  0.5629620000000  0.5191870000000 1.0
C      1  0.5132320000000  0.5637970000000  0.4781030000000 1.0
C      1  0.5111660000000  0.4701190000000  0.5568860000000 1.0
C      1  0.4806360000000  0.5157690000000  0.5630740000000 1.0
C      1  0.5131290000000  0.5169090000000  0.4451340000000 1.0
C      1  0.5550860000000  0.4834960000000  0.5195470000000 1.0
C      1  0.4436780000000  0.5108470000000  0.5140010000000 1.0
C      1  0.5492280000000  0.5132880000000  0.4875800000000 1.0
C      1  0.4802480000000  0.5605120000000  0.4857130000000 1.0
C      1  0.4816830000000  0.5139170000000  0.4325530000000 1.0
C      1  0.4365460000000  0.5202450000000  0.4823410000000 1.0
C      1  0.5186530000000  0.5589960000000  0.5113250000000 1.0
C      1  0.4869170000000  0.4353050000000  0.5184830000000 1.0
C      1  0.5168230000000  0.4359200000000  0.4786770000000 1.0
C      1  0.5114110000000  0.5292170000000  0.5575870000000 1.0
C      1  0.4796410000000  0.4824770000000  0.5601810000000 1.0
C      1  0.5207780000000  0.4847410000000  0.4371880000000 1.0
C      1  0.5609970000000  0.5171270000000  0.5192560000000 1.0
C      1  0.4400450000000  0.4783970000000  0.5137770000000 1.0
C      1  0.5588890000000  0.4807260000000  0.4858660000000 1.0
C      1  0.5455100000000  0.5210850000000  0.4546830000000 1.0
C      1  0.4744440000000  0.5779720000000  0.5453450000000 1.0
C      1  0.5263010000000  0.4418040000000  0.5456880000000 1.0
C      1  0.4518400000000  0.5223950000000  0.5451650000000 1.0
C      1  0.5443170000000  0.4711400000000  0.5493570000000 1.0
C      1  0.4548860000000  0.4768190000000  0.4505420000000 1.0
C      1  0.5418950000000  0.5455580000000  0.4796930000000 1.0
C      1  0.4533080000000  0.4545350000000  0.4777710000000 1.0
C      1  0.5513460000000  0.4497970000000  0.5222980000000 1.0
C      1  0.4784440000000  0.4512480000000  0.4532210000000 1.0
C      1  0.5243910000000  0.5486670000000  0.4497690000000 1.0
C      1  0.4764820000000  0.5456210000000  0.5473160000000 1.0
C      1  0.5495240000000  0.4763780000000  0.4534680000000 1.0
C      1  0.4557250000000  0.4488280000000  0.5197770000000 1.0
C      1  0.5257010000000  0.5571800000000  0.5445500000000 1.0
C      1  0.4505700000000  0.4717070000000  0.5454120000000 1.0
C      1  0.5435090000000  0.5276640000000  0.5464560000000 1.0
C      1  0.4559620000000  0.5156250000000  0.4549000000000 1.0
C      1  0.5476410000000  0.4501260000000  0.4761800000000 1.0
C      1  0.4544860000000  0.5469440000000  0.4680600000000 1.0
C      1  0.5500080000000  0.5492940000000  0.5202410000000 1.0
C      1  0.4623920000000  0.5418130000000  0.4350320000000 1.0
C      1  0.5244290000000  0.4536330000000  0.4504490000000 1.0
C      1  0.4774810000000  0.4510580000000  0.5473240000000 1.0
C      1  0.4758370000000  0.5135190000000  0.5236240000000 1.0
C      1  0.5185710000000  0.5046110000000  0.4827270000000 1.0
C      1  0.4998420000000  0.4754580000000  0.5269050000000 1.0
C      1  0.4981870000000  0.5270250000000  0.4739560000000 1.0
C      1  0.5041130000000  0.5150160000000  0.5308520000000 1.0
C      1  0.5248420000000  0.4944210000000  0.5218310000000 1.0
C      1  0.5045310000000  0.4784060000000  0.4747080000000 1.0
C      1  0.4740430000000  0.5002190000000  0.4866140000000 1.0
C      1  0.4744820000000  0.5304150000000  0.4976480000000 1.0
C      1  0.5137100000000  0.5284680000000  0.5044420000000 1.0
C      1  0.4840180000000  0.4749970000000  0.5013610000000 1.0
C      1  0.5232480000000  0.4696070000000  0.5000430000000 1.0
END
