TITL C-26736-6558-76 -0.0021957420026823 125000 -347.99522246861 0 0 60 (C1) n - 1
REM
REM in /home/nfs/bkarasulu/CARBON/AIRSS/Generating-Clusters/AIREBO/Higher-Symm/Only-C60
REM
REM
REM
REM
REM
REM ./C.cell (28575a23ae977d3b5fae324c64b13b57)
REM
REM compiler GCC version 9.2.1 20190827 (Red Hat 9.2.1-1)
REM options -cpp -mtune=generic -march=x86-64 -g -O0 -fpre-include=/usr/include/finclude/math-vector-fortran.h
REM seed -1948056653 784492009 1744189325 592606908 -555237743 -1287954123 204494546 -1821870999 -1568357198 1483574304 2034743209 1304911853 -172126532 -315925277 -906839407 1409457867 163356872 1986741121 -737544934 2099045573 -2128593672 955810871 -71925940 1281989504 746040629 1258490802 1650869662 159083847 889798553 -754046940 -1608224863 1105678422 -1479995017
REM
CELL 1.54180   50.00000   50.00000   50.00000   90.00000   90.00000   90.00000
LATT -1
SFAC C  
C      1  0.5124830000000  0.4716340000000  0.4365920000000 1.0
C      1  0.4712060000000  0.5262580000000  0.4432750000000 1.0
C      1  0.4418570000000  0.4632980000000  0.4667100000000 1.0
C      1  0.4368070000000  0.5303000000000  0.5108400000000 1.0
C      1  0.4540520000000  0.4682250000000  0.5414740000000 1.0
C      1  0.4901400000000  0.5420500000000  0.5627760000000 1.0
C      1  0.5251980000000  0.4669870000000  0.5551840000000 1.0
C      1  0.5562070000000  0.5325580000000  0.5364560000000 1.0
C      1  0.5642040000000  0.4616700000000  0.4886580000000 1.0
C      1  0.5538540000000  0.5377740000000  0.4595390000000 1.0
C      1  0.5515680000000  0.4861470000000  0.4691390000000 1.0
C      1  0.5178190000000  0.5229880000000  0.4509320000000 1.0
C      1  0.4828630000000  0.4752740000000  0.4437020000000 1.0
C      1  0.4563020000000  0.5208140000000  0.4679620000000 1.0
C      1  0.4404190000000  0.4835520000000  0.4930100000000 1.0
C      1  0.4551320000000  0.5246690000000  0.5338150000000 1.0
C      1  0.4744440000000  0.4918790000000  0.5554330000000 1.0
C      1  0.5168350000000  0.5211560000000  0.5605700000000 1.0
C      1  0.5476630000000  0.4715780000000  0.5347420000000 1.0
C      1  0.5613590000000  0.5119300000000  0.5107170000000 1.0
C      1  0.4840120000000  0.5635710000000  0.5194310000000 1.0
C      1  0.5032260000000  0.4330380000000  0.5218080000000 1.0
C      1  0.5130460000000  0.5661710000000  0.5156660000000 1.0
C      1  0.5255100000000  0.4350050000000  0.5024820000000 1.0
C      1  0.5181830000000  0.5659030000000  0.4863630000000 1.0
C      1  0.5128080000000  0.4362350000000  0.4754810000000 1.0
C      1  0.4927280000000  0.5619380000000  0.4714230000000 1.0
C      1  0.4831640000000  0.4364520000000  0.4778400000000 1.0
C      1  0.4710620000000  0.5615130000000  0.4925250000000 1.0
C      1  0.4774190000000  0.4344070000000  0.5069030000000 1.0
C      1  0.5333610000000  0.5260520000000  0.5028450000000 1.0
C      1  0.5249560000000  0.4728870000000  0.4856500000000 1.0
C      1  0.5082760000000  0.5219800000000  0.4807000000000 1.0
C      1  0.4944010000000  0.4747710000000  0.4756880000000 1.0
C      1  0.4794390000000  0.5139150000000  0.4895860000000 1.0
C      1  0.4734950000000  0.4833490000000  0.5009120000000 1.0
C      1  0.4831570000000  0.5166530000000  0.5208150000000 1.0
C      1  0.4912790000000  0.4803970000000  0.5297450000000 1.0
C      1  0.5101480000000  0.5282740000000  0.5280000000000 1.0
C      1  0.5215100000000  0.4763320000000  0.5155340000000 1.0
C      1  0.4612920000000  0.4559230000000  0.5168660000000 1.0
C      1  0.4736500000000  0.5492970000000  0.5416730000000 1.0
C      1  0.5035680000000  0.4528240000000  0.5421620000000 1.0
C      1  0.5339220000000  0.5504650000000  0.5343450000000 1.0
C      1  0.5499830000000  0.4493440000000  0.5093900000000 1.0
C      1  0.5390120000000  0.5474500000000  0.4800620000000 1.0
C      1  0.5243900000000  0.4564500000000  0.4565890000000 1.0
C      1  0.4935340000000  0.5421660000000  0.4495060000000 1.0
C      1  0.4665240000000  0.4518240000000  0.4593120000000 1.0
C      1  0.4501120000000  0.5425250000000  0.4893080000000 1.0
C      1  0.5474300000000  0.5072090000000  0.4491770000000 1.0
C      1  0.5239520000000  0.4968400000000  0.4298340000000 1.0
C      1  0.4737610000000  0.5023270000000  0.4295570000000 1.0
C      1  0.4380700000000  0.4963070000000  0.4629810000000 1.0
C      1  0.4227860000000  0.5073060000000  0.5048300000000 1.0
C      1  0.4429720000000  0.4989460000000  0.5489950000000 1.0
C      1  0.4875430000000  0.5112350000000  0.5728160000000 1.0
C      1  0.5208760000000  0.4895920000000  0.5699240000000 1.0
C      1  0.5616120000000  0.4990530000000  0.5401640000000 1.0
C      1  0.5734170000000  0.4933340000000  0.4915850000000 1.0
END
