TITL C-26740-8352-115 0.000544248863122151 125000 -320.505610738593 0 0 60 (C5) n - 1
REM
REM in /home/nfs/bkarasulu/CARBON/AIRSS/Generating-Clusters/AIREBO/Higher-Symm/Only-C60
REM
REM
REM
REM
REM
REM ./C.cell (28575a23ae977d3b5fae324c64b13b57)
REM
REM compiler GCC version 9.2.1 20190827 (Red Hat 9.2.1-1)
REM options -cpp -mtune=generic -march=x86-64 -g -O0 -fpre-include=/usr/include/finclude/math-vector-fortran.h
REM seed -415379340 1827176154 1735750674 544694057 1203880995 -952518371 -893071993 -609960688 542113751 530251067 679376416 363040016 -1239140936 -2118251610 727859039 903952614 -1806932528 1539830021 -931394845 -926191576 -207262034 -72195333 -833505066 -1806012700 676514831 -1216897770 186499103 1243366949 -1521236475 -279663784 -1934103099 -1336339214 1365405765
REM
CELL 1.54180   50.00000   50.00000   50.00000   90.00000   90.00000   90.00000
LATT -1
SFAC C  
C      1  0.5464450000000  0.5428320000000  0.4674430000000 1.0
C      1  0.5465600000000  0.4827360000000  0.4493940000000 1.0
C      1  0.5463890000000  0.4464160000000  0.5008740000000 1.0
C      1  0.5461990000000  0.4843140000000  0.5512500000000 1.0
C      1  0.5461820000000  0.5435920000000  0.5303980000000 1.0
C      1  0.5218320000000  0.5355720000000  0.4242130000000 1.0
C      1  0.5217750000000  0.4387290000000  0.4428270000000 1.0
C      1  0.5216150000000  0.4266810000000  0.5408020000000 1.0
C      1  0.5217060000000  0.5161130000000  0.5821460000000 1.0
C      1  0.5218640000000  0.5829370000000  0.5102630000000 1.0
C      1  0.5366810000000  0.5129870000000  0.4403110000000 1.0
C      1  0.5367740000000  0.4469410000000  0.4692320000000 1.0
C      1  0.5367910000000  0.4542300000000  0.5411790000000 1.0
C      1  0.5368990000000  0.5248770000000  0.5560470000000 1.0
C      1  0.5367320000000  0.5607810000000  0.4936250000000 1.0
C      1  0.4793000000000  0.5033580000000  0.4355860000000 1.0
C      1  0.4792960000000  0.4397760000000  0.4769130000000 1.0
C      1  0.4792190000000  0.4594210000000  0.5501810000000 1.0
C      1  0.4792520000000  0.5351930000000  0.5540750000000 1.0
C      1  0.4792180000000  0.5623450000000  0.4832110000000 1.0
C      1  0.4959580000000  0.4289620000000  0.4968910000000 1.0
C      1  0.4958870000000  0.4750960000000  0.5666330000000 1.0
C      1  0.4959840000000  0.5556100000000  0.5441990000000 1.0
C      1  0.4959190000000  0.5593880000000  0.4607080000000 1.0
C      1  0.4960240000000  0.4810620000000  0.4315000000000 1.0
C      1  0.5231330000000  0.4260050000000  0.4909470000000 1.0
C      1  0.5230650000000  0.4685000000000  0.5677070000000 1.0
C      1  0.5232010000000  0.5545120000000  0.5506500000000 1.0
C      1  0.5231070000000  0.5652180000000  0.4637930000000 1.0
C      1  0.5232000000000  0.4858660000000  0.4269910000000 1.0
C      1  0.4536920000000  0.4685260000000  0.5409780000000 1.0
C      1  0.4536910000000  0.5292650000000  0.5426140000000 1.0
C      1  0.4536920000000  0.5495510000000  0.4853060000000 1.0
C      1  0.4537420000000  0.5013470000000  0.4483190000000 1.0
C      1  0.4537460000000  0.4512910000000  0.4827220000000 1.0
C      1  0.4472730000000  0.5274480000000  0.4644160000000 1.0
C      1  0.4473270000000  0.4746530000000  0.4628640000000 1.0
C      1  0.4472930000000  0.4568740000000  0.5126030000000 1.0
C      1  0.4472690000000  0.4986740000000  0.5449230000000 1.0
C      1  0.4472520000000  0.5423140000000  0.5151290000000 1.0
C      1  0.4733820000000  0.5235840000000  0.5082820000000 1.0
C      1  0.4734420000000  0.5151730000000  0.4801070000000 1.0
C      1  0.4734760000000  0.4857830000000  0.4794230000000 1.0
C      1  0.4734640000000  0.4760350000000  0.5071760000000 1.0
C      1  0.4734320000000  0.4994210000000  0.5250160000000 1.0
C      1  0.5306650000000  0.5133390000000  0.4737850000000 1.0
C      1  0.5308210000000  0.4788830000000  0.4792860000000 1.0
C      1  0.5307520000000  0.4736480000000  0.5139150000000 1.0
C      1  0.5306640000000  0.5049860000000  0.5291710000000 1.0
C      1  0.5305250000000  0.5289870000000  0.5039840000000 1.0
C      1  0.4926980000000  0.5345530000000  0.4377510000000 1.0
C      1  0.4927750000000  0.4515000000000  0.4479600000000 1.0
C      1  0.4926970000000  0.4354960000000  0.5300980000000 1.0
C      1  0.4927100000000  0.5087020000000  0.5706410000000 1.0
C      1  0.4927070000000  0.5698440000000  0.5135280000000 1.0
C      1  0.4989120000000  0.5201320000000  0.4661020000000 1.0
C      1  0.4989830000000  0.4739550000000  0.4704820000000 1.0
C      1  0.4989360000000  0.4638350000000  0.5157060000000 1.0
C      1  0.4989060000000  0.5037230000000  0.5392390000000 1.0
C      1  0.4988680000000  0.5384280000000  0.5084840000000 1.0
END
