TITL C-26727-7196-41 3.72672435434849e-06 125000 -323.467377087103 0 0 60 (C1) n - 1
REM
REM in /home/nfs/bkarasulu/CARBON/AIRSS/Generating-Clusters/AIREBO/Higher-Symm/Only-C60
REM
REM
REM
REM
REM
REM ./C.cell (28575a23ae977d3b5fae324c64b13b57)
REM
REM compiler GCC version 9.2.1 20190827 (Red Hat 9.2.1-1)
REM options -cpp -mtune=generic -march=x86-64 -g -O0 -fpre-include=/usr/include/finclude/math-vector-fortran.h
REM seed 102144478 1631619589 -804307405 511138286 -834813731 317838582 1742513914 -1000881245 332635074 1568286748 79322876 113779135 -1035571485 -145578267 1427644248 -8484633 -578442294 316416793 1762952738 -414644341 1280255904 -1669037086 -1721802332 1667944328 1593063938 584342673 64091957 -330973453 1007680470 1816821811 -718090686 1100956808 -276541838
REM
CELL 1.54180   50.00000   50.00000   50.00000   90.00000   90.00000   90.00000
LATT -1
SFAC C  
C      1  0.4822370000000  0.4798550000000  0.5521790000000 1.0
C      1  0.5139760000000  0.4761730000000  0.5499430000000 1.0
C      1  0.5242100000000  0.5070940000000  0.5464820000000 1.0
C      1  0.5009470000000  0.5300340000000  0.5470900000000 1.0
C      1  0.4754540000000  0.5100510000000  0.5483620000000 1.0
C      1  0.4617910000000  0.4525900000000  0.4745960000000 1.0
C      1  0.5332270000000  0.4502310000000  0.4746710000000 1.0
C      1  0.5551900000000  0.5220560000000  0.4847130000000 1.0
C      1  0.4994330000000  0.5592460000000  0.4726810000000 1.0
C      1  0.4411180000000  0.5142530000000  0.4874550000000 1.0
C      1  0.4693530000000  0.5571790000000  0.4800650000000 1.0
C      1  0.4320980000000  0.4896740000000  0.4672500000000 1.0
C      1  0.4870010000000  0.4354380000000  0.4719060000000 1.0
C      1  0.5568210000000  0.4704110000000  0.4795470000000 1.0
C      1  0.5512720000000  0.5531680000000  0.4715130000000 1.0
C      1  0.4317390000000  0.5016740000000  0.5184430000000 1.0
C      1  0.4827320000000  0.4448370000000  0.5222770000000 1.0
C      1  0.5422090000000  0.4727220000000  0.5312820000000 1.0
C      1  0.5588390000000  0.5327230000000  0.5169050000000 1.0
C      1  0.4812550000000  0.5557320000000  0.5346270000000 1.0
C      1  0.5677320000000  0.4728140000000  0.5092130000000 1.0
C      1  0.5553400000000  0.5586280000000  0.5048250000000 1.0
C      1  0.4594260000000  0.5635420000000  0.5097250000000 1.0
C      1  0.4247060000000  0.4783230000000  0.4975940000000 1.0
C      1  0.4968990000000  0.4234860000000  0.5003330000000 1.0
C      1  0.4328060000000  0.5434740000000  0.5027260000000 1.0
C      1  0.4399350000000  0.4490900000000  0.4948200000000 1.0
C      1  0.5297360000000  0.4284610000000  0.4954300000000 1.0
C      1  0.5792550000000  0.5032530000000  0.4996730000000 1.0
C      1  0.5252770000000  0.5726960000000  0.4838070000000 1.0
C      1  0.5132970000000  0.5207760000000  0.4460010000000 1.0
C      1  0.4822200000000  0.5173070000000  0.4508970000000 1.0
C      1  0.4771040000000  0.4875840000000  0.4442860000000 1.0
C      1  0.5016860000000  0.4726870000000  0.4417430000000 1.0
C      1  0.5264040000000  0.4936150000000  0.4467350000000 1.0
C      1  0.4585950000000  0.5342030000000  0.4665620000000 1.0
C      1  0.4546970000000  0.4759890000000  0.4555300000000 1.0
C      1  0.5072030000000  0.4486520000000  0.4559090000000 1.0
C      1  0.5535330000000  0.4946530000000  0.4646480000000 1.0
C      1  0.5234980000000  0.5425850000000  0.4580600000000 1.0
C      1  0.4950010000000  0.5265750000000  0.4810400000000 1.0
C      1  0.4729370000000  0.5029880000000  0.4916650000000 1.0
C      1  0.4844750000000  0.4762580000000  0.4823440000000 1.0
C      1  0.5182770000000  0.4806880000000  0.4771270000000 1.0
C      1  0.5228530000000  0.5123210000000  0.4887320000000 1.0
C      1  0.4876040000000  0.5354820000000  0.5099750000000 1.0
C      1  0.4612200000000  0.5066880000000  0.5210020000000 1.0
C      1  0.4982770000000  0.4629290000000  0.5065730000000 1.0
C      1  0.5220620000000  0.4784190000000  0.5108470000000 1.0
C      1  0.5342750000000  0.5157960000000  0.5181050000000 1.0
C      1  0.4426170000000  0.5456200000000  0.5332260000000 1.0
C      1  0.4412540000000  0.4633430000000  0.5239610000000 1.0
C      1  0.5188550000000  0.4282430000000  0.5260100000000 1.0
C      1  0.5729260000000  0.4981880000000  0.5312460000000 1.0
C      1  0.5290820000000  0.5713840000000  0.5145840000000 1.0
C      1  0.4657850000000  0.4602070000000  0.5382540000000 1.0
C      1  0.5217110000000  0.4431090000000  0.5481820000000 1.0
C      1  0.5566890000000  0.5077490000000  0.5502160000000 1.0
C      1  0.5143560000000  0.5583310000000  0.5338170000000 1.0
C      1  0.4494920000000  0.5287210000000  0.5525880000000 1.0
END
