TITL C-26731-8310-108 -0.00148558259430994 125000 -329.73317199441 0 0 60 (C1) n - 1
REM
REM in /home/nfs/bkarasulu/CARBON/AIRSS/Generating-Clusters/AIREBO/Higher-Symm/Only-C60
REM
REM
REM
REM
REM
REM ./C.cell (28575a23ae977d3b5fae324c64b13b57)
REM
REM compiler GCC version 9.2.1 20190827 (Red Hat 9.2.1-1)
REM options -cpp -mtune=generic -march=x86-64 -g -O0 -fpre-include=/usr/include/finclude/math-vector-fortran.h
REM seed 1654239456 -125050742 -224685581 -1466801268 1510868292 238176832 1807200531 -840602678 1241255396 -259994112 -1173299021 1847841314 53645004 -993289665 1669671616 1657276950 380882501 1651487666 -827401842 -153884323 1767720935 678724733 720192233 -848633524 -1866893531 -779847428 788550116 391856856 -1618445083 120426464 -1275380745 1896244935 -1013254117
REM
CELL 1.54180   50.00000   50.00000   50.00000   90.00000   90.00000   90.00000
LATT -1
SFAC C  
C      1  0.5198290000000  0.5330180000000  0.4656340000000 1.0
C      1  0.4838900000000  0.4710040000000  0.5422360000000 1.0
C      1  0.5412830000000  0.5339560000000  0.4920020000000 1.0
C      1  0.4643870000000  0.4591250000000  0.5170430000000 1.0
C      1  0.5290240000000  0.4372730000000  0.5138040000000 1.0
C      1  0.4814390000000  0.5623280000000  0.4790830000000 1.0
C      1  0.5573740000000  0.5051350000000  0.4451140000000 1.0
C      1  0.4363620000000  0.4885380000000  0.5553300000000 1.0
C      1  0.4879780000000  0.4410490000000  0.5507830000000 1.0
C      1  0.5088430000000  0.5640630000000  0.4734030000000 1.0
C      1  0.5685130000000  0.4611930000000  0.4247000000000 1.0
C      1  0.4117670000000  0.5323050000000  0.5609480000000 1.0
C      1  0.4411150000000  0.4643410000000  0.4742280000000 1.0
C      1  0.5526060000000  0.5409690000000  0.5413410000000 1.0
C      1  0.4982380000000  0.5288850000000  0.5339740000000 1.0
C      1  0.4967620000000  0.4734630000000  0.4673430000000 1.0
C      1  0.5558090000000  0.5644380000000  0.5634640000000 1.0
C      1  0.4621540000000  0.4406840000000  0.4650720000000 1.0
C      1  0.5453630000000  0.5231170000000  0.5217460000000 1.0
C      1  0.4544150000000  0.4791060000000  0.4947050000000 1.0
C      1  0.4772930000000  0.5397180000000  0.5017410000000 1.0
C      1  0.5136650000000  0.4598490000000  0.5006330000000 1.0
C      1  0.4220710000000  0.5082630000000  0.5690530000000 1.0
C      1  0.5629010000000  0.4880650000000  0.4235930000000 1.0
C      1  0.5744550000000  0.4674010000000  0.4907440000000 1.0
C      1  0.4289820000000  0.5292970000000  0.4949680000000 1.0
C      1  0.4231130000000  0.5467820000000  0.5405440000000 1.0
C      1  0.5622000000000  0.4473140000000  0.4476080000000 1.0
C      1  0.4387660000000  0.5359830000000  0.5200430000000 1.0
C      1  0.5554710000000  0.4597080000000  0.4717790000000 1.0
C      1  0.4828590000000  0.4516630000000  0.4894370000000 1.0
C      1  0.5116340000000  0.5358090000000  0.5046590000000 1.0
C      1  0.4630650000000  0.5602900000000  0.4573610000000 1.0
C      1  0.5436950000000  0.4465170000000  0.5362300000000 1.0
C      1  0.5766680000000  0.4743500000000  0.5170950000000 1.0
C      1  0.4273300000000  0.5307600000000  0.4677070000000 1.0
C      1  0.5350030000000  0.4947570000000  0.5347630000000 1.0
C      1  0.4698260000000  0.5131150000000  0.4517780000000 1.0
C      1  0.4963150000000  0.5055970000000  0.5092750000000 1.0
C      1  0.4792530000000  0.4941900000000  0.4856810000000 1.0
C      1  0.5754460000000  0.5237330000000  0.4563500000000 1.0
C      1  0.4278540000000  0.4619350000000  0.5509220000000 1.0
C      1  0.5688540000000  0.5385210000000  0.4785420000000 1.0
C      1  0.4407830000000  0.4460880000000  0.5324830000000 1.0
C      1  0.5367440000000  0.5385210000000  0.5697140000000 1.0
C      1  0.4548140000000  0.4660820000000  0.4455010000000 1.0
C      1  0.5247440000000  0.5859240000000  0.4697440000000 1.0
C      1  0.5290120000000  0.4117970000000  0.5039750000000 1.0
C      1  0.4506860000000  0.5348520000000  0.4520210000000 1.0
C      1  0.5551470000000  0.4724030000000  0.5350420000000 1.0
C      1  0.4662540000000  0.5228860000000  0.5291480000000 1.0
C      1  0.5283820000000  0.4740430000000  0.4733060000000 1.0
C      1  0.4911620000000  0.4800550000000  0.5714290000000 1.0
C      1  0.5216890000000  0.5407480000000  0.4358100000000 1.0
C      1  0.5206380000000  0.5198560000000  0.5528500000000 1.0
C      1  0.4750180000000  0.4864510000000  0.4466680000000 1.0
C      1  0.4890960000000  0.5234200000000  0.4742920000000 1.0
C      1  0.5084590000000  0.4815140000000  0.5229490000000 1.0
C      1  0.5331760000000  0.5022220000000  0.4602740000000 1.0
C      1  0.4603250000000  0.4955280000000  0.5423340000000 1.0
END
