TITL C-26728-8286-119 -0.000639549783540657 125000 -338.377143922831 0 0 60 (C1) n - 1
REM
REM in /home/nfs/bkarasulu/CARBON/AIRSS/Generating-Clusters/AIREBO/Higher-Symm/Only-C60
REM
REM
REM
REM
REM
REM ./C.cell (28575a23ae977d3b5fae324c64b13b57)
REM
REM compiler GCC version 9.2.1 20190827 (Red Hat 9.2.1-1)
REM options -cpp -mtune=generic -march=x86-64 -g -O0 -fpre-include=/usr/include/finclude/math-vector-fortran.h
REM seed 2105822981 -472196800 14906409 -908281240 -1584326406 1423001331 1421902020 -236169557 -191119093 522132611 349643175 -878477913 -128768857 1178751673 -2091601727 -528325084 -643908097 38135291 2129476969 -1359938056 525463431 55622554 1040421619 -1138222236 -1308998718 -1473700498 -285203199 -717972601 1966567110 36823698 1781908120 -656575559 -2013581284
REM
CELL 1.54180   50.00000   50.00000   50.00000   90.00000   90.00000   90.00000
LATT -1
SFAC C  
C      1  0.4388790000000  0.4656190000000  0.5233230000000 1.0
C      1  0.4655330000000  0.5598010000000  0.5170260000000 1.0
C      1  0.5755940000000  0.5218830000000  0.5229180000000 1.0
C      1  0.5329140000000  0.4365880000000  0.5204340000000 1.0
C      1  0.4266910000000  0.5249740000000  0.4759190000000 1.0
C      1  0.4668580000000  0.4377290000000  0.4772910000000 1.0
C      1  0.5623810000000  0.4638210000000  0.4743190000000 1.0
C      1  0.5348380000000  0.5604860000000  0.4799220000000 1.0
C      1  0.5135390000000  0.4564260000000  0.4429470000000 1.0
C      1  0.4582720000000  0.4842890000000  0.4459730000000 1.0
C      1  0.4911930000000  0.5469010000000  0.4492030000000 1.0
C      1  0.5452880000000  0.5145390000000  0.4506570000000 1.0
C      1  0.5096130000000  0.5492910000000  0.5481330000000 1.0
C      1  0.4484140000000  0.5174810000000  0.5519600000000 1.0
C      1  0.4848720000000  0.4542250000000  0.5545050000000 1.0
C      1  0.5424560000000  0.4874820000000  0.5493680000000 1.0
C      1  0.5495640000000  0.4665950000000  0.5234980000000 1.0
C      1  0.4700140000000  0.4509050000000  0.5247420000000 1.0
C      1  0.4491620000000  0.5297420000000  0.5208860000000 1.0
C      1  0.5252280000000  0.5519400000000  0.5250400000000 1.0
C      1  0.5487470000000  0.5289970000000  0.4791740000000 1.0
C      1  0.4759100000000  0.5489160000000  0.4723880000000 1.0
C      1  0.4504030000000  0.4677070000000  0.4746400000000 1.0
C      1  0.5284020000000  0.4511520000000  0.4726770000000 1.0
C      1  0.5152220000000  0.5267020000000  0.4739360000000 1.0
C      1  0.5319300000000  0.4848290000000  0.4734930000000 1.0
C      1  0.4828430000000  0.4734390000000  0.4755860000000 1.0
C      1  0.4605920000000  0.5239090000000  0.4796500000000 1.0
C      1  0.5170350000000  0.4715220000000  0.5229540000000 1.0
C      1  0.5422260000000  0.5276930000000  0.5196970000000 1.0
C      1  0.4813880000000  0.5265980000000  0.5314990000000 1.0
C      1  0.4732210000000  0.4843300000000  0.5257190000000 1.0
C      1  0.4838970000000  0.4344980000000  0.5015820000000 1.0
C      1  0.4311710000000  0.5094840000000  0.5022830000000 1.0
C      1  0.5165440000000  0.5676620000000  0.5016540000000 1.0
C      1  0.5679300000000  0.4780000000000  0.4999720000000 1.0
C      1  0.4832130000000  0.5660240000000  0.4946280000000 1.0
C      1  0.4330660000000  0.4795190000000  0.4986910000000 1.0
C      1  0.5146310000000  0.4343320000000  0.4959420000000 1.0
C      1  0.5688580000000  0.5082950000000  0.4971540000000 1.0
C      1  0.5564980000000  0.5113230000000  0.5452230000000 1.0
C      1  0.5074630000000  0.4462260000000  0.5383760000000 1.0
C      1  0.4489780000000  0.4883620000000  0.5441220000000 1.0
C      1  0.4814260000000  0.5585100000000  0.5432650000000 1.0
C      1  0.5580150000000  0.4872460000000  0.4518160000000 1.0
C      1  0.5198450000000  0.5536110000000  0.4536580000000 1.0
C      1  0.4431610000000  0.5040330000000  0.4598400000000 1.0
C      1  0.4909250000000  0.4480360000000  0.4592540000000 1.0
C      1  0.4809510000000  0.4939430000000  0.4326480000000 1.0
C      1  0.4856180000000  0.5243680000000  0.4300560000000 1.0
C      1  0.5146850000000  0.5124290000000  0.4430540000000 1.0
C      1  0.5085560000000  0.4811730000000  0.4320370000000 1.0
C      1  0.4801500000000  0.5080460000000  0.5594480000000 1.0
C      1  0.4902780000000  0.4783160000000  0.5666850000000 1.0
C      1  0.5170170000000  0.4932110000000  0.5605090000000 1.0
C      1  0.5098660000000  0.5243130000000  0.5615630000000 1.0
C      1  0.5021160000000  0.5217430000000  0.5049580000000 1.0
C      1  0.5287660000000  0.5029440000000  0.5020940000000 1.0
C      1  0.5015170000000  0.4828950000000  0.4985100000000 1.0
C      1  0.4756380000000  0.5049470000000  0.4987890000000 1.0
END
