TITL C-26734-8308-37 -0.000146544149335682 125000 -327.625931802041 0 0 60 (C1) n - 1
REM
REM in /home/nfs/bkarasulu/CARBON/AIRSS/Generating-Clusters/AIREBO/Higher-Symm/Only-C60
REM
REM
REM
REM
REM
REM ./C.cell (28575a23ae977d3b5fae324c64b13b57)
REM
REM compiler GCC version 9.2.1 20190827 (Red Hat 9.2.1-1)
REM options -cpp -mtune=generic -march=x86-64 -g -O0 -fpre-include=/usr/include/finclude/math-vector-fortran.h
REM seed 1445060338 -812840760 -597774561 655836556 -2145661214 1208917709 -823927304 1106604565 1324086031 1241035926 211667368 1401338683 1004593571 1908438624 -797707788 590903855 -1212817775 1998878983 -1513264446 2077746268 -910568975 1234455371 -172305530 -1706762760 104617265 -121134255 29597751 -983841533 1178536144 577142154 -1473837932 576499517 1881435078
REM
CELL 1.54180   50.00000   50.00000   50.00000   90.00000   90.00000   90.00000
LATT -1
SFAC C  
C      1  0.5068150000000  0.4360130000000  0.4640960000000 1.0
C      1  0.5047180000000  0.4218440000000  0.5199810000000 1.0
C      1  0.5022070000000  0.4861290000000  0.5691600000000 1.0
C      1  0.5029490000000  0.5460510000000  0.5634300000000 1.0
C      1  0.4977890000000  0.5838400000000  0.5205450000000 1.0
C      1  0.5154630000000  0.5332250000000  0.4340530000000 1.0
C      1  0.4993730000000  0.4859320000000  0.4211590000000 1.0
C      1  0.5320550000000  0.4741910000000  0.5651710000000 1.0
C      1  0.5267580000000  0.5219590000000  0.5642860000000 1.0
C      1  0.5233040000000  0.5706960000000  0.5222780000000 1.0
C      1  0.5360640000000  0.5402040000000  0.4514630000000 1.0
C      1  0.5276090000000  0.4943390000000  0.4351800000000 1.0
C      1  0.5356980000000  0.4444480000000  0.4505060000000 1.0
C      1  0.5297550000000  0.4312280000000  0.5093520000000 1.0
C      1  0.4718890000000  0.4668460000000  0.4271880000000 1.0
C      1  0.4790380000000  0.4245760000000  0.4775460000000 1.0
C      1  0.4954420000000  0.4382510000000  0.5432210000000 1.0
C      1  0.4773440000000  0.5013910000000  0.5837790000000 1.0
C      1  0.4755230000000  0.5594300000000  0.5552610000000 1.0
C      1  0.4830350000000  0.5745910000000  0.4968240000000 1.0
C      1  0.4840770000000  0.5409170000000  0.4254730000000 1.0
C      1  0.5494920000000  0.4906280000000  0.5533130000000 1.0
C      1  0.5396640000000  0.5169960000000  0.5342270000000 1.0
C      1  0.5287260000000  0.5387290000000  0.5140450000000 1.0
C      1  0.5304650000000  0.5321590000000  0.4840870000000 1.0
C      1  0.5243450000000  0.5044850000000  0.4649060000000 1.0
C      1  0.5275080000000  0.4706870000000  0.4673710000000 1.0
C      1  0.5339720000000  0.4622800000000  0.4979500000000 1.0
C      1  0.4446620000000  0.4918400000000  0.5361770000000 1.0
C      1  0.4472470000000  0.5199790000000  0.5295110000000 1.0
C      1  0.4557100000000  0.5334800000000  0.5050160000000 1.0
C      1  0.4530900000000  0.5277580000000  0.4773470000000 1.0
C      1  0.4557020000000  0.4988660000000  0.4712020000000 1.0
C      1  0.4466990000000  0.4684920000000  0.4816480000000 1.0
C      1  0.4513200000000  0.4705240000000  0.5147340000000 1.0
C      1  0.4699440000000  0.5446390000000  0.4556540000000 1.0
C      1  0.4691230000000  0.4957970000000  0.4448090000000 1.0
C      1  0.4722330000000  0.4559020000000  0.4656600000000 1.0
C      1  0.4805180000000  0.4536230000000  0.5193620000000 1.0
C      1  0.4626790000000  0.4876860000000  0.5607460000000 1.0
C      1  0.4661360000000  0.5318430000000  0.5493600000000 1.0
C      1  0.4774610000000  0.5502870000000  0.5127890000000 1.0
C      1  0.4835410000000  0.4833520000000  0.5342410000000 1.0
C      1  0.4922290000000  0.5109980000000  0.5478570000000 1.0
C      1  0.5003680000000  0.5389500000000  0.5302730000000 1.0
C      1  0.5014310000000  0.5373170000000  0.4710390000000 1.0
C      1  0.4944740000000  0.5122250000000  0.4506250000000 1.0
C      1  0.4989050000000  0.4729110000000  0.4525850000000 1.0
C      1  0.5014840000000  0.4538110000000  0.4925790000000 1.0
C      1  0.4872810000000  0.5147040000000  0.4114060000000 1.0
C      1  0.4836070000000  0.4385520000000  0.4393550000000 1.0
C      1  0.4845550000000  0.4127550000000  0.5015190000000 1.0
C      1  0.5077870000000  0.4539900000000  0.5613370000000 1.0
C      1  0.5000060000000  0.5222570000000  0.5853420000000 1.0
C      1  0.4806420000000  0.5843640000000  0.5434070000000 1.0
C      1  0.4883990000000  0.5672240000000  0.4710310000000 1.0
C      1  0.5667870000000  0.4884720000000  0.5275950000000 1.0
C      1  0.5345460000000  0.4886140000000  0.5164000000000 1.0
C      1  0.4747970000000  0.4838290000000  0.4940440000000 1.0
C      1  0.5030620000000  0.4846520000000  0.5086720000000 1.0
END
