TITL C-26733-8285-70 -0.000858091793813004 125000 -342.533083857147 0 0 60 (C1) n - 1
REM
REM in /home/nfs/bkarasulu/CARBON/AIRSS/Generating-Clusters/AIREBO/Higher-Symm/Only-C60
REM
REM
REM
REM
REM
REM ./C.cell (28575a23ae977d3b5fae324c64b13b57)
REM
REM compiler GCC version 9.2.1 20190827 (Red Hat 9.2.1-1)
REM options -cpp -mtune=generic -march=x86-64 -g -O0 -fpre-include=/usr/include/finclude/math-vector-fortran.h
REM seed 1948883365 1134906566 -695416890 714071423 894921906 1572245964 -1397207237 -999429537 1287914837 1269439973 1588439250 590951909 -1792689030 363683531 -635447206 -86367765 2016879126 -1280066450 -1831832108 -1404352110 675442398 837305397 1503768437 628429480 1850477368 -402127986 -2088319265 -207248592 -829310805 509684131 744324090 -1763676446 1629924690
REM
CELL 1.54180   50.00000   50.00000   50.00000   90.00000   90.00000   90.00000
LATT -1
SFAC C  
C      1  0.5696520000000  0.5194250000000  0.4825860000000 1.0
C      1  0.5704380000000  0.4785060000000  0.5101630000000 1.0
C      1  0.5697050000000  0.4780690000000  0.4850390000000 1.0
C      1  0.5705580000000  0.5184140000000  0.5077720000000 1.0
C      1  0.5375060000000  0.5551720000000  0.5136300000000 1.0
C      1  0.5369740000000  0.4415890000000  0.4868300000000 1.0
C      1  0.5382130000000  0.4431710000000  0.5151950000000 1.0
C      1  0.5353460000000  0.5567590000000  0.4853760000000 1.0
C      1  0.4649150000000  0.5175580000000  0.5382220000000 1.0
C      1  0.4653850000000  0.4793960000000  0.4635050000000 1.0
C      1  0.4614600000000  0.4852100000000  0.5282660000000 1.0
C      1  0.4580650000000  0.5125340000000  0.4658970000000 1.0
C      1  0.5302960000000  0.4744240000000  0.4252670000000 1.0
C      1  0.5343910000000  0.5252990000000  0.5724300000000 1.0
C      1  0.5342440000000  0.5273060000000  0.4319100000000 1.0
C      1  0.5293730000000  0.4763870000000  0.5706290000000 1.0
C      1  0.5545400000000  0.5104090000000  0.4458660000000 1.0
C      1  0.5482380000000  0.4857300000000  0.5526570000000 1.0
C      1  0.5502900000000  0.4828440000000  0.4441590000000 1.0
C      1  0.5486250000000  0.5138040000000  0.5511800000000 1.0
C      1  0.4626540000000  0.5194060000000  0.5686520000000 1.0
C      1  0.4639450000000  0.4962860000000  0.4197560000000 1.0
C      1  0.4540490000000  0.4925740000000  0.5789250000000 1.0
C      1  0.4629000000000  0.5200660000000  0.4355310000000 1.0
C      1  0.4107340000000  0.5299910000000  0.4639520000000 1.0
C      1  0.4171960000000  0.4616630000000  0.5341060000000 1.0
C      1  0.4385930000000  0.4652360000000  0.4692880000000 1.0
C      1  0.4388910000000  0.5295900000000  0.5259090000000 1.0
C      1  0.4815700000000  0.5300980000000  0.4783390000000 1.0
C      1  0.4870650000000  0.4714740000000  0.5155800000000 1.0
C      1  0.4874230000000  0.4714280000000  0.4825160000000 1.0
C      1  0.4896470000000  0.5283860000000  0.5248610000000 1.0
C      1  0.5131850000000  0.4834630000000  0.4688100000000 1.0
C      1  0.5149310000000  0.5138640000000  0.5113300000000 1.0
C      1  0.5121740000000  0.5153190000000  0.4771670000000 1.0
C      1  0.5139740000000  0.4861870000000  0.5280280000000 1.0
C      1  0.4242070000000  0.4816800000000  0.4868260000000 1.0
C      1  0.4260250000000  0.5115050000000  0.5095260000000 1.0
C      1  0.4286970000000  0.5136680000000  0.4772860000000 1.0
C      1  0.4316530000000  0.4798080000000  0.5190690000000 1.0
C      1  0.5048050000000  0.4758210000000  0.4380450000000 1.0
C      1  0.5083940000000  0.5157210000000  0.5759620000000 1.0
C      1  0.5096500000000  0.5276930000000  0.4455810000000 1.0
C      1  0.5015200000000  0.4882220000000  0.5598630000000 1.0
C      1  0.4908920000000  0.4388960000000  0.5198970000000 1.0
C      1  0.4871530000000  0.5569140000000  0.4888990000000 1.0
C      1  0.4903810000000  0.5557920000000  0.5177210000000 1.0
C      1  0.4901650000000  0.4409580000000  0.4900520000000 1.0
C      1  0.5443250000000  0.5259090000000  0.5235190000000 1.0
C      1  0.5429560000000  0.4679080000000  0.4719190000000 1.0
C      1  0.5443410000000  0.4710290000000  0.5256530000000 1.0
C      1  0.5422110000000  0.5299800000000  0.4708930000000 1.0
C      1  0.5107280000000  0.5695980000000  0.4774210000000 1.0
C      1  0.5165630000000  0.4304840000000  0.5288630000000 1.0
C      1  0.5130100000000  0.4289280000000  0.4780020000000 1.0
C      1  0.5151400000000  0.5676260000000  0.5264200000000 1.0
C      1  0.4719370000000  0.4819150000000  0.5584450000000 1.0
C      1  0.4857130000000  0.5364740000000  0.4340010000000 1.0
C      1  0.4851030000000  0.5300510000000  0.5815040000000 1.0
C      1  0.4772830000000  0.4763840000000  0.4353000000000 1.0
END
