TITL C-26733-8285-145 -0.037798792739421 125000 -333.634404557136 0 0 60 (C1) n - 1
REM
REM in /home/nfs/bkarasulu/CARBON/AIRSS/Generating-Clusters/AIREBO/Higher-Symm/Only-C60
REM
REM
REM
REM
REM
REM ./C.cell (28575a23ae977d3b5fae324c64b13b57)
REM
REM compiler GCC version 9.2.1 20190827 (Red Hat 9.2.1-1)
REM options -cpp -mtune=generic -march=x86-64 -g -O0 -fpre-include=/usr/include/finclude/math-vector-fortran.h
REM seed -96466402 203282032 -650634822 1367573446 -1257820210 1658552101 1353599700 -1300980709 -1304037270 -945661866 -106282589 1008846491 318740504 1677742800 1871279550 -1362642809 -1088432620 957080490 -757796644 1813326212 -1891630089 -656802371 447234148 -311740606 -1637172409 -1544433839 -1270216936 -1801692636 -777934071 1803932504 -1780001821 -271436779 1424864618
REM
CELL 1.54180   50.00000   50.00000   50.00000   90.00000   90.00000   90.00000
LATT -1
SFAC C  
C      1  0.4722740000000  0.5082560000000  0.4779330000000 1.0
C      1  0.4625630000000  0.4874840000000  0.5031400000000 1.0
C      1  0.4775700000000  0.5000710000000  0.5288560000000 1.0
C      1  0.5094350000000  0.5041290000000  0.5404410000000 1.0
C      1  0.5333550000000  0.5038300000000  0.5161330000000 1.0
C      1  0.5245480000000  0.5251150000000  0.4911080000000 1.0
C      1  0.4984350000000  0.5063840000000  0.4560270000000 1.0
C      1  0.5457250000000  0.4749230000000  0.4494630000000 1.0
C      1  0.4829930000000  0.4830490000000  0.4370850000000 1.0
C      1  0.4443080000000  0.4762860000000  0.4767250000000 1.0
C      1  0.4479470000000  0.4728260000000  0.5301890000000 1.0
C      1  0.4812690000000  0.4752090000000  0.5668400000000 1.0
C      1  0.5418770000000  0.4678170000000  0.5520870000000 1.0
C      1  0.5565020000000  0.4818870000000  0.5040540000000 1.0
C      1  0.4666850000000  0.4306320000000  0.4877970000000 1.0
C      1  0.4697690000000  0.4279010000000  0.5158320000000 1.0
C      1  0.4961860000000  0.4350750000000  0.5269540000000 1.0
C      1  0.5282980000000  0.4275410000000  0.5238730000000 1.0
C      1  0.5350770000000  0.4345230000000  0.4918710000000 1.0
C      1  0.5142680000000  0.4362830000000  0.4669180000000 1.0
C      1  0.4858150000000  0.4359820000000  0.4667910000000 1.0
C      1  0.5504910000000  0.5577730000000  0.5542620000000 1.0
C      1  0.5696510000000  0.5444530000000  0.5024080000000 1.0
C      1  0.5449400000000  0.5284190000000  0.4447510000000 1.0
C      1  0.4944980000000  0.5560540000000  0.4247410000000 1.0
C      1  0.4410330000000  0.5447650000000  0.4640020000000 1.0
C      1  0.4431940000000  0.5470440000000  0.5260270000000 1.0
C      1  0.4938760000000  0.5481450000000  0.5666900000000 1.0
C      1  0.5256160000000  0.4509010000000  0.4458830000000 1.0
C      1  0.4744830000000  0.4514700000000  0.4452930000000 1.0
C      1  0.4416580000000  0.4438920000000  0.4838350000000 1.0
C      1  0.4489690000000  0.4399260000000  0.5293840000000 1.0
C      1  0.4941000000000  0.4497450000000  0.5529610000000 1.0
C      1  0.5445170000000  0.4411390000000  0.5452570000000 1.0
C      1  0.5599490000000  0.4514730000000  0.4905370000000 1.0
C      1  0.5209620000000  0.5814560000000  0.5234020000000 1.0
C      1  0.5343350000000  0.5946070000000  0.5024950000000 1.0
C      1  0.5273620000000  0.5927050000000  0.4758870000000 1.0
C      1  0.5046820000000  0.5794960000000  0.4655500000000 1.0
C      1  0.4803980000000  0.5849180000000  0.4789140000000 1.0
C      1  0.4761560000000  0.5752110000000  0.5047730000000 1.0
C      1  0.4931220000000  0.5851360000000  0.5248390000000 1.0
C      1  0.5149230000000  0.4817820000000  0.4392530000000 1.0
C      1  0.4536120000000  0.4760470000000  0.4490750000000 1.0
C      1  0.4293480000000  0.4654390000000  0.5047250000000 1.0
C      1  0.4568450000000  0.4823660000000  0.5580670000000 1.0
C      1  0.5134480000000  0.4767980000000  0.5563620000000 1.0
C      1  0.5553200000000  0.4870880000000  0.5359740000000 1.0
C      1  0.5609290000000  0.4768110000000  0.4714430000000 1.0
C      1  0.5318400000000  0.5549150000000  0.5330480000000 1.0
C      1  0.5445050000000  0.5413880000000  0.5088640000000 1.0
C      1  0.5182380000000  0.5308580000000  0.4600760000000 1.0
C      1  0.5053170000000  0.5563050000000  0.4500340000000 1.0
C      1  0.4582200000000  0.5347230000000  0.4807940000000 1.0
C      1  0.4652550000000  0.5474430000000  0.5081970000000 1.0
C      1  0.5080320000000  0.5377720000000  0.5417990000000 1.0
C      1  0.5102050000000  0.4520770000000  0.5033760000000 1.0
C      1  0.4881540000000  0.5290140000000  0.5178040000000 1.0
C      1  0.4990300000000  0.5053960000000  0.4958630000000 1.0
C      1  0.5043150000000  0.4779450000000  0.4990290000000 1.0
END
