TITL C-26734-8308-138 0.00560773747306522 125000 -321.276888341165 0 0 60 (C1) n - 1
REM
REM in /home/nfs/bkarasulu/CARBON/AIRSS/Generating-Clusters/AIREBO/Higher-Symm/Only-C60
REM
REM
REM
REM
REM
REM ./C.cell (28575a23ae977d3b5fae324c64b13b57)
REM
REM compiler GCC version 9.2.1 20190827 (Red Hat 9.2.1-1)
REM options -cpp -mtune=generic -march=x86-64 -g -O0 -fpre-include=/usr/include/finclude/math-vector-fortran.h
REM seed -610750577 1406744687 760908117 858219220 226590189 -2014342084 -2012674784 531945544 346737928 1222992497 -2131806905 296880793 47212723 1468473753 -2033455569 -507552281 -924664093 -2017254073 -1318251783 -159271430 1963984466 1711770843 -33459329 -1011429632 1222855940 -1808353242 848469340 -511806645 1761864775 -279660603 2051668761 1444473439 238965234
REM
CELL 1.54180   50.00000   50.00000   50.00000   90.00000   90.00000   90.00000
LATT -1
SFAC C  
C      1  0.4306220000000  0.5382950000000  0.5052790000000 1.0
C      1  0.5285110000000  0.5314660000000  0.4508390000000 1.0
C      1  0.5366600000000  0.5268160000000  0.5466310000000 1.0
C      1  0.5838370000000  0.4255370000000  0.4934750000000 1.0
C      1  0.4462370000000  0.4297850000000  0.5244210000000 1.0
C      1  0.4959140000000  0.4333570000000  0.4893510000000 1.0
C      1  0.5596940000000  0.5097170000000  0.5313230000000 1.0
C      1  0.4294960000000  0.5115770000000  0.5264750000000 1.0
C      1  0.5091610000000  0.5042150000000  0.4464540000000 1.0
C      1  0.4853860000000  0.4728190000000  0.5445270000000 1.0
C      1  0.4574400000000  0.4725480000000  0.4684770000000 1.0
C      1  0.5728690000000  0.4796800000000  0.4744730000000 1.0
C      1  0.5960080000000  0.5044600000000  0.5074390000000 1.0
C      1  0.4578610000000  0.4875900000000  0.5586260000000 1.0
C      1  0.4632410000000  0.4894660000000  0.4427070000000 1.0
C      1  0.4495970000000  0.5127110000000  0.5489140000000 1.0
C      1  0.4803310000000  0.5108640000000  0.4430050000000 1.0
C      1  0.5693020000000  0.5070220000000  0.4926050000000 1.0
C      1  0.5158950000000  0.5564270000000  0.4618590000000 1.0
C      1  0.5258250000000  0.5452230000000  0.5242520000000 1.0
C      1  0.4607290000000  0.5520350000000  0.5034500000000 1.0
C      1  0.4893440000000  0.4396040000000  0.4385020000000 1.0
C      1  0.5531650000000  0.4600800000000  0.5189530000000 1.0
C      1  0.4391710000000  0.4641630000000  0.5660300000000 1.0
C      1  0.5073630000000  0.4533740000000  0.4638400000000 1.0
C      1  0.5584060000000  0.4283390000000  0.5098830000000 1.0
C      1  0.4351570000000  0.4609590000000  0.5298710000000 1.0
C      1  0.4337020000000  0.4848600000000  0.5124590000000 1.0
C      1  0.5132360000000  0.4835440000000  0.4707990000000 1.0
C      1  0.5462380000000  0.4901980000000  0.5110900000000 1.0
C      1  0.5234740000000  0.5231710000000  0.5008310000000 1.0
C      1  0.4928140000000  0.5114000000000  0.5375210000000 1.0
C      1  0.4627530000000  0.5205850000000  0.4897370000000 1.0
C      1  0.4262250000000  0.4683650000000  0.4689220000000 1.0
C      1  0.5602030000000  0.4774830000000  0.4504650000000 1.0
C      1  0.5151470000000  0.4779390000000  0.5542860000000 1.0
C      1  0.5334960000000  0.4747620000000  0.4460730000000 1.0
C      1  0.5365040000000  0.4639380000000  0.5457870000000 1.0
C      1  0.4145020000000  0.4788200000000  0.4888620000000 1.0
C      1  0.4395550000000  0.5383310000000  0.4724710000000 1.0
C      1  0.5434850000000  0.5203760000000  0.4749610000000 1.0
C      1  0.5155610000000  0.5066300000000  0.5530210000000 1.0
C      1  0.4750470000000  0.5526780000000  0.5296850000000 1.0
C      1  0.4884840000000  0.5579650000000  0.4632660000000 1.0
C      1  0.5459310000000  0.5561140000000  0.5024220000000 1.0
C      1  0.4628510000000  0.4503060000000  0.5459380000000 1.0
C      1  0.4740250000000  0.4480680000000  0.4678880000000 1.0
C      1  0.5737050000000  0.4570980000000  0.4919340000000 1.0
C      1  0.5331830000000  0.5688910000000  0.4805550000000 1.0
C      1  0.5006100000000  0.5621750000000  0.5302030000000 1.0
C      1  0.4737690000000  0.5717140000000  0.4828060000000 1.0
C      1  0.5679790000000  0.5402980000000  0.4995070000000 1.0
C      1  0.4717040000000  0.5285000000000  0.5429900000000 1.0
C      1  0.4708910000000  0.5332200000000  0.4598930000000 1.0
C      1  0.4029240000000  0.5326390000000  0.5239280000000 1.0
C      1  0.5307660000000  0.5139970000000  0.4219580000000 1.0
C      1  0.5688660000000  0.5256220000000  0.5576050000000 1.0
C      1  0.4621140000000  0.4911340000000  0.4966420000000 1.0
C      1  0.5149520000000  0.4924160000000  0.4991790000000 1.0
C      1  0.4880820000000  0.4886360000000  0.5146570000000 1.0
END
