TITL C-26737-6152-165 -0.000129211783844355 125000 -318.626581536422 0 0 60 (C1) n - 1
REM
REM in /home/nfs/bkarasulu/CARBON/AIRSS/Generating-Clusters/AIREBO/Higher-Symm/Only-C60
REM
REM
REM
REM
REM
REM ./C.cell (28575a23ae977d3b5fae324c64b13b57)
REM
REM compiler GCC version 9.2.1 20190827 (Red Hat 9.2.1-1)
REM options -cpp -mtune=generic -march=x86-64 -g -O0 -fpre-include=/usr/include/finclude/math-vector-fortran.h
REM seed 632509952 -289692080 -932746576 -150486109 1614695472 -2023487872 -1400168619 853215489 -1418950589 -942849986 2145038016 -548940370 1243746274 -893178975 -865008466 -326730359 1610818163 -185450835 1449511032 952537506 658425228 -1285180475 419760957 252696104 298411220 -773919086 -1542641940 -702144579 894208853 -1963167525 -910258037 -292898006 867127754
REM
CELL 1.54180   50.00000   50.00000   50.00000   90.00000   90.00000   90.00000
LATT -1
SFAC C  
C      1  0.5179510000000  0.4707540000000  0.4466820000000 1.0
C      1  0.5179060000000  0.5293360000000  0.5533590000000 1.0
C      1  0.4837200000000  0.5279140000000  0.4506080000000 1.0
C      1  0.4837630000000  0.4721150000000  0.5494900000000 1.0
C      1  0.5167550000000  0.4506080000000  0.4720140000000 1.0
C      1  0.5163030000000  0.5494530000000  0.5280350000000 1.0
C      1  0.4818330000000  0.4467460000000  0.5294480000000 1.0
C      1  0.4820310000000  0.5532390000000  0.4707160000000 1.0
C      1  0.5572080000000  0.5288160000000  0.5460290000000 1.0
C      1  0.5572640000000  0.4712550000000  0.4538710000000 1.0
C      1  0.4410060000000  0.4725110000000  0.5451930000000 1.0
C      1  0.4411810000000  0.5275830000000  0.4546960000000 1.0
C      1  0.5586810000000  0.5455510000000  0.5278490000000 1.0
C      1  0.5581760000000  0.4541340000000  0.4716360000000 1.0
C      1  0.4427490000000  0.5458020000000  0.4713900000000 1.0
C      1  0.4425690000000  0.4542490000000  0.5285350000000 1.0
C      1  0.4597270000000  0.4417220000000  0.5045120000000 1.0
C      1  0.4597960000000  0.5582030000000  0.4955350000000 1.0
C      1  0.5405170000000  0.5591050000000  0.5064380000000 1.0
C      1  0.5403500000000  0.4391030000000  0.4934620000000 1.0
C      1  0.4594590000000  0.5063730000000  0.4410760000000 1.0
C      1  0.4594110000000  0.4934970000000  0.5589750000000 1.0
C      1  0.5402310000000  0.5046000000000  0.5584130000000 1.0
C      1  0.5402560000000  0.4955820000000  0.4417210000000 1.0
C      1  0.4744090000000  0.5123870000000  0.5862230000000 1.0
C      1  0.4744620000000  0.4874860000000  0.4138250000000 1.0
C      1  0.5239060000000  0.4897180000000  0.5834530000000 1.0
C      1  0.5240470000000  0.5105240000000  0.4166640000000 1.0
C      1  0.4759480000000  0.5832840000000  0.5104950000000 1.0
C      1  0.4764580000000  0.4168620000000  0.4897860000000 1.0
C      1  0.5253900000000  0.5862640000000  0.4875600000000 1.0
C      1  0.5246770000000  0.4153070000000  0.5103750000000 1.0
C      1  0.5376140000000  0.5291930000000  0.4489300000000 1.0
C      1  0.5377300000000  0.4709590000000  0.5513540000000 1.0
C      1  0.4656660000000  0.4753640000000  0.4506940000000 1.0
C      1  0.4655740000000  0.5245330000000  0.5493770000000 1.0
C      1  0.5345160000000  0.4508220000000  0.5249640000000 1.0
C      1  0.5343750000000  0.5494620000000  0.4753800000000 1.0
C      1  0.4626280000000  0.4488760000000  0.4709020000000 1.0
C      1  0.4623900000000  0.5510130000000  0.5291550000000 1.0
C      1  0.5139820000000  0.5283150000000  0.5022640000000 1.0
C      1  0.5141520000000  0.4716740000000  0.4978410000000 1.0
C      1  0.4853330000000  0.4722170000000  0.5096070000000 1.0
C      1  0.4851940000000  0.5277140000000  0.4904950000000 1.0
C      1  0.5149840000000  0.5095600000000  0.5277860000000 1.0
C      1  0.5149980000000  0.4904790000000  0.4723140000000 1.0
C      1  0.4861990000000  0.5021920000000  0.4717790000000 1.0
C      1  0.4862210000000  0.4977890000000  0.5282900000000 1.0
C      1  0.5073730000000  0.4308570000000  0.5295890000000 1.0
C      1  0.5077070000000  0.5688270000000  0.4707610000000 1.0
C      1  0.4920600000000  0.5675840000000  0.5306700000000 1.0
C      1  0.4923750000000  0.4324370000000  0.4693900000000 1.0
C      1  0.5079030000000  0.5306240000000  0.4324250000000 1.0
C      1  0.5079310000000  0.4694670000000  0.5676960000000 1.0
C      1  0.4921580000000  0.5291730000000  0.5688350000000 1.0
C      1  0.4922260000000  0.4707650000000  0.4312480000000 1.0
C      1  0.5311760000000  0.4845450000000  0.5215910000000 1.0
C      1  0.4691230000000  0.5214590000000  0.5155420000000 1.0
C      1  0.5310110000000  0.5155910000000  0.4785170000000 1.0
C      1  0.4692600000000  0.4784270000000  0.4845390000000 1.0
END
