TITL C-26730-8313-37 0.00109356783063783 125000 -348.574391940316 0 0 60 (C1) n - 1
REM
REM in /home/nfs/bkarasulu/CARBON/AIRSS/Generating-Clusters/AIREBO/Higher-Symm/Only-C60
REM
REM
REM
REM
REM
REM ./C.cell (28575a23ae977d3b5fae324c64b13b57)
REM
REM compiler GCC version 9.2.1 20190827 (Red Hat 9.2.1-1)
REM options -cpp -mtune=generic -march=x86-64 -g -O0 -fpre-include=/usr/include/finclude/math-vector-fortran.h
REM seed -1853573999 -334719189 474131883 -1061245039 742830506 506452497 1070244171 -26355688 -385502493 858915932 -1276660084 1593854685 -224867482 425071296 -2142618383 950516180 1869687346 431047515 -863603842 1980039510 -90765214 989984323 -2128063757 1352738974 2087876823 -908548263 1909673764 560656215 -63677158 1597165063 2022014910 848562715 475333868
REM
CELL 1.54180   50.00000   50.00000   50.00000   90.00000   90.00000   90.00000
LATT -1
SFAC C  
C      1  0.4731660000000  0.4852790000000  0.4345860000000 1.0
C      1  0.5289270000000  0.4807370000000  0.4411060000000 1.0
C      1  0.5009140000000  0.5285570000000  0.4395600000000 1.0
C      1  0.4761520000000  0.4842070000000  0.5631310000000 1.0
C      1  0.5265890000000  0.4897860000000  0.5611440000000 1.0
C      1  0.4970770000000  0.5301840000000  0.5613880000000 1.0
C      1  0.5286070000000  0.5106150000000  0.4374230000000 1.0
C      1  0.4765990000000  0.5114830000000  0.4443660000000 1.0
C      1  0.4972600000000  0.4704690000000  0.4344310000000 1.0
C      1  0.5216740000000  0.5171290000000  0.5535140000000 1.0
C      1  0.4748110000000  0.5121970000000  0.5549770000000 1.0
C      1  0.5029060000000  0.4737420000000  0.5564670000000 1.0
C      1  0.4849470000000  0.5471490000000  0.5268720000000 1.0
C      1  0.4666990000000  0.4645170000000  0.5252610000000 1.0
C      1  0.5590210000000  0.4871830000000  0.5193900000000 1.0
C      1  0.4802190000000  0.5564280000000  0.4741770000000 1.0
C      1  0.4635820000000  0.4592810000000  0.4730600000000 1.0
C      1  0.5518880000000  0.4878920000000  0.4861510000000 1.0
C      1  0.4524370000000  0.4689800000000  0.5502790000000 1.0
C      1  0.5503170000000  0.4779970000000  0.5502130000000 1.0
C      1  0.4970490000000  0.5597810000000  0.5506030000000 1.0
C      1  0.4512630000000  0.4723740000000  0.4491270000000 1.0
C      1  0.5535610000000  0.4722190000000  0.4595100000000 1.0
C      1  0.4991290000000  0.5592380000000  0.4499300000000 1.0
C      1  0.5291150000000  0.4589580000000  0.4879930000000 1.0
C      1  0.5097600000000  0.5460390000000  0.4859590000000 1.0
C      1  0.4566970000000  0.4892090000000  0.4849310000000 1.0
C      1  0.5313750000000  0.4680990000000  0.5165390000000 1.0
C      1  0.5055580000000  0.5346550000000  0.5127120000000 1.0
C      1  0.4676300000000  0.4893660000000  0.5125590000000 1.0
C      1  0.5602000000000  0.4454710000000  0.4633310000000 1.0
C      1  0.5216970000000  0.5735460000000  0.4583690000000 1.0
C      1  0.4267090000000  0.4851340000000  0.4584460000000 1.0
C      1  0.5545440000000  0.4499050000000  0.5336510000000 1.0
C      1  0.5201190000000  0.5754970000000  0.5420960000000 1.0
C      1  0.4261020000000  0.4798010000000  0.5430080000000 1.0
C      1  0.5098620000000  0.4651060000000  0.4646780000000 1.0
C      1  0.5216780000000  0.5259740000000  0.4662910000000 1.0
C      1  0.4657180000000  0.5136950000000  0.4698170000000 1.0
C      1  0.5059610000000  0.4629540000000  0.5310360000000 1.0
C      1  0.5260600000000  0.5230240000000  0.5264880000000 1.0
C      1  0.4662450000000  0.5120570000000  0.5278790000000 1.0
C      1  0.5389630000000  0.4289310000000  0.5169340000000 1.0
C      1  0.5387720000000  0.5690800000000  0.5207270000000 1.0
C      1  0.4217540000000  0.4993670000000  0.5217460000000 1.0
C      1  0.5423220000000  0.4291710000000  0.4850450000000 1.0
C      1  0.5307940000000  0.5697030000000  0.4909670000000 1.0
C      1  0.4253030000000  0.4936140000000  0.4914110000000 1.0
C      1  0.4563200000000  0.5404760000000  0.4843480000000 1.0
C      1  0.4888950000000  0.4457270000000  0.4830060000000 1.0
C      1  0.5499320000000  0.5199020000000  0.4807530000000 1.0
C      1  0.4561800000000  0.5400550000000  0.5153180000000 1.0
C      1  0.4872320000000  0.4430520000000  0.5139340000000 1.0
C      1  0.5529930000000  0.5176370000000  0.5126970000000 1.0
C      1  0.4279390000000  0.5241340000000  0.4766460000000 1.0
C      1  0.5119540000000  0.4250090000000  0.4729300000000 1.0
C      1  0.5525000000000  0.5499770000000  0.4745080000000 1.0
C      1  0.4287090000000  0.5256480000000  0.5271570000000 1.0
C      1  0.5127290000000  0.4241970000000  0.5243520000000 1.0
C      1  0.5568880000000  0.5484080000000  0.5250700000000 1.0
END
