TITL C-26731-8310-189 -0.00218685368493817 125000 -338.361729560673 0 0 60 (C1) n - 1
REM
REM in /home/nfs/bkarasulu/CARBON/AIRSS/Generating-Clusters/AIREBO/Higher-Symm/Only-C60
REM
REM
REM
REM
REM
REM ./C.cell (28575a23ae977d3b5fae324c64b13b57)
REM
REM compiler GCC version 9.2.1 20190827 (Red Hat 9.2.1-1)
REM options -cpp -mtune=generic -march=x86-64 -g -O0 -fpre-include=/usr/include/finclude/math-vector-fortran.h
REM seed -74167452 -279530184 528632137 -1997744533 -1679556946 -1111206782 702451478 -925087715 726052860 1710194781 325768261 -1007397651 -552383429 -2118987867 1796269104 941060719 738075946 117866034 1672673297 -84934613 134801057 1224696856 -1710113721 -781175592 -580927662 1334334877 -57855512 1723212369 -790377657 -1485116957 1285730750 -2057538537 -517963426
REM
CELL 1.54180   50.00000   50.00000   50.00000   90.00000   90.00000   90.00000
LATT -1
SFAC C  
C      1  0.4990690000000  0.4941890000000  0.4630830000000 1.0
C      1  0.4974100000000  0.4739150000000  0.5153350000000 1.0
C      1  0.4938500000000  0.5296450000000  0.5098470000000 1.0
C      1  0.4720150000000  0.4960910000000  0.4744520000000 1.0
C      1  0.4727950000000  0.4856500000000  0.5043700000000 1.0
C      1  0.4689850000000  0.5167980000000  0.5084280000000 1.0
C      1  0.5431210000000  0.5252000000000  0.4210310000000 1.0
C      1  0.5549960000000  0.4141880000000  0.4942430000000 1.0
C      1  0.5304300000000  0.5286440000000  0.6133720000000 1.0
C      1  0.4915340000000  0.5331330000000  0.5521040000000 1.0
C      1  0.4781290000000  0.5521720000000  0.4385420000000 1.0
C      1  0.4899300000000  0.4341820000000  0.4960890000000 1.0
C      1  0.5054900000000  0.4431810000000  0.4205270000000 1.0
C      1  0.5288930000000  0.4531520000000  0.5659120000000 1.0
C      1  0.5170720000000  0.5895700000000  0.4915750000000 1.0
C      1  0.4446240000000  0.5483430000000  0.4757030000000 1.0
C      1  0.4490490000000  0.4528490000000  0.4711970000000 1.0
C      1  0.4530810000000  0.5035040000000  0.5494460000000 1.0
C      1  0.4954540000000  0.3949000000000  0.5357010000000 1.0
C      1  0.4948450000000  0.5651700000000  0.5878070000000 1.0
C      1  0.4925720000000  0.5380250000000  0.3945430000000 1.0
C      1  0.4885830000000  0.5715980000000  0.4560670000000 1.0
C      1  0.5077200000000  0.4267710000000  0.4687790000000 1.0
C      1  0.5139290000000  0.4956600000000  0.5825740000000 1.0
C      1  0.5402460000000  0.4760380000000  0.5036220000000 1.0
C      1  0.5357280000000  0.5070740000000  0.5139860000000 1.0
C      1  0.5376050000000  0.5233820000000  0.4849820000000 1.0
C      1  0.5681670000000  0.5207760000000  0.4825130000000 1.0
C      1  0.5690210000000  0.4754170000000  0.4990100000000 1.0
C      1  0.5663670000000  0.5110580000000  0.5266770000000 1.0
C      1  0.5180750000000  0.4774600000000  0.5618380000000 1.0
C      1  0.5055030000000  0.5687990000000  0.4780500000000 1.0
C      1  0.5067910000000  0.4458600000000  0.4469040000000 1.0
C      1  0.5191750000000  0.5291870000000  0.4337520000000 1.0
C      1  0.5334710000000  0.4282000000000  0.4868560000000 1.0
C      1  0.5154320000000  0.5218460000000  0.5920380000000 1.0
C      1  0.4491400000000  0.5458760000000  0.5271240000000 1.0
C      1  0.4478710000000  0.5069590000000  0.4444100000000 1.0
C      1  0.4521830000000  0.4549090000000  0.5194460000000 1.0
C      1  0.5800670000000  0.4848310000000  0.5250700000000 1.0
C      1  0.5787140000000  0.5306420000000  0.5081930000000 1.0
C      1  0.5765550000000  0.4935260000000  0.4774750000000 1.0
C      1  0.4931010000000  0.4118040000000  0.5167220000000 1.0
C      1  0.5008190000000  0.5409960000000  0.5774490000000 1.0
C      1  0.4968720000000  0.5399740000000  0.4210500000000 1.0
C      1  0.5100390000000  0.4866410000000  0.5369220000000 1.0
C      1  0.5097100000000  0.5408570000000  0.4867940000000 1.0
C      1  0.5101150000000  0.4685960000000  0.4642660000000 1.0
C      1  0.4492480000000  0.4697480000000  0.5499140000000 1.0
C      1  0.4461420000000  0.5622060000000  0.5004850000000 1.0
C      1  0.4490450000000  0.4786770000000  0.4599470000000 1.0
C      1  0.4444790000000  0.5145410000000  0.4770030000000 1.0
C      1  0.4452980000000  0.4874390000000  0.5215900000000 1.0
C      1  0.4380410000000  0.5237600000000  0.5067980000000 1.0
C      1  0.5154900000000  0.4565420000000  0.4942300000000 1.0
C      1  0.5118540000000  0.5178190000000  0.5332240000000 1.0
C      1  0.5151260000000  0.5189190000000  0.4613890000000 1.0
C      1  0.4618040000000  0.4450210000000  0.4956080000000 1.0
C      1  0.4638200000000  0.5295200000000  0.5464410000000 1.0
C      1  0.4553110000000  0.5385710000000  0.4474940000000 1.0
END
