TITL C-26726-4881-1 -0.00418046501027113 125000 -344.421033564403 0 0 60 (C3) n - 1
REM
REM in /home/nfs/bkarasulu/CARBON/AIRSS/Generating-Clusters/AIREBO/Higher-Symm/Only-C60
REM
REM
REM
REM
REM
REM ./C.cell (28575a23ae977d3b5fae324c64b13b57)
REM
REM compiler GCC version 9.2.1 20190827 (Red Hat 9.2.1-1)
REM options -cpp -mtune=generic -march=x86-64 -g -O0 -fpre-include=/usr/include/finclude/math-vector-fortran.h
REM seed -940066024 1641484755 -543755198 -847034841 2037881 1266703861 -1383554819 1858459885 1403287419 -54726735 -693002582 -966656202 647257727 -1875899737 -507964179 -1659188903 306736809 1104826045 -824101560 971589401 -655831640 -1215930709 1664741061 -1654830308 972086913 -1894575118 1037702942 -1863845622 -1762185808 -1952808484 1012373044 1758833227 661170412
REM
CELL 1.54180   50.00000   50.00000   50.00000   90.00000   90.00000   90.00000
LATT -1
SFAC C  
C      1  0.4830190000000  0.5065440000000  0.4655250000000 1.0
C      1  0.5065290000000  0.4655290000000  0.4830060000000 1.0
C      1  0.4655220000000  0.4830180000000  0.5065240000000 1.0
C      1  0.5084560000000  0.4917580000000  0.4697670000000 1.0
C      1  0.4883310000000  0.4928880000000  0.5406600000000 1.0
C      1  0.5123810000000  0.5082260000000  0.5406450000000 1.0
C      1  0.4929050000000  0.5406680000000  0.4883460000000 1.0
C      1  0.5082430000000  0.5406370000000  0.5123950000000 1.0
C      1  0.4917450000000  0.4697670000000  0.5084450000000 1.0
C      1  0.5406420000000  0.5123750000000  0.5082460000000 1.0
C      1  0.4697710000000  0.5084610000000  0.4917500000000 1.0
C      1  0.5406620000000  0.4883320000000  0.4928980000000 1.0
C      1  0.4913090000000  0.5146780000000  0.5737930000000 1.0
C      1  0.5147090000000  0.5737900000000  0.4913350000000 1.0
C      1  0.5737870000000  0.4912990000000  0.5147020000000 1.0
C      1  0.5080140000000  0.4886730000000  0.5750190000000 1.0
C      1  0.4908350000000  0.4849640000000  0.4328530000000 1.0
C      1  0.5075600000000  0.5095380000000  0.4341970000000 1.0
C      1  0.4849350000000  0.4328630000000  0.4908110000000 1.0
C      1  0.5095100000000  0.4341900000000  0.5075350000000 1.0
C      1  0.4887050000000  0.5750200000000  0.5080430000000 1.0
C      1  0.4341940000000  0.5075590000000  0.5095160000000 1.0
C      1  0.5750230000000  0.5080150000000  0.4887040000000 1.0
C      1  0.4328580000000  0.4908440000000  0.4849350000000 1.0
C      1  0.4400780000000  0.5032370000000  0.4596300000000 1.0
C      1  0.5032170000000  0.4596510000000  0.4400630000000 1.0
C      1  0.4596260000000  0.4400780000000  0.5031960000000 1.0
C      1  0.5579750000000  0.4921040000000  0.4638730000000 1.0
C      1  0.4489280000000  0.4902870000000  0.5343290000000 1.0
C      1  0.5547310000000  0.5079390000000  0.5376110000000 1.0
C      1  0.4902990000000  0.5343520000000  0.4489410000000 1.0
C      1  0.5079580000000  0.5375880000000  0.5547440000000 1.0
C      1  0.4920920000000  0.4638550000000  0.5579620000000 1.0
C      1  0.5376110000000  0.5547250000000  0.5079760000000 1.0
C      1  0.4638790000000  0.5579800000000  0.4921150000000 1.0
C      1  0.5343300000000  0.4489310000000  0.4902780000000 1.0
C      1  0.4657850000000  0.4484460000000  0.5595720000000 1.0
C      1  0.4484700000000  0.5596070000000  0.4658100000000 1.0
C      1  0.5595900000000  0.4658040000000  0.4484540000000 1.0
C      1  0.5348060000000  0.5498910000000  0.5608480000000 1.0
C      1  0.4635690000000  0.5461920000000  0.4413110000000 1.0
C      1  0.5312410000000  0.4536470000000  0.4372610000000 1.0
C      1  0.5461650000000  0.4413050000000  0.4635450000000 1.0
C      1  0.4536220000000  0.4372690000000  0.5312200000000 1.0
C      1  0.5499190000000  0.5608140000000  0.5348260000000 1.0
C      1  0.4372790000000  0.5312640000000  0.4536370000000 1.0
C      1  0.5608310000000  0.5347820000000  0.5499290000000 1.0
C      1  0.4412920000000  0.4635520000000  0.5461540000000 1.0
C      1  0.4442910000000  0.4629820000000  0.4906120000000 1.0
C      1  0.4629760000000  0.4906490000000  0.4442890000000 1.0
C      1  0.4906230000000  0.4443070000000  0.4629550000000 1.0
C      1  0.5572740000000  0.5347040000000  0.4930730000000 1.0
C      1  0.4527460000000  0.5305990000000  0.5016340000000 1.0
C      1  0.5557560000000  0.4651300000000  0.5082620000000 1.0
C      1  0.5305970000000  0.5016390000000  0.4527450000000 1.0
C      1  0.4651360000000  0.5082560000000  0.5557610000000 1.0
C      1  0.5347040000000  0.4930370000000  0.5572690000000 1.0
C      1  0.5082780000000  0.5557700000000  0.4651570000000 1.0
C      1  0.4930630000000  0.5572590000000  0.5347250000000 1.0
C      1  0.5016200000000  0.4527330000000  0.5305790000000 1.0
END
