TITL C-26736-6558-69 8.02267303076123e-05 125000 -279.255743034471 0 0 60 (C1) n - 1
REM
REM in /home/nfs/bkarasulu/CARBON/AIRSS/Generating-Clusters/AIREBO/Higher-Symm/Only-C60
REM
REM
REM
REM
REM
REM ./C.cell (28575a23ae977d3b5fae324c64b13b57)
REM
REM compiler GCC version 9.2.1 20190827 (Red Hat 9.2.1-1)
REM options -cpp -mtune=generic -march=x86-64 -g -O0 -fpre-include=/usr/include/finclude/math-vector-fortran.h
REM seed 894023557 -2128426275 925427093 -1940909895 -1155453069 -1340333983 1351967499 1330198604 1949567043 -1664352428 -1173000929 111231249 -2116518507 859746018 1455124679 -942804874 610135998 872985823 -1686910563 618696409 487969306 -1227153812 1324640138 1071456863 -38175018 662267409 -911439738 -75221580 1713723597 -1245990907 -514452885 1397789 1716137042
REM
CELL 1.54180   50.00000   50.00000   50.00000   90.00000   90.00000   90.00000
LATT -1
SFAC C  
C      1  0.5530030000000  0.5107550000000  0.5042240000000 1.0
C      1  0.5119470000000  0.5512140000000  0.5025280000000 1.0
C      1  0.4590990000000  0.5431720000000  0.5039570000000 1.0
C      1  0.4476460000000  0.4877730000000  0.5034100000000 1.0
C      1  0.4909170000000  0.4561030000000  0.5003590000000 1.0
C      1  0.5463600000000  0.4541790000000  0.4961150000000 1.0
C      1  0.5497210000000  0.4813830000000  0.5070600000000 1.0
C      1  0.5184790000000  0.4436110000000  0.5036000000000 1.0
C      1  0.4600590000000  0.4588040000000  0.5055700000000 1.0
C      1  0.4396920000000  0.5183330000000  0.5064620000000 1.0
C      1  0.4863360000000  0.5436760000000  0.4922090000000 1.0
C      1  0.5406530000000  0.5395440000000  0.5058720000000 1.0
C      1  0.5830650000000  0.4801750000000  0.4852660000000 1.0
C      1  0.5569840000000  0.5623230000000  0.4865350000000 1.0
C      1  0.4723690000000  0.5720770000000  0.4797770000000 1.0
C      1  0.4130300000000  0.5191960000000  0.4852710000000 1.0
C      1  0.4451660000000  0.4371690000000  0.4838920000000 1.0
C      1  0.5273100000000  0.4191990000000  0.4816330000000 1.0
C      1  0.5810830000000  0.5129910000000  0.4851620000000 1.0
C      1  0.5559510000000  0.4340750000000  0.4704270000000 1.0
C      1  0.4770050000000  0.4292910000000  0.4847410000000 1.0
C      1  0.4199990000000  0.4865420000000  0.4836470000000 1.0
C      1  0.4407070000000  0.5639080000000  0.4841980000000 1.0
C      1  0.5262010000000  0.5738710000000  0.4815550000000 1.0
C      1  0.5102120000000  0.5842180000000  0.5105410000000 1.0
C      1  0.4322480000000  0.5590420000000  0.5174960000000 1.0
C      1  0.4196340000000  0.4724320000000  0.5151270000000 1.0
C      1  0.4887960000000  0.4192120000000  0.5147120000000 1.0
C      1  0.5769160000000  0.4385810000000  0.4964490000000 1.0
C      1  0.5806070000000  0.5259420000000  0.5170780000000 1.0
C      1  0.5205040000000  0.4115420000000  0.5147300000000 1.0
C      1  0.4325350000000  0.4415950000000  0.5157070000000 1.0
C      1  0.4107580000000  0.5327450000000  0.5170860000000 1.0
C      1  0.4854980000000  0.5947760000000  0.4972910000000 1.0
C      1  0.5666510000000  0.5568660000000  0.5193030000000 1.0
C      1  0.5787440000000  0.4663290000000  0.5160190000000 1.0
C      1  0.4545580000000  0.4569670000000  0.5390790000000 1.0
C      1  0.5198370000000  0.4391550000000  0.5372820000000 1.0
C      1  0.5558470000000  0.4783980000000  0.5389600000000 1.0
C      1  0.5406790000000  0.5438360000000  0.5396070000000 1.0
C      1  0.4841960000000  0.5560010000000  0.5475590000000 1.0
C      1  0.4354760000000  0.5219730000000  0.5400290000000 1.0
C      1  0.4587820000000  0.5471160000000  0.5377320000000 1.0
C      1  0.5106570000000  0.5597440000000  0.5354240000000 1.0
C      1  0.5556930000000  0.5127500000000  0.5380700000000 1.0
C      1  0.5386650000000  0.4573220000000  0.5501300000000 1.0
C      1  0.4867110000000  0.4476160000000  0.5330990000000 1.0
C      1  0.4417470000000  0.4887510000000  0.5368850000000 1.0
C      1  0.4845710000000  0.5533450000000  0.4541560000000 1.0
C      1  0.4412780000000  0.5156390000000  0.4666280000000 1.0
C      1  0.4616390000000  0.4607590000000  0.4657090000000 1.0
C      1  0.5188170000000  0.4462170000000  0.4627370000000 1.0
C      1  0.5589770000000  0.4858180000000  0.4660080000000 1.0
C      1  0.5411020000000  0.5404030000000  0.4659410000000 1.0
C      1  0.4910460000000  0.4491810000000  0.4611070000000 1.0
C      1  0.4474080000000  0.4847270000000  0.4635950000000 1.0
C      1  0.4549110000000  0.5401450000000  0.4643110000000 1.0
C      1  0.5129660000000  0.5518880000000  0.4591140000000 1.0
C      1  0.5542790000000  0.5163960000000  0.4644780000000 1.0
C      1  0.5442760000000  0.4632100000000  0.4573520000000 1.0
END
