TITL C-26728-8286-69 110.413287647603 125000 -326.2569769745 0 0 60 (C1) n - 1
REM
REM in /home/nfs/bkarasulu/CARBON/AIRSS/Generating-Clusters/AIREBO/Higher-Symm/Only-C60
REM
REM
REM
REM
REM
REM ./C.cell (28575a23ae977d3b5fae324c64b13b57)
REM
REM compiler GCC version 9.2.1 20190827 (Red Hat 9.2.1-1)
REM options -cpp -mtune=generic -march=x86-64 -g -O0 -fpre-include=/usr/include/finclude/math-vector-fortran.h
REM seed 2003807560 565359617 -994564892 -604131393 94539017 -2045802059 857951712 -1818794000 -293694262 -1503920769 -892700346 1840020356 -736236681 -1653339792 -612890211 -2006493977 -1250266004 -1967100584 509497632 699397908 174803196 554071513 1438310053 1686726389 -1604774758 1539084083 96384107 167360416 -713993941 1547939668 -599988927 2062463944 593763033
REM
CELL 1.54180   50.00000   50.00000   50.00000   90.00000   90.00000   90.00000
LATT -1
SFAC C  
C      1  0.5325010000000  0.4421990000000  0.4931880000000 1.0
C      1  0.4737730000000  0.4447180000000  0.4939310000000 1.0
C      1  0.4266890000000  0.5037420000000  0.4624110000000 1.0
C      1  0.5811940000000  0.5029670000000  0.4870520000000 1.0
C      1  0.5574690000000  0.5467800000000  0.4804340000000 1.0
C      1  0.4416460000000  0.5246050000000  0.4727170000000 1.0
C      1  0.5227790000000  0.4838510000000  0.5156950000000 1.0
C      1  0.4701680000000  0.4822350000000  0.5269440000000 1.0
C      1  0.4830980000000  0.5240300000000  0.4877200000000 1.0
C      1  0.5157760000000  0.5241440000000  0.4860950000000 1.0
C      1  0.4904120000000  0.5180900000000  0.5703960000000 1.0
C      1  0.5178380000000  0.5219300000000  0.5774860000000 1.0
C      1  0.4842830000000  0.4515070000000  0.5208540000000 1.0
C      1  0.5160460000000  0.4529560000000  0.5177900000000 1.0
C      1  0.5460070000000  0.4153210000000  0.4969060000000 1.0
C      1  0.4714090000000  0.4133060000000  0.4863300000000 1.0
C      1  0.5614560000000  0.5011230000000  0.5467720000000 1.0
C      1  0.4455070000000  0.5105360000000  0.5467620000000 1.0
C      1  0.5168310000000  0.5430180000000  0.4508830000000 1.0
C      1  0.4890930000000  0.5486130000000  0.4495450000000 1.0
C      1  0.4776410000000  0.4953620000000  0.4995210000000 1.0
C      1  0.5082530000000  0.4930960000000  0.4903560000000 1.0
C      1  0.5150910000000  0.5608940000000  0.5521420000000 1.0
C      1  0.4892400000000  0.5695000000000  0.5486010000000 1.0
C      1  0.4802490000000  0.4914070000000  0.4238370000000 1.0
C      1  0.5052470000000  0.4881570000000  0.4354460000000 1.0
C      1  0.5423360000000  0.4632830000000  0.4609290000000 1.0
C      1  0.4595470000000  0.4483690000000  0.4464940000000 1.0
C      1  0.4471950000000  0.4766610000000  0.4607560000000 1.0
C      1  0.5540340000000  0.4939550000000  0.4688120000000 1.0
C      1  0.5524520000000  0.4699240000000  0.4928150000000 1.0
C      1  0.4331690000000  0.4773440000000  0.4917400000000 1.0
C      1  0.5157800000000  0.4720240000000  0.5612040000000 1.0
C      1  0.4872950000000  0.4639900000000  0.5682160000000 1.0
C      1  0.5355360000000  0.5166830000000  0.4615280000000 1.0
C      1  0.4694330000000  0.5261310000000  0.4575260000000 1.0
C      1  0.4813210000000  0.5710410000000  0.4657310000000 1.0
C      1  0.5323360000000  0.5577910000000  0.4723020000000 1.0
C      1  0.4660770000000  0.5283620000000  0.5551820000000 1.0
C      1  0.5445120000000  0.5180380000000  0.5602270000000 1.0
C      1  0.4453640000000  0.5260480000000  0.5006740000000 1.0
C      1  0.5543380000000  0.5200110000000  0.4990690000000 1.0
C      1  0.4691950000000  0.5462780000000  0.5093890000000 1.0
C      1  0.5305750000000  0.5386610000000  0.5114100000000 1.0
C      1  0.4882020000000  0.5659620000000  0.4927420000000 1.0
C      1  0.5153760000000  0.5628350000000  0.4960900000000 1.0
C      1  0.4757840000000  0.4733120000000  0.4780590000000 1.0
C      1  0.5040270000000  0.4745540000000  0.4621960000000 1.0
C      1  0.4615240000000  0.5003970000000  0.4410670000000 1.0
C      1  0.5237920000000  0.5077190000000  0.4334380000000 1.0
C      1  0.5133560000000  0.5008180000000  0.5426500000000 1.0
C      1  0.4824720000000  0.4919940000000  0.5530870000000 1.0
C      1  0.5292590000000  0.4529260000000  0.5465520000000 1.0
C      1  0.4771410000000  0.4440660000000  0.5515670000000 1.0
C      1  0.5153800000000  0.4448350000000  0.4645670000000 1.0
C      1  0.4838000000000  0.4374810000000  0.4623790000000 1.0
C      1  0.5540500000000  0.4925700000000  0.5167860000000 1.0
C      1  0.4417710000000  0.4977180000000  0.5164190000000 1.0
C      1  0.5233100000000  0.5332130000000  0.5396540000000 1.0
C      1  0.4705630000000  0.5509200000000  0.5389270000000 1.0
END
