TITL C-26733-8285-143 0.000227894450524076 125000 -324.324792466955 0 0 60 (C1) n - 1
REM
REM in /home/nfs/bkarasulu/CARBON/AIRSS/Generating-Clusters/AIREBO/Higher-Symm/Only-C60
REM
REM
REM
REM
REM
REM ./C.cell (28575a23ae977d3b5fae324c64b13b57)
REM
REM compiler GCC version 9.2.1 20190827 (Red Hat 9.2.1-1)
REM options -cpp -mtune=generic -march=x86-64 -g -O0 -fpre-include=/usr/include/finclude/math-vector-fortran.h
REM seed 2097060402 -1367684005 -1930971345 1572416079 904991652 1624741990 1228406269 306424621 -131375950 -1098273794 -1267846827 902217559 756430443 1178147667 -596562592 -157309994 -513855092 1601575276 1402559073 1560394887 -1164351450 -1922699706 -559650546 1195078724 1139427737 1376333528 1759916162 -1132984778 -1905317561 1382739002 1334596216 -1990788897 -1249807873
REM
CELL 1.54180   50.00000   50.00000   50.00000   90.00000   90.00000   90.00000
LATT -1
SFAC C  
C      1  0.5242790000000  0.5313370000000  0.5199460000000 1.0
C      1  0.4894800000000  0.4810380000000  0.5333590000000 1.0
C      1  0.4740550000000  0.5096050000000  0.5237760000000 1.0
C      1  0.5080920000000  0.4888080000000  0.4853130000000 1.0
C      1  0.4979410000000  0.5195190000000  0.4789340000000 1.0
C      1  0.4827200000000  0.4779930000000  0.4654080000000 1.0
C      1  0.4670940000000  0.4281020000000  0.5185030000000 1.0
C      1  0.4572190000000  0.5461320000000  0.5329170000000 1.0
C      1  0.5760890000000  0.5176240000000  0.5159590000000 1.0
C      1  0.4739580000000  0.5748230000000  0.4911780000000 1.0
C      1  0.4502570000000  0.4303360000000  0.4685840000000 1.0
C      1  0.5690680000000  0.4846340000000  0.4753780000000 1.0
C      1  0.4229760000000  0.5174850000000  0.4894190000000 1.0
C      1  0.5588220000000  0.5661130000000  0.4945420000000 1.0
C      1  0.5159120000000  0.4284420000000  0.5054200000000 1.0
C      1  0.4252050000000  0.4785200000000  0.4921780000000 1.0
C      1  0.5437870000000  0.4554260000000  0.5005860000000 1.0
C      1  0.5218730000000  0.5697960000000  0.5014720000000 1.0
C      1  0.4950460000000  0.5289450000000  0.5083690000000 1.0
C      1  0.5377800000000  0.4844480000000  0.4889910000000 1.0
C      1  0.4585220000000  0.4763460000000  0.4872310000000 1.0
C      1  0.4934060000000  0.4693280000000  0.5047030000000 1.0
C      1  0.5505650000000  0.5362110000000  0.5065650000000 1.0
C      1  0.4539950000000  0.5058180000000  0.4970740000000 1.0
C      1  0.4885630000000  0.4394600000000  0.4982250000000 1.0
C      1  0.4491050000000  0.5376340000000  0.5065220000000 1.0
C      1  0.5636720000000  0.5177240000000  0.4834900000000 1.0
C      1  0.4951580000000  0.5625040000000  0.5096120000000 1.0
C      1  0.4493410000000  0.4470660000000  0.4965020000000 1.0
C      1  0.5650880000000  0.4874260000000  0.5090290000000 1.0
C      1  0.5243400000000  0.5297610000000  0.4650920000000 1.0
C      1  0.5268160000000  0.4443010000000  0.4560040000000 1.0
C      1  0.4596370000000  0.5003420000000  0.4556060000000 1.0
C      1  0.5187140000000  0.4738830000000  0.5414250000000 1.0
C      1  0.5400610000000  0.5555090000000  0.5474930000000 1.0
C      1  0.4421820000000  0.5030350000000  0.5350270000000 1.0
C      1  0.4571570000000  0.5516230000000  0.4796900000000 1.0
C      1  0.5571740000000  0.5075220000000  0.4535090000000 1.0
C      1  0.4790410000000  0.4351070000000  0.4691080000000 1.0
C      1  0.4469620000000  0.4506610000000  0.5299040000000 1.0
C      1  0.5674060000000  0.4952370000000  0.5401490000000 1.0
C      1  0.4834310000000  0.5538430000000  0.5373690000000 1.0
C      1  0.4417730000000  0.4558630000000  0.5626160000000 1.0
C      1  0.5019690000000  0.5466300000000  0.5558620000000 1.0
C      1  0.5639240000000  0.4876780000000  0.5712490000000 1.0
C      1  0.4571360000000  0.5519910000000  0.4459270000000 1.0
C      1  0.4961950000000  0.4441650000000  0.4494790000000 1.0
C      1  0.5496400000000  0.5069760000000  0.4221900000000 1.0
C      1  0.5264030000000  0.5245450000000  0.5510060000000 1.0
C      1  0.5364110000000  0.4963800000000  0.5530880000000 1.0
C      1  0.4594980000000  0.4780540000000  0.5435790000000 1.0
C      1  0.5120630000000  0.4742350000000  0.4486050000000 1.0
C      1  0.5249210000000  0.5020670000000  0.4453010000000 1.0
C      1  0.4728680000000  0.5267530000000  0.4626390000000 1.0
C      1  0.5433440000000  0.5711250000000  0.5244030000000 1.0
C      1  0.5288730000000  0.4511210000000  0.5272690000000 1.0
C      1  0.4205640000000  0.4979460000000  0.5171460000000 1.0
C      1  0.5358260000000  0.4342690000000  0.4805250000000 1.0
C      1  0.5336460000000  0.5539450000000  0.4751180000000 1.0
C      1  0.4329570000000  0.4967890000000  0.4644360000000 1.0
END
