TITL C-26740-8352-80 1.62415759088972 125000 -297.550643244337 0 0 60 (C1) n - 1
REM
REM in /home/nfs/bkarasulu/CARBON/AIRSS/Generating-Clusters/AIREBO/Higher-Symm/Only-C60
REM
REM
REM
REM
REM
REM ./C.cell (28575a23ae977d3b5fae324c64b13b57)
REM
REM compiler GCC version 9.2.1 20190827 (Red Hat 9.2.1-1)
REM options -cpp -mtune=generic -march=x86-64 -g -O0 -fpre-include=/usr/include/finclude/math-vector-fortran.h
REM seed -1119780259 -1809805173 -2078491681 1344151457 1199527972 1281873594 -1719124611 133932084 -108312521 -737761564 -798437766 310971663 701754041 -1073548671 456804808 1910966843 -1853678989 -1473714848 1946430577 -738408989 -1817231069 -1637304254 -1154218938 592892739 -1379690435 -264544568 -2139848271 -339904885 810243881 -146911391 -1778209494 -1315945672 -2146363595
REM
CELL 1.54180   50.00000   50.00000   50.00000   90.00000   90.00000   90.00000
LATT -1
SFAC C  
C      1  0.5653040000000  0.5303410000000  0.5201740000000 1.0
C      1  0.4330210000000  0.5298180000000  0.4796380000000 1.0
C      1  0.5618110000000  0.4772710000000  0.5166850000000 1.0
C      1  0.4381050000000  0.4763490000000  0.4838880000000 1.0
C      1  0.5493590000000  0.4513600000000  0.4993250000000 1.0
C      1  0.4491260000000  0.4498490000000  0.5005310000000 1.0
C      1  0.5474980000000  0.5507070000000  0.5056120000000 1.0
C      1  0.4537550000000  0.5471610000000  0.4929610000000 1.0
C      1  0.4871110000000  0.4803470000000  0.5549180000000 1.0
C      1  0.5127130000000  0.4799260000000  0.4463410000000 1.0
C      1  0.4902970000000  0.5115040000000  0.5416720000000 1.0
C      1  0.5089170000000  0.5111580000000  0.4592460000000 1.0
C      1  0.4315500000000  0.5208240000000  0.5124070000000 1.0
C      1  0.5663710000000  0.5209310000000  0.4875120000000 1.0
C      1  0.4359860000000  0.4897180000000  0.5152450000000 1.0
C      1  0.5654520000000  0.4896330000000  0.4850260000000 1.0
C      1  0.5238380000000  0.5308380000000  0.5146710000000 1.0
C      1  0.4790740000000  0.5309420000000  0.4854080000000 1.0
C      1  0.5266120000000  0.4558530000000  0.5245020000000 1.0
C      1  0.4745720000000  0.4573790000000  0.4791320000000 1.0
C      1  0.4939710000000  0.4288830000000  0.4394520000000 1.0
C      1  0.4991790000000  0.4280670000000  0.5584900000000 1.0
C      1  0.4838820000000  0.5616710000000  0.4451680000000 1.0
C      1  0.5154480000000  0.5604090000000  0.5563330000000 1.0
C      1  0.5179960000000  0.4888810000000  0.4140830000000 1.0
C      1  0.4816430000000  0.4895140000000  0.5870430000000 1.0
C      1  0.5149530000000  0.5140540000000  0.4256510000000 1.0
C      1  0.4836480000000  0.5146660000000  0.5751100000000 1.0
C      1  0.4496790000000  0.4807510000000  0.4586570000000 1.0
C      1  0.5501290000000  0.4827220000000  0.5418950000000 1.0
C      1  0.4434790000000  0.5208180000000  0.4556400000000 1.0
C      1  0.5550490000000  0.5226070000000  0.5441830000000 1.0
C      1  0.4746170000000  0.5138420000000  0.4582560000000 1.0
C      1  0.5246210000000  0.5134780000000  0.5425160000000 1.0
C      1  0.4818330000000  0.4818990000000  0.4567110000000 1.0
C      1  0.5172400000000  0.4820370000000  0.5440750000000 1.0
C      1  0.5408700000000  0.5212850000000  0.4649830000000 1.0
C      1  0.4582920000000  0.5195710000000  0.5334620000000 1.0
C      1  0.5388240000000  0.4858920000000  0.4669930000000 1.0
C      1  0.4614090000000  0.4847010000000  0.5350280000000 1.0
C      1  0.4189780000000  0.4607200000000  0.5111320000000 1.0
C      1  0.5807780000000  0.4598150000000  0.4904790000000 1.0
C      1  0.4419010000000  0.5530120000000  0.5213480000000 1.0
C      1  0.5595130000000  0.5533420000000  0.4768180000000 1.0
C      1  0.5259240000000  0.5510860000000  0.4720010000000 1.0
C      1  0.4751630000000  0.5483660000000  0.5266570000000 1.0
C      1  0.5255000000000  0.4557680000000  0.4754990000000 1.0
C      1  0.4761080000000  0.4583570000000  0.5193150000000 1.0
C      1  0.5152130000000  0.5088910000000  0.4925870000000 1.0
C      1  0.4871480000000  0.5102840000000  0.5078360000000 1.0
C      1  0.5189110000000  0.4772250000000  0.5010380000000 1.0
C      1  0.4880080000000  0.4803850000000  0.4978650000000 1.0
C      1  0.5117430000000  0.4309720000000  0.4942790000000 1.0
C      1  0.4887570000000  0.4302860000000  0.5048690000000 1.0
C      1  0.5095060000000  0.5734330000000  0.4917680000000 1.0
C      1  0.4907000000000  0.5729380000000  0.5088740000000 1.0
C      1  0.5057130000000  0.5478360000000  0.5355580000000 1.0
C      1  0.4952750000000  0.5482490000000  0.4645370000000 1.0
C      1  0.5004220000000  0.4460410000000  0.5396550000000 1.0
C      1  0.4975020000000  0.4453410000000  0.4592610000000 1.0
END
