TITL C-26728-8286-176 0.00124005389966451 125000 -346.006460766706 0 0 60 (C1) n - 1
REM
REM in /home/nfs/bkarasulu/CARBON/AIRSS/Generating-Clusters/AIREBO/Higher-Symm/Only-C60
REM
REM
REM
REM
REM
REM ./C.cell (28575a23ae977d3b5fae324c64b13b57)
REM
REM compiler GCC version 9.2.1 20190827 (Red Hat 9.2.1-1)
REM options -cpp -mtune=generic -march=x86-64 -g -O0 -fpre-include=/usr/include/finclude/math-vector-fortran.h
REM seed -1812821972 604375771 -723375478 -615360689 -1658884272 -1038964608 210606467 510788751 -1246670372 802759043 -1792543922 1842751387 1940991846 1719481115 -221955131 -928738362 -1215092526 -1340790886 797838737 -1442005224 -668755638 920069868 -125881211 1524005131 -457821383 968489808 2023385673 -1034078169 927648407 1709136087 -1262678956 -1837533197 961588028
REM
CELL 1.54180   50.00000   50.00000   50.00000   90.00000   90.00000   90.00000
LATT -1
SFAC C  
C      1  0.5158310000000  0.5115980000000  0.4760170000000 1.0
C      1  0.5098030000000  0.5160340000000  0.5092180000000 1.0
C      1  0.5126460000000  0.4874240000000  0.5255170000000 1.0
C      1  0.5155130000000  0.4647660000000  0.4995400000000 1.0
C      1  0.4863480000000  0.5009530000000  0.4806960000000 1.0
C      1  0.4785590000000  0.5229880000000  0.5044780000000 1.0
C      1  0.4804290000000  0.4851390000000  0.5298370000000 1.0
C      1  0.4858310000000  0.4766310000000  0.4984040000000 1.0
C      1  0.4805200000000  0.5437960000000  0.4233570000000 1.0
C      1  0.4839130000000  0.5686370000000  0.5283430000000 1.0
C      1  0.4852100000000  0.4674820000000  0.5787130000000 1.0
C      1  0.4778070000000  0.4272780000000  0.4580170000000 1.0
C      1  0.5058820000000  0.5336120000000  0.4231630000000 1.0
C      1  0.5085170000000  0.5669150000000  0.5235560000000 1.0
C      1  0.5096370000000  0.4731210000000  0.5767940000000 1.0
C      1  0.5034320000000  0.4244350000000  0.4674450000000 1.0
C      1  0.5366460000000  0.4921600000000  0.4611300000000 1.0
C      1  0.5501330000000  0.5417970000000  0.4836240000000 1.0
C      1  0.5527420000000  0.5155870000000  0.5509770000000 1.0
C      1  0.5449570000000  0.4659050000000  0.5165840000000 1.0
C      1  0.4709470000000  0.4972660000000  0.4553870000000 1.0
C      1  0.4561280000000  0.5426950000000  0.4915960000000 1.0
C      1  0.4585510000000  0.5045130000000  0.5421920000000 1.0
C      1  0.4583150000000  0.4615310000000  0.5063200000000 1.0
C      1  0.5236150000000  0.4675900000000  0.4502360000000 1.0
C      1  0.5257130000000  0.5496660000000  0.4694100000000 1.0
C      1  0.5265330000000  0.5286760000000  0.5523740000000 1.0
C      1  0.5232600000000  0.4464460000000  0.5340980000000 1.0
C      1  0.4754540000000  0.4725410000000  0.4430920000000 1.0
C      1  0.4722260000000  0.5560720000000  0.4692570000000 1.0
C      1  0.4758140000000  0.5271170000000  0.5562800000000 1.0
C      1  0.4730730000000  0.4460300000000  0.5307080000000 1.0
C      1  0.4519660000000  0.5178250000000  0.4531840000000 1.0
C      1  0.4360220000000  0.5477570000000  0.5185490000000 1.0
C      1  0.4366270000000  0.4801120000000  0.5522390000000 1.0
C      1  0.4451690000000  0.4586920000000  0.4766350000000 1.0
C      1  0.5542860000000  0.5142190000000  0.4422000000000 1.0
C      1  0.5510350000000  0.5422570000000  0.5113690000000 1.0
C      1  0.5536560000000  0.4857570000000  0.5514250000000 1.0
C      1  0.5516600000000  0.4559310000000  0.4855230000000 1.0
C      1  0.5264920000000  0.4740600000000  0.5510770000000 1.0
C      1  0.5228790000000  0.4474460000000  0.4732990000000 1.0
C      1  0.5239440000000  0.5271910000000  0.4468890000000 1.0
C      1  0.5237280000000  0.5401630000000  0.5235700000000 1.0
C      1  0.4666930000000  0.4673240000000  0.5544210000000 1.0
C      1  0.4623060000000  0.4509270000000  0.4560640000000 1.0
C      1  0.4634010000000  0.5427470000000  0.4457440000000 1.0
C      1  0.4676400000000  0.5422900000000  0.5296280000000 1.0
C      1  0.5587110000000  0.4892030000000  0.4872450000000 1.0
C      1  0.5635550000000  0.5191730000000  0.4719370000000 1.0
C      1  0.5677470000000  0.5253030000000  0.5263050000000 1.0
C      1  0.5642180000000  0.4932120000000  0.5198890000000 1.0
C      1  0.4311810000000  0.4841740000000  0.4877620000000 1.0
C      1  0.4373430000000  0.5157620000000  0.4814030000000 1.0
C      1  0.4404210000000  0.5146790000000  0.5152610000000 1.0
C      1  0.4352550000000  0.4813870000000  0.5198460000000 1.0
C      1  0.5001260000000  0.5626250000000  0.4716470000000 1.0
C      1  0.5012980000000  0.5288390000000  0.5654920000000 1.0
C      1  0.4984810000000  0.4364020000000  0.5310360000000 1.0
C      1  0.5019420000000  0.4681400000000  0.4340030000000 1.0
END
