TITL C-26734-8308-102 -0.000449798337578647 125000 -323.015300996848 0 0 60 (C1) n - 1
REM
REM in /home/nfs/bkarasulu/CARBON/AIRSS/Generating-Clusters/AIREBO/Higher-Symm/Only-C60
REM
REM
REM
REM
REM
REM ./C.cell (28575a23ae977d3b5fae324c64b13b57)
REM
REM compiler GCC version 9.2.1 20190827 (Red Hat 9.2.1-1)
REM options -cpp -mtune=generic -march=x86-64 -g -O0 -fpre-include=/usr/include/finclude/math-vector-fortran.h
REM seed 1228446985 284114806 -1289533845 -701858293 616714208 1116202373 -991950234 -1616859809 -990612782 1830815557 -1177908475 391232907 455914831 1357664481 1264320563 1569907971 282570260 -1137362654 512184018 63987462 -2101207634 -266545732 -1626696607 2033411288 -978931638 -1989065725 1248189916 -1156191605 852180463 -1574043887 1033772446 1986242411 355402930
REM
CELL 1.54180   50.00000   50.00000   50.00000   90.00000   90.00000   90.00000
LATT -1
SFAC C  
C      1  0.5415000000000  0.5239180000000  0.4884070000000 1.0
C      1  0.4546670000000  0.4751510000000  0.4806430000000 1.0
C      1  0.5527680000000  0.4628870000000  0.5198310000000 1.0
C      1  0.4337230000000  0.5574070000000  0.5260600000000 1.0
C      1  0.5204030000000  0.5437910000000  0.4883690000000 1.0
C      1  0.4740380000000  0.4534360000000  0.4868960000000 1.0
C      1  0.4614510000000  0.5571490000000  0.5276810000000 1.0
C      1  0.5266370000000  0.4501490000000  0.5197750000000 1.0
C      1  0.5551960000000  0.5382480000000  0.5230390000000 1.0
C      1  0.4493230000000  0.4688590000000  0.5233500000000 1.0
C      1  0.5571250000000  0.4620460000000  0.4465540000000 1.0
C      1  0.4453600000000  0.5188910000000  0.4773590000000 1.0
C      1  0.5352270000000  0.5558070000000  0.5234550000000 1.0
C      1  0.4662920000000  0.4476290000000  0.5255230000000 1.0
C      1  0.4550510000000  0.5462980000000  0.4740540000000 1.0
C      1  0.5404420000000  0.4404310000000  0.4501910000000 1.0
C      1  0.5025830000000  0.4751010000000  0.5206650000000 1.0
C      1  0.4793010000000  0.5334140000000  0.5203910000000 1.0
C      1  0.4931280000000  0.5269960000000  0.4919730000000 1.0
C      1  0.5013810000000  0.4736460000000  0.4867050000000 1.0
C      1  0.4798000000000  0.5003800000000  0.5184170000000 1.0
C      1  0.5331220000000  0.4890380000000  0.5152050000000 1.0
C      1  0.5280920000000  0.4947540000000  0.4847720000000 1.0
C      1  0.4795150000000  0.4983480000000  0.4786680000000 1.0
C      1  0.4977320000000  0.4244620000000  0.4742850000000 1.0
C      1  0.4980270000000  0.5731640000000  0.4735910000000 1.0
C      1  0.5032200000000  0.5774480000000  0.5322060000000 1.0
C      1  0.4948590000000  0.4212240000000  0.5329760000000 1.0
C      1  0.4318120000000  0.4877420000000  0.4421020000000 1.0
C      1  0.5710320000000  0.5034360000000  0.4716060000000 1.0
C      1  0.5786060000000  0.4983650000000  0.5312440000000 1.0
C      1  0.4316070000000  0.5111100000000  0.5304650000000 1.0
C      1  0.5045460000000  0.4735570000000  0.5545810000000 1.0
C      1  0.5006680000000  0.5263580000000  0.5450130000000 1.0
C      1  0.5009240000000  0.5251480000000  0.4589260000000 1.0
C      1  0.5013700000000  0.4723710000000  0.4528700000000 1.0
C      1  0.4821110000000  0.4985790000000  0.5519390000000 1.0
C      1  0.5217540000000  0.5010820000000  0.5441660000000 1.0
C      1  0.5220010000000  0.4993840000000  0.4518270000000 1.0
C      1  0.4827500000000  0.5000860000000  0.4448650000000 1.0
C      1  0.4188940000000  0.5351550000000  0.5317790000000 1.0
C      1  0.5772780000000  0.4705870000000  0.5297660000000 1.0
C      1  0.4318910000000  0.4674160000000  0.4610940000000 1.0
C      1  0.5682010000000  0.5343420000000  0.4694550000000 1.0
C      1  0.5224410000000  0.4241410000000  0.5285460000000 1.0
C      1  0.4757550000000  0.5800650000000  0.5346330000000 1.0
C      1  0.4672630000000  0.4261660000000  0.4670260000000 1.0
C      1  0.5275730000000  0.5682800000000  0.4651610000000 1.0
C      1  0.4510410000000  0.5063980000000  0.4513240000000 1.0
C      1  0.5540710000000  0.4885740000000  0.4551830000000 1.0
C      1  0.4503840000000  0.4913130000000  0.5436960000000 1.0
C      1  0.5532790000000  0.5131150000000  0.5396960000000 1.0
C      1  0.5136700000000  0.4420900000000  0.4585240000000 1.0
C      1  0.4813600000000  0.5525410000000  0.4637380000000 1.0
C      1  0.4859120000000  0.4464320000000  0.5490700000000 1.0
C      1  0.5153690000000  0.5531320000000  0.5463340000000 1.0
C      1  0.5704810000000  0.5147840000000  0.5036660000000 1.0
C      1  0.4489440000000  0.4979530000000  0.5043380000000 1.0
C      1  0.5160150000000  0.5744400000000  0.5024260000000 1.0
C      1  0.4810320000000  0.4257890000000  0.5038980000000 1.0
END
