TITL C-26734-8308-153 0.145503207878027 125000 -302.121561974423 0 0 60 (C1) n - 1
REM
REM in /home/nfs/bkarasulu/CARBON/AIRSS/Generating-Clusters/AIREBO/Higher-Symm/Only-C60
REM
REM
REM
REM
REM
REM ./C.cell (28575a23ae977d3b5fae324c64b13b57)
REM
REM compiler GCC version 9.2.1 20190827 (Red Hat 9.2.1-1)
REM options -cpp -mtune=generic -march=x86-64 -g -O0 -fpre-include=/usr/include/finclude/math-vector-fortran.h
REM seed 1406706744 -1813905911 200409617 -283975089 -1373641462 -649181183 -1017068831 260005202 -1227535352 -1642264962 2142620662 -2048920797 -1863353771 896682428 -1668569773 412631486 1912883957 -1391441370 853675397 1054001490 894519175 1002020146 362819828 -631192102 1147912544 2006856057 1835101019 1793941250 1226955316 -1150704157 -993929463 1557151867 -504445012
REM
CELL 1.54180   50.00000   50.00000   50.00000   90.00000   90.00000   90.00000
LATT -1
SFAC C  
C      1  0.5814670000000  0.4757390000000  0.4951010000000 1.0
C      1  0.4321660000000  0.5368980000000  0.5008370000000 1.0
C      1  0.4433440000000  0.4769770000000  0.4547880000000 1.0
C      1  0.4927950000000  0.4843310000000  0.5648160000000 1.0
C      1  0.4881970000000  0.5372560000000  0.5618690000000 1.0
C      1  0.5656640000000  0.5162060000000  0.5472110000000 1.0
C      1  0.5359120000000  0.5475710000000  0.5411710000000 1.0
C      1  0.4681510000000  0.4625620000000  0.4151690000000 1.0
C      1  0.4829580000000  0.4687780000000  0.5087310000000 1.0
C      1  0.4850250000000  0.4614910000000  0.5418830000000 1.0
C      1  0.4738480000000  0.4035330000000  0.5564490000000 1.0
C      1  0.4768990000000  0.4943220000000  0.4091530000000 1.0
C      1  0.4650650000000  0.5428720000000  0.4993050000000 1.0
C      1  0.5441090000000  0.5151900000000  0.4267980000000 1.0
C      1  0.5470430000000  0.4945780000000  0.4997380000000 1.0
C      1  0.5169520000000  0.5350100000000  0.4679480000000 1.0
C      1  0.5332090000000  0.5163790000000  0.5555370000000 1.0
C      1  0.4474080000000  0.4482150000000  0.5429570000000 1.0
C      1  0.4555170000000  0.5355400000000  0.4673510000000 1.0
C      1  0.4979740000000  0.5348990000000  0.4961720000000 1.0
C      1  0.4615320000000  0.5764680000000  0.4954230000000 1.0
C      1  0.5212990000000  0.4881510000000  0.4620160000000 1.0
C      1  0.5022950000000  0.4379620000000  0.5244350000000 1.0
C      1  0.5410220000000  0.5290030000000  0.5184360000000 1.0
C      1  0.5241610000000  0.4573360000000  0.5352690000000 1.0
C      1  0.5600020000000  0.4868860000000  0.4710570000000 1.0
C      1  0.5060550000000  0.5147790000000  0.5690270000000 1.0
C      1  0.4613880000000  0.4554620000000  0.4454030000000 1.0
C      1  0.5677430000000  0.5141050000000  0.5183510000000 1.0
C      1  0.5167160000000  0.5087750000000  0.5072790000000 1.0
C      1  0.5292310000000  0.5671010000000  0.5181780000000 1.0
C      1  0.5643720000000  0.4744700000000  0.5209890000000 1.0
C      1  0.4997580000000  0.4971520000000  0.4834420000000 1.0
C      1  0.4975750000000  0.5319530000000  0.4414060000000 1.0
C      1  0.4520880000000  0.5649210000000  0.4687180000000 1.0
C      1  0.5424270000000  0.4369100000000  0.4779140000000 1.0
C      1  0.4924370000000  0.4772990000000  0.4330650000000 1.0
C      1  0.5220460000000  0.4299410000000  0.4907640000000 1.0
C      1  0.4673200000000  0.4904650000000  0.4898310000000 1.0
C      1  0.5126470000000  0.4583810000000  0.4478900000000 1.0
C      1  0.4646290000000  0.4920760000000  0.5233240000000 1.0
C      1  0.5072410000000  0.4934960000000  0.5354280000000 1.0
C      1  0.4665060000000  0.5921740000000  0.5175710000000 1.0
C      1  0.4621840000000  0.5388610000000  0.5322530000000 1.0
C      1  0.4699080000000  0.5599940000000  0.5533140000000 1.0
C      1  0.5214280000000  0.5569540000000  0.4940020000000 1.0
C      1  0.4654690000000  0.5862650000000  0.5446310000000 1.0
C      1  0.4737180000000  0.4303310000000  0.5460950000000 1.0
C      1  0.4557350000000  0.5086460000000  0.4541590000000 1.0
C      1  0.4815340000000  0.4870810000000  0.4592010000000 1.0
C      1  0.5668490000000  0.5358430000000  0.4649580000000 1.0
C      1  0.5427830000000  0.5143720000000  0.4593140000000 1.0
C      1  0.4839790000000  0.5155240000000  0.5338660000000 1.0
C      1  0.5393890000000  0.4876110000000  0.5383140000000 1.0
C      1  0.5430330000000  0.4621270000000  0.4594410000000 1.0
C      1  0.4444260000000  0.4725340000000  0.5373290000000 1.0
C      1  0.4849060000000  0.4473140000000  0.4612730000000 1.0
C      1  0.4926630000000  0.4440970000000  0.4923480000000 1.0
C      1  0.4781690000000  0.5153260000000  0.4312640000000 1.0
C      1  0.4796330000000  0.4735030000000  0.5900340000000 1.0
END
