TITL C-26732-6566-155 8.12123691281843e-06 125000 -324.679151708442 0 0 60 (C1) n - 1
REM
REM in /home/nfs/bkarasulu/CARBON/AIRSS/Generating-Clusters/AIREBO/Higher-Symm/Only-C60
REM
REM
REM
REM
REM
REM ./C.cell (28575a23ae977d3b5fae324c64b13b57)
REM
REM compiler GCC version 9.2.1 20190827 (Red Hat 9.2.1-1)
REM options -cpp -mtune=generic -march=x86-64 -g -O0 -fpre-include=/usr/include/finclude/math-vector-fortran.h
REM seed 2057431986 1044247328 -80315696 681393580 595982780 -1915935100 -1361119009 906853019 1535363414 -1164267038 1666812035 -1938459153 -1907244451 -292613571 -2106984565 391410986 -532301155 891724999 -333999686 -408199162 -989658586 1614950242 670159419 -738923789 -481679196 -1274938594 -1452914293 -1316350835 -102396345 325923509 -518781413 1937798623 358164403
REM
CELL 1.54180   50.00000   50.00000   50.00000   90.00000   90.00000   90.00000
LATT -1
SFAC C  
C      1  0.5775040000000  0.4750580000000  0.4838370000000 1.0
C      1  0.5146670000000  0.4788300000000  0.4320010000000 1.0
C      1  0.4499860000000  0.4883320000000  0.4491290000000 1.0
C      1  0.4222650000000  0.4742530000000  0.5144970000000 1.0
C      1  0.4784050000000  0.4768570000000  0.5691740000000 1.0
C      1  0.5517990000000  0.4884280000000  0.5510250000000 1.0
C      1  0.5912840000000  0.5191580000000  0.5119500000000 1.0
C      1  0.5147620000000  0.5251250000000  0.5796990000000 1.0
C      1  0.4446220000000  0.5096100000000  0.5563210000000 1.0
C      1  0.4156550000000  0.5244170000000  0.4823680000000 1.0
C      1  0.4809600000000  0.5176370000000  0.4261480000000 1.0
C      1  0.5557990000000  0.5112750000000  0.4426140000000 1.0
C      1  0.4240730000000  0.5297070000000  0.5056960000000 1.0
C      1  0.4651400000000  0.5171510000000  0.5709640000000 1.0
C      1  0.5371370000000  0.5326660000000  0.5704230000000 1.0
C      1  0.5821270000000  0.5258010000000  0.4890560000000 1.0
C      1  0.5337050000000  0.5196080000000  0.4310150000000 1.0
C      1  0.4581030000000  0.5244770000000  0.4340830000000 1.0
C      1  0.4176860000000  0.4748000000000  0.4899020000000 1.0
C      1  0.4548060000000  0.4568610000000  0.4440200000000 1.0
C      1  0.5399520000000  0.4712060000000  0.4379390000000 1.0
C      1  0.5801740000000  0.4809590000000  0.5079610000000 1.0
C      1  0.5413050000000  0.4588580000000  0.5579330000000 1.0
C      1  0.4559890000000  0.4705710000000  0.5593370000000 1.0
C      1  0.5532970000000  0.4861570000000  0.4654120000000 1.0
C      1  0.4806640000000  0.4773670000000  0.4445020000000 1.0
C      1  0.4246570000000  0.4966250000000  0.4693760000000 1.0
C      1  0.4463100000000  0.4868490000000  0.5310970000000 1.0
C      1  0.5190590000000  0.4817840000000  0.5542600000000 1.0
C      1  0.5713560000000  0.5030210000000  0.5301080000000 1.0
C      1  0.5460210000000  0.5205040000000  0.5434190000000 1.0
C      1  0.4957250000000  0.5052500000000  0.5620750000000 1.0
C      1  0.4463940000000  0.5192250000000  0.5206780000000 1.0
C      1  0.4507340000000  0.5179800000000  0.4643250000000 1.0
C      1  0.5054330000000  0.5088770000000  0.4449900000000 1.0
C      1  0.5561820000000  0.5171380000000  0.4791420000000 1.0
C      1  0.4778920000000  0.5581120000000  0.4863580000000 1.0
C      1  0.4775620000000  0.5637980000000  0.5157660000000 1.0
C      1  0.5022580000000  0.5731990000000  0.5258260000000 1.0
C      1  0.5242680000000  0.5593850000000  0.5144520000000 1.0
C      1  0.5263560000000  0.5615740000000  0.4844430000000 1.0
C      1  0.5011400000000  0.5668780000000  0.4702890000000 1.0
C      1  0.4751110000000  0.4414710000000  0.5115400000000 1.0
C      1  0.4783250000000  0.4390070000000  0.4804670000000 1.0
C      1  0.5041470000000  0.4290930000000  0.4726330000000 1.0
C      1  0.5256160000000  0.4419090000000  0.4865120000000 1.0
C      1  0.5225090000000  0.4399120000000  0.5177320000000 1.0
C      1  0.4969080000000  0.4294940000000  0.5256740000000 1.0
C      1  0.5011420000000  0.4852280000000  0.4690600000000 1.0
C      1  0.4775470000000  0.4695610000000  0.4838150000000 1.0
C      1  0.4726830000000  0.4745790000000  0.5160440000000 1.0
C      1  0.4987260000000  0.4850980000000  0.5277050000000 1.0
C      1  0.5226160000000  0.4703740000000  0.5137260000000 1.0
C      1  0.5271400000000  0.4755020000000  0.4818430000000 1.0
C      1  0.4975350000000  0.5170020000000  0.5297970000000 1.0
C      1  0.4739740000000  0.5308160000000  0.5151500000000 1.0
C      1  0.4724520000000  0.5267480000000  0.4821090000000 1.0
C      1  0.5035640000000  0.5315030000000  0.4703140000000 1.0
C      1  0.5313570000000  0.5289650000000  0.4897400000000 1.0
C      1  0.5254330000000  0.5283690000000  0.5225300000000 1.0
END
