TITL C-26740-8352-140 -0.00424955285718267 125000 -330.055306514515 0 0 60 (C1) n - 1
REM
REM in /home/nfs/bkarasulu/CARBON/AIRSS/Generating-Clusters/AIREBO/Higher-Symm/Only-C60
REM
REM
REM
REM
REM
REM ./C.cell (28575a23ae977d3b5fae324c64b13b57)
REM
REM compiler GCC version 9.2.1 20190827 (Red Hat 9.2.1-1)
REM options -cpp -mtune=generic -march=x86-64 -g -O0 -fpre-include=/usr/include/finclude/math-vector-fortran.h
REM seed 1250463454 -438108533 -432856734 -1746947043 -1830165428 -1493816688 251261209 -1736443260 806524240 1587359763 -733581347 273035207 1394037718 1091970761 -916561105 -589412966 -657468736 -231979923 -374793456 -1810049634 911712794 2031811077 -1773417101 295830434 1980911646 315719239 -1923270131 -1672080554 1282222282 -1026290913 -230539614 -2069761734 997431778
REM
CELL 1.54180   50.00000   50.00000   50.00000   90.00000   90.00000   90.00000
LATT -1
SFAC C  
C      1  0.4821950000000  0.5434570000000  0.5247530000000 1.0
C      1  0.5126720000000  0.5529270000000  0.5297220000000 1.0
C      1  0.5318300000000  0.5496860000000  0.5018140000000 1.0
C      1  0.5179080000000  0.5469920000000  0.4719840000000 1.0
C      1  0.4856170000000  0.5529580000000  0.4717400000000 1.0
C      1  0.4692230000000  0.5541030000000  0.4970640000000 1.0
C      1  0.4811810000000  0.4559910000000  0.5252070000000 1.0
C      1  0.5122440000000  0.4490880000000  0.5301940000000 1.0
C      1  0.5307580000000  0.4532990000000  0.5019720000000 1.0
C      1  0.5157960000000  0.4537670000000  0.4712510000000 1.0
C      1  0.4839300000000  0.4438910000000  0.4700900000000 1.0
C      1  0.4649790000000  0.4493600000000  0.4979570000000 1.0
C      1  0.5147710000000  0.5208630000000  0.5721000000000 1.0
C      1  0.5696210000000  0.5132040000000  0.5265540000000 1.0
C      1  0.5581840000000  0.5183060000000  0.4500970000000 1.0
C      1  0.4811250000000  0.5176720000000  0.4298020000000 1.0
C      1  0.4337880000000  0.5209650000000  0.4754520000000 1.0
C      1  0.4425930000000  0.5088710000000  0.5461090000000 1.0
C      1  0.5174080000000  0.4864650000000  0.5716660000000 1.0
C      1  0.5647610000000  0.4849110000000  0.5290520000000 1.0
C      1  0.5494050000000  0.4873230000000  0.4575520000000 1.0
C      1  0.4848670000000  0.4837600000000  0.4290120000000 1.0
C      1  0.4363120000000  0.4897240000000  0.4807880000000 1.0
C      1  0.4395080000000  0.4799620000000  0.5457230000000 1.0
C      1  0.5341570000000  0.5352690000000  0.4440620000000 1.0
C      1  0.4740160000000  0.5442730000000  0.4462100000000 1.0
C      1  0.4427480000000  0.5392560000000  0.4962870000000 1.0
C      1  0.4693040000000  0.5244900000000  0.5499250000000 1.0
C      1  0.5252530000000  0.5423380000000  0.5552670000000 1.0
C      1  0.5640330000000  0.5385370000000  0.5061980000000 1.0
C      1  0.5313000000000  0.4632780000000  0.4425120000000 1.0
C      1  0.4715020000000  0.4565010000000  0.4443420000000 1.0
C      1  0.4330970000000  0.4622900000000  0.5006330000000 1.0
C      1  0.4626240000000  0.4651730000000  0.5518770000000 1.0
C      1  0.5223290000000  0.4563340000000  0.5566140000000 1.0
C      1  0.5605860000000  0.4692610000000  0.5056400000000 1.0
C      1  0.5524270000000  0.5332060000000  0.5442940000000 1.0
C      1  0.5649540000000  0.5150630000000  0.4815820000000 1.0
C      1  0.5134070000000  0.5115350000000  0.4312910000000 1.0
C      1  0.4487800000000  0.5264830000000  0.4508380000000 1.0
C      1  0.4431980000000  0.5213080000000  0.5199720000000 1.0
C      1  0.4871730000000  0.5120250000000  0.5667480000000 1.0
C      1  0.5484400000000  0.4759430000000  0.5535450000000 1.0
C      1  0.5700020000000  0.4820260000000  0.4822130000000 1.0
C      1  0.5154000000000  0.4793110000000  0.4239500000000 1.0
C      1  0.4549870000000  0.4809760000000  0.4558080000000 1.0
C      1  0.4233700000000  0.4670960000000  0.5258890000000 1.0
C      1  0.4840740000000  0.4797930000000  0.5709430000000 1.0
C      1  0.5344300000000  0.5170790000000  0.4925150000000 1.0
C      1  0.5040310000000  0.5184850000000  0.4632270000000 1.0
C      1  0.4727170000000  0.5133680000000  0.4711430000000 1.0
C      1  0.4695910000000  0.5110640000000  0.5050460000000 1.0
C      1  0.4961260000000  0.5130290000000  0.5226400000000 1.0
C      1  0.5299240000000  0.5173600000000  0.5247620000000 1.0
C      1  0.5245370000000  0.4858010000000  0.5014650000000 1.0
C      1  0.5180420000000  0.4880000000000  0.4706650000000 1.0
C      1  0.4862430000000  0.4834600000000  0.4689610000000 1.0
C      1  0.4666340000000  0.4813770000000  0.4938030000000 1.0
C      1  0.4947820000000  0.4839680000000  0.5389330000000 1.0
C      1  0.5251070000000  0.4876960000000  0.5325420000000 1.0
END
