TITL C-26728-8286-188 -0.00146519729429562 125000 -339.146624594739 0 0 60 (C1) n - 1
REM
REM in /home/nfs/bkarasulu/CARBON/AIRSS/Generating-Clusters/AIREBO/Higher-Symm/Only-C60
REM
REM
REM
REM
REM
REM ./C.cell (28575a23ae977d3b5fae324c64b13b57)
REM
REM compiler GCC version 9.2.1 20190827 (Red Hat 9.2.1-1)
REM options -cpp -mtune=generic -march=x86-64 -g -O0 -fpre-include=/usr/include/finclude/math-vector-fortran.h
REM seed -1157647771 1715752163 -259351099 1174576078 852722102 -405043900 -1169502040 1328315238 -1192851147 -1185949405 551301299 1919497321 -187358526 924224486 958775140 637110607 -621287236 1863678168 -1233858461 1040719446 1997775338 -748201870 716014394 1307210465 -1939781668 -1443331129 356145587 1594825121 1312309031 -2023219966 -1165432062 1662744141 841149207
REM
CELL 1.54180   50.00000   50.00000   50.00000   90.00000   90.00000   90.00000
LATT -1
SFAC C  
C      1  0.5236090000000  0.5149510000000  0.5146660000000 1.0
C      1  0.4918390000000  0.4768520000000  0.5162040000000 1.0
C      1  0.4820470000000  0.5075810000000  0.5177250000000 1.0
C      1  0.4698930000000  0.4638910000000  0.4966020000000 1.0
C      1  0.4761940000000  0.5157580000000  0.4895920000000 1.0
C      1  0.4699960000000  0.4882600000000  0.4749300000000 1.0
C      1  0.5044150000000  0.5250770000000  0.4782160000000 1.0
C      1  0.5030790000000  0.4909930000000  0.4738440000000 1.0
C      1  0.5303910000000  0.5376810000000  0.4914960000000 1.0
C      1  0.5167530000000  0.4887220000000  0.5017130000000 1.0
C      1  0.4569300000000  0.5266400000000  0.4548030000000 1.0
C      1  0.5004420000000  0.4763420000000  0.4369170000000 1.0
C      1  0.5400520000000  0.5329080000000  0.4476880000000 1.0
C      1  0.5532540000000  0.4668970000000  0.4637060000000 1.0
C      1  0.5606660000000  0.5279760000000  0.5037510000000 1.0
C      1  0.5455080000000  0.4684560000000  0.5396370000000 1.0
C      1  0.5116180000000  0.5231380000000  0.5706380000000 1.0
C      1  0.4623270000000  0.4718010000000  0.5633270000000 1.0
C      1  0.4424680000000  0.5306870000000  0.5326710000000 1.0
C      1  0.4445050000000  0.4607200000000  0.5127150000000 1.0
C      1  0.5600900000000  0.5126690000000  0.5302180000000 1.0
C      1  0.5203870000000  0.4820610000000  0.5580760000000 1.0
C      1  0.4802550000000  0.5179560000000  0.5629670000000 1.0
C      1  0.4416700000000  0.4887880000000  0.5514350000000 1.0
C      1  0.4389940000000  0.5124560000000  0.5039020000000 1.0
C      1  0.4417320000000  0.4907470000000  0.4470840000000 1.0
C      1  0.4841010000000  0.5246100000000  0.4351940000000 1.0
C      1  0.5234570000000  0.4922980000000  0.4314550000000 1.0
C      1  0.5589050000000  0.5123500000000  0.4553300000000 1.0
C      1  0.5672710000000  0.4776880000000  0.4921420000000 1.0
C      1  0.4350220000000  0.4850160000000  0.5232250000000 1.0
C      1  0.4340800000000  0.5071000000000  0.4706840000000 1.0
C      1  0.4742880000000  0.4930790000000  0.4416160000000 1.0
C      1  0.5178740000000  0.5208690000000  0.4332860000000 1.0
C      1  0.5496670000000  0.4872490000000  0.4443190000000 1.0
C      1  0.5692300000000  0.5082080000000  0.4814470000000 1.0
C      1  0.5635940000000  0.4847940000000  0.5252710000000 1.0
C      1  0.5321440000000  0.5123910000000  0.5474810000000 1.0
C      1  0.4873640000000  0.4868450000000  0.5646960000000 1.0
C      1  0.4487910000000  0.5159100000000  0.5556070000000 1.0
C      1  0.5247170000000  0.5641720000000  0.5375980000000 1.0
C      1  0.4909440000000  0.4394360000000  0.5481150000000 1.0
C      1  0.4610050000000  0.5530670000000  0.5286550000000 1.0
C      1  0.4454260000000  0.4398590000000  0.5321070000000 1.0
C      1  0.4581000000000  0.5627650000000  0.5030830000000 1.0
C      1  0.4760070000000  0.4189660000000  0.4735610000000 1.0
C      1  0.5126410000000  0.5673040000000  0.4555500000000 1.0
C      1  0.5338720000000  0.4479580000000  0.4646100000000 1.0
C      1  0.5639110000000  0.5588250000000  0.4912450000000 1.0
C      1  0.5366710000000  0.4463350000000  0.5214250000000 1.0
C      1  0.5377350000000  0.4671000000000  0.5005080000000 1.0
C      1  0.5128890000000  0.5426100000000  0.5297440000000 1.0
C      1  0.5040390000000  0.4613280000000  0.5389810000000 1.0
C      1  0.4846400000000  0.5326510000000  0.5352580000000 1.0
C      1  0.4636890000000  0.4448170000000  0.5535610000000 1.0
C      1  0.4534380000000  0.5377730000000  0.4862420000000 1.0
C      1  0.4831400000000  0.4436570000000  0.4772210000000 1.0
C      1  0.4961290000000  0.5452430000000  0.4561850000000 1.0
C      1  0.5051000000000  0.4588060000000  0.4629220000000 1.0
C      1  0.5410050000000  0.5589140000000  0.4671520000000 1.0
END
