TITL C-26727-7196-96 -0.000284164397821018 125000 -359.962409121374 0 0 60 (C1) n - 1
REM
REM in /home/nfs/bkarasulu/CARBON/AIRSS/Generating-Clusters/AIREBO/Higher-Symm/Only-C60
REM
REM
REM
REM
REM
REM ./C.cell (28575a23ae977d3b5fae324c64b13b57)
REM
REM compiler GCC version 9.2.1 20190827 (Red Hat 9.2.1-1)
REM options -cpp -mtune=generic -march=x86-64 -g -O0 -fpre-include=/usr/include/finclude/math-vector-fortran.h
REM seed 956098850 1698556549 1016801084 -1648000189 -1486978760 -1827433169 -454468053 -210931132 1103777108 -1937635760 -543110881 -1234026056 -13382714 2145999129 -1391817667 -97278310 -459440723 1202924619 371903625 2084686311 -643951678 523853345 1892579632 -1050424339 -88839295 733672353 -124682830 1859740160 1954352077 -1138535667 2089702464 1130983516 330047531
REM
CELL 1.54180   50.00000   50.00000   50.00000   90.00000   90.00000   90.00000
LATT -1
SFAC C  
C      1  0.4803180000000  0.4236220000000  0.5345300000000 1.0
C      1  0.4159760000000  0.5394530000000  0.4880030000000 1.0
C      1  0.5388230000000  0.4997280000000  0.4387080000000 1.0
C      1  0.4868550000000  0.5598360000000  0.4553940000000 1.0
C      1  0.5129410000000  0.4400390000000  0.4562210000000 1.0
C      1  0.5195900000000  0.5755240000000  0.5337040000000 1.0
C      1  0.4187500000000  0.4579730000000  0.5137360000000 1.0
C      1  0.5814510000000  0.5425440000000  0.5143340000000 1.0
C      1  0.5832970000000  0.4609780000000  0.4873610000000 1.0
C      1  0.5375900000000  0.5158080000000  0.5721770000000 1.0
C      1  0.4626380000000  0.4840440000000  0.5717220000000 1.0
C      1  0.4620530000000  0.5001880000000  0.4409590000000 1.0
C      1  0.5120490000000  0.4291960000000  0.5326970000000 1.0
C      1  0.5814560000000  0.5390760000000  0.4824170000000 1.0
C      1  0.4676040000000  0.4681260000000  0.4342050000000 1.0
C      1  0.5196260000000  0.5557170000000  0.4517430000000 1.0
C      1  0.4801240000000  0.4439510000000  0.4530320000000 1.0
C      1  0.4878540000000  0.5701980000000  0.5318390000000 1.0
C      1  0.5786570000000  0.4624760000000  0.5191830000000 1.0
C      1  0.4203450000000  0.5377450000000  0.5198570000000 1.0
C      1  0.4181540000000  0.4619960000000  0.4818580000000 1.0
C      1  0.4612070000000  0.5154230000000  0.5780980000000 1.0
C      1  0.5389920000000  0.4844030000000  0.5784240000000 1.0
C      1  0.5334240000000  0.5319430000000  0.4333080000000 1.0
C      1  0.5490570000000  0.5654840000000  0.4481000000000 1.0
C      1  0.5634180000000  0.4509350000000  0.5383300000000 1.0
C      1  0.4553170000000  0.5342730000000  0.5597110000000 1.0
C      1  0.5334840000000  0.4401250000000  0.5443060000000 1.0
C      1  0.4664510000000  0.5594940000000  0.5437120000000 1.0
C      1  0.4506940000000  0.4350040000000  0.4485320000000 1.0
C      1  0.5752000000000  0.5497070000000  0.4587110000000 1.0
C      1  0.4246190000000  0.4513100000000  0.4581980000000 1.0
C      1  0.4361970000000  0.5491630000000  0.5386060000000 1.0
C      1  0.4370550000000  0.4564110000000  0.4283000000000 1.0
C      1  0.5638480000000  0.5442210000000  0.4285840000000 1.0
C      1  0.5446280000000  0.4655650000000  0.5599260000000 1.0
C      1  0.4626330000000  0.5494790000000  0.4592340000000 1.0
C      1  0.4330610000000  0.4524830000000  0.5357840000000 1.0
C      1  0.5460610000000  0.5355280000000  0.5571500000000 1.0
C      1  0.4578830000000  0.4343910000000  0.5457750000000 1.0
C      1  0.5417290000000  0.5651900000000  0.5457860000000 1.0
C      1  0.5370310000000  0.4508610000000  0.4588000000000 1.0
C      1  0.4319170000000  0.5425020000000  0.4659370000000 1.0
C      1  0.5679770000000  0.4575190000000  0.4649060000000 1.0
C      1  0.5673080000000  0.5477810000000  0.5365940000000 1.0
C      1  0.5491310000000  0.4790060000000  0.4504500000000 1.0
C      1  0.4511340000000  0.5206610000000  0.4525410000000 1.0
C      1  0.4542020000000  0.4643220000000  0.5566810000000 1.0
C      1  0.4867270000000  0.4979330000000  0.5874900000000 1.0
C      1  0.5056640000000  0.5657570000000  0.4797790000000 1.0
C      1  0.5863100000000  0.4890860000000  0.5028280000000 1.0
C      1  0.4903050000000  0.4928330000000  0.4307580000000 1.0
C      1  0.5117850000000  0.5070240000000  0.4252250000000 1.0
C      1  0.5133740000000  0.5018440000000  0.5876730000000 1.0
C      1  0.4940640000000  0.4303000000000  0.5063120000000 1.0
C      1  0.5059150000000  0.5688540000000  0.5054560000000 1.0
C      1  0.4943770000000  0.4333260000000  0.4806220000000 1.0
C      1  0.5924330000000  0.5152440000000  0.5011910000000 1.0
C      1  0.4066420000000  0.4850950000000  0.5012190000000 1.0
C      1  0.4125960000000  0.5113000000000  0.5032820000000 1.0
END
