TITL C-26728-8286-191 -0.00217076397976538 125000 -323.498591858323 0 0 60 (C1) n - 1
REM
REM in /home/nfs/bkarasulu/CARBON/AIRSS/Generating-Clusters/AIREBO/Higher-Symm/Only-C60
REM
REM
REM
REM
REM
REM ./C.cell (28575a23ae977d3b5fae324c64b13b57)
REM
REM compiler GCC version 9.2.1 20190827 (Red Hat 9.2.1-1)
REM options -cpp -mtune=generic -march=x86-64 -g -O0 -fpre-include=/usr/include/finclude/math-vector-fortran.h
REM seed -1790046024 1017034462 2041261779 895158575 1849720617 105379010 -1470893855 1842082607 1181415442 283358711 810259622 -1790163250 -866087691 1017489340 -42839768 368151314 1921942084 719226808 223901212 -92078289 32246783 -1046961828 -1359227835 1701722904 1309847935 1085799179 1429827201 320258448 -1171828982 -661754537 -2062851443 960725497 527211205
REM
CELL 1.54180   50.00000   50.00000   50.00000   90.00000   90.00000   90.00000
LATT -1
SFAC C  
C      1  0.4841810000000  0.5404030000000  0.4961750000000 1.0
C      1  0.5149160000000  0.5320640000000  0.5107260000000 1.0
C      1  0.5317090000000  0.5035110000000  0.5029740000000 1.0
C      1  0.5238480000000  0.4709260000000  0.4972650000000 1.0
C      1  0.4955820000000  0.4619840000000  0.5032760000000 1.0
C      1  0.4703540000000  0.4818160000000  0.5025140000000 1.0
C      1  0.4667140000000  0.5147630000000  0.5100920000000 1.0
C      1  0.4612000000000  0.4446450000000  0.4919160000000 1.0
C      1  0.4350070000000  0.4975470000000  0.4929600000000 1.0
C      1  0.4478070000000  0.5557010000000  0.4928080000000 1.0
C      1  0.5098680000000  0.5684230000000  0.4839010000000 1.0
C      1  0.5530240000000  0.5346850000000  0.4899710000000 1.0
C      1  0.5630070000000  0.4757640000000  0.4988550000000 1.0
C      1  0.5192320000000  0.4318210000000  0.4921750000000 1.0
C      1  0.4521020000000  0.4729350000000  0.4519530000000 1.0
C      1  0.4544260000000  0.5195640000000  0.4534910000000 1.0
C      1  0.4863400000000  0.5532470000000  0.4449820000000 1.0
C      1  0.5322910000000  0.5443660000000  0.4455510000000 1.0
C      1  0.5473860000000  0.5013270000000  0.4548620000000 1.0
C      1  0.5343290000000  0.4557920000000  0.4515330000000 1.0
C      1  0.4893350000000  0.4431500000000  0.4512320000000 1.0
C      1  0.5319430000000  0.5073970000000  0.5662800000000 1.0
C      1  0.5354910000000  0.4762430000000  0.5530260000000 1.0
C      1  0.5056260000000  0.4607520000000  0.5580510000000 1.0
C      1  0.4724050000000  0.4677930000000  0.5561470000000 1.0
C      1  0.4667100000000  0.5010660000000  0.5603200000000 1.0
C      1  0.4807630000000  0.5325730000000  0.5575510000000 1.0
C      1  0.5101080000000  0.5331850000000  0.5750040000000 1.0
C      1  0.5493940000000  0.5282860000000  0.4628570000000 1.0
C      1  0.5455440000000  0.4761660000000  0.4714980000000 1.0
C      1  0.5155670000000  0.4378980000000  0.4640370000000 1.0
C      1  0.4642400000000  0.4495570000000  0.4646060000000 1.0
C      1  0.4426580000000  0.4970810000000  0.4659720000000 1.0
C      1  0.4664210000000  0.5447880000000  0.4670570000000 1.0
C      1  0.5113090000000  0.5618200000000  0.4559390000000 1.0
C      1  0.5395000000000  0.5398690000000  0.5595760000000 1.0
C      1  0.5430930000000  0.5040760000000  0.5349200000000 1.0
C      1  0.5488120000000  0.4524220000000  0.5403160000000 1.0
C      1  0.4810870000000  0.4499020000000  0.5308360000000 1.0
C      1  0.4549840000000  0.4840150000000  0.5327580000000 1.0
C      1  0.4532440000000  0.5242420000000  0.5393980000000 1.0
C      1  0.5101870000000  0.5410620000000  0.5419270000000 1.0
C      1  0.5192350000000  0.5250110000000  0.4263340000000 1.0
C      1  0.5298290000000  0.4987730000000  0.4320940000000 1.0
C      1  0.5210950000000  0.4715350000000  0.4302750000000 1.0
C      1  0.4933220000000  0.4640400000000  0.4302520000000 1.0
C      1  0.4708790000000  0.4821810000000  0.4305670000000 1.0
C      1  0.4713280000000  0.5109070000000  0.4316950000000 1.0
C      1  0.4908640000000  0.5308630000000  0.4267010000000 1.0
C      1  0.4403880000000  0.4670490000000  0.5070610000000 1.0
C      1  0.4359800000000  0.5279690000000  0.5085450000000 1.0
C      1  0.4775590000000  0.5721900000000  0.4938570000000 1.0
C      1  0.5328760000000  0.5556600000000  0.4995870000000 1.0
C      1  0.5642500000000  0.5083760000000  0.5085790000000 1.0
C      1  0.5445220000000  0.4488080000000  0.5082960000000 1.0
C      1  0.4880980000000  0.4288910000000  0.5055400000000 1.0
C      1  0.5016460000000  0.4914040000000  0.5438870000000 1.0
C      1  0.4974270000000  0.5062090000000  0.4865150000000 1.0
C      1  0.4961720000000  0.5061730000000  0.5205210000000 1.0
C      1  0.4976350000000  0.4870880000000  0.5775450000000 1.0
END
