TITL C-26733-8285-6 0.0012077683765506 125000 -324.111616197031 0 0 60 (C1) n - 1
REM
REM in /home/nfs/bkarasulu/CARBON/AIRSS/Generating-Clusters/AIREBO/Higher-Symm/Only-C60
REM
REM
REM
REM
REM
REM ./C.cell (28575a23ae977d3b5fae324c64b13b57)
REM
REM compiler GCC version 9.2.1 20190827 (Red Hat 9.2.1-1)
REM options -cpp -mtune=generic -march=x86-64 -g -O0 -fpre-include=/usr/include/finclude/math-vector-fortran.h
REM seed -1762004796 -1237819988 1399048904 1602460651 -151999129 -706868919 1904573173 1772417235 -1079834315 145535670 1468449878 1261626415 -126216589 -126312962 1298600816 612287772 277678168 -1566723474 -1869822825 -31332024 -111253271 -1108050218 -831747484 -192506414 -1060811746 -1464298751 -1330311780 1099367335 1625876978 -521739898 1142807772 1558000232 -1879656908
REM
CELL 1.54180   50.00000   50.00000   50.00000   90.00000   90.00000   90.00000
LATT -1
SFAC C  
C      1  0.4706530000000  0.5452930000000  0.4366430000000 1.0
C      1  0.4814910000000  0.5310510000000  0.5691440000000 1.0
C      1  0.4692210000000  0.4229980000000  0.4922330000000 1.0
C      1  0.4848010000000  0.4475090000000  0.4858870000000 1.0
C      1  0.4848160000000  0.5397150000000  0.4621100000000 1.0
C      1  0.4931590000000  0.5095180000000  0.5463660000000 1.0
C      1  0.4507840000000  0.5387820000000  0.5143530000000 1.0
C      1  0.4447660000000  0.4721350000000  0.5245930000000 1.0
C      1  0.4517170000000  0.4944130000000  0.4627370000000 1.0
C      1  0.4421850000000  0.5238690000000  0.5396860000000 1.0
C      1  0.4391290000000  0.4602530000000  0.4969420000000 1.0
C      1  0.4385490000000  0.5232560000000  0.4650650000000 1.0
C      1  0.5787830000000  0.5307990000000  0.5150790000000 1.0
C      1  0.5812570000000  0.4790800000000  0.5182620000000 1.0
C      1  0.5857230000000  0.5007330000000  0.4715820000000 1.0
C      1  0.5110140000000  0.4670900000000  0.5250600000000 1.0
C      1  0.5082640000000  0.4980140000000  0.4683480000000 1.0
C      1  0.5088110000000  0.5278040000000  0.5108630000000 1.0
C      1  0.4942000000000  0.5653700000000  0.4787260000000 1.0
C      1  0.4932990000000  0.4785520000000  0.5588480000000 1.0
C      1  0.4924660000000  0.4505590000000  0.4548000000000 1.0
C      1  0.5579350000000  0.4673930000000  0.4998850000000 1.0
C      1  0.5586480000000  0.5171370000000  0.4693620000000 1.0
C      1  0.5557300000000  0.5228970000000  0.5360110000000 1.0
C      1  0.5302390000000  0.4584900000000  0.4984630000000 1.0
C      1  0.5308790000000  0.5213650000000  0.4629340000000 1.0
C      1  0.5253080000000  0.5176700000000  0.5388160000000 1.0
C      1  0.4469990000000  0.5504240000000  0.4557470000000 1.0
C      1  0.4569950000000  0.5143610000000  0.5638140000000 1.0
C      1  0.4466040000000  0.4384860000000  0.4787590000000 1.0
C      1  0.4651970000000  0.5619230000000  0.5058160000000 1.0
C      1  0.4585270000000  0.4628750000000  0.5475540000000 1.0
C      1  0.4637870000000  0.4761590000000  0.4445090000000 1.0
C      1  0.4514130000000  0.4999610000000  0.5236830000000 1.0
C      1  0.4582960000000  0.4825650000000  0.4885180000000 1.0
C      1  0.4544650000000  0.5222830000000  0.4909460000000 1.0
C      1  0.5246460000000  0.4849600000000  0.5480230000000 1.0
C      1  0.5170260000000  0.4666390000000  0.4719880000000 1.0
C      1  0.5183300000000  0.5418560000000  0.4834900000000 1.0
C      1  0.5178540000000  0.5470930000000  0.5541400000000 1.0
C      1  0.5258620000000  0.4310990000000  0.5160740000000 1.0
C      1  0.5250230000000  0.5189300000000  0.4315310000000 1.0
C      1  0.5807980000000  0.5033750000000  0.5317700000000 1.0
C      1  0.5853880000000  0.4767530000000  0.4863190000000 1.0
C      1  0.5818840000000  0.5289790000000  0.4874850000000 1.0
C      1  0.4850210000000  0.5141730000000  0.4807370000000 1.0
C      1  0.4829490000000  0.5058980000000  0.5136600000000 1.0
C      1  0.4879510000000  0.4740490000000  0.5028410000000 1.0
C      1  0.5103640000000  0.4285650000000  0.5357230000000 1.0
C      1  0.5120930000000  0.4993800000000  0.4219980000000 1.0
C      1  0.5085210000000  0.5661130000000  0.5401470000000 1.0
C      1  0.5312910000000  0.4541370000000  0.4462110000000 1.0
C      1  0.5332840000000  0.5699870000000  0.4854480000000 1.0
C      1  0.5457570000000  0.4754920000000  0.5674750000000 1.0
C      1  0.4598010000000  0.5674590000000  0.4764100000000 1.0
C      1  0.4618920000000  0.4863820000000  0.5671360000000 1.0
C      1  0.4582560000000  0.4474780000000  0.4533300000000 1.0
C      1  0.4957960000000  0.4813330000000  0.4414730000000 1.0
C      1  0.4968170000000  0.5595940000000  0.5121240000000 1.0
C      1  0.4872860000000  0.4494960000000  0.5423210000000 1.0
END
