TITL C-26737-6152-175 -0.00092077894965915 125000 -347.154336119592 0 0 60 (C1) n - 1
REM
REM in /home/nfs/bkarasulu/CARBON/AIRSS/Generating-Clusters/AIREBO/Higher-Symm/Only-C60
REM
REM
REM
REM
REM
REM ./C.cell (28575a23ae977d3b5fae324c64b13b57)
REM
REM compiler GCC version 9.2.1 20190827 (Red Hat 9.2.1-1)
REM options -cpp -mtune=generic -march=x86-64 -g -O0 -fpre-include=/usr/include/finclude/math-vector-fortran.h
REM seed 359176600 -1247194249 1644753707 -1605562419 1910587035 -282372563 -1876192168 -1939808676 1547861645 1783400146 1878413596 672336627 938068876 1778826682 -1181113985 -932235525 1100931418 -1651043755 -1842412599 820183496 1108034356 -1863951150 -1012674788 -1511702422 1300854761 1137142959 -1324976236 218489911 -292394797 -254655058 -524938379 694598613 665250423
REM
CELL 1.54180   50.00000   50.00000   50.00000   90.00000   90.00000   90.00000
LATT -1
SFAC C  
C      1  0.5208080000000  0.5119980000000  0.4194980000000 1.0
C      1  0.4699420000000  0.5126950000000  0.4152390000000 1.0
C      1  0.4943190000000  0.4685810000000  0.4180250000000 1.0
C      1  0.4717300000000  0.5119860000000  0.5790050000000 1.0
C      1  0.5224810000000  0.5159080000000  0.5854850000000 1.0
C      1  0.4994920000000  0.4705840000000  0.5812430000000 1.0
C      1  0.4742190000000  0.4822500000000  0.5828270000000 1.0
C      1  0.5235390000000  0.4881520000000  0.5848980000000 1.0
C      1  0.4937140000000  0.5288120000000  0.5855880000000 1.0
C      1  0.5185250000000  0.4820010000000  0.4146940000000 1.0
C      1  0.4692260000000  0.4849860000000  0.4159720000000 1.0
C      1  0.4969570000000  0.5272110000000  0.4194800000000 1.0
C      1  0.4943960000000  0.5504130000000  0.5390210000000 1.0
C      1  0.4561270000000  0.4566310000000  0.5341660000000 1.0
C      1  0.5527910000000  0.4921700000000  0.5381350000000 1.0
C      1  0.5108780000000  0.5504790000000  0.4633900000000 1.0
C      1  0.5449010000000  0.4568000000000  0.4603170000000 1.0
C      1  0.4442510000000  0.4873220000000  0.4663640000000 1.0
C      1  0.5111170000000  0.4457070000000  0.4626670000000 1.0
C      1  0.5412410000000  0.5368390000000  0.4584350000000 1.0
C      1  0.4480600000000  0.5210560000000  0.4632720000000 1.0
C      1  0.4886060000000  0.4459070000000  0.5334190000000 1.0
C      1  0.4622810000000  0.5397720000000  0.5397110000000 1.0
C      1  0.5527070000000  0.5238460000000  0.5435210000000 1.0
C      1  0.5500010000000  0.4630850000000  0.4933550000000 1.0
C      1  0.5169060000000  0.5640120000000  0.4939950000000 1.0
C      1  0.4308380000000  0.4703530000000  0.4890100000000 1.0
C      1  0.4359200000000  0.4574460000000  0.5097220000000 1.0
C      1  0.4940730000000  0.5664920000000  0.5095750000000 1.0
C      1  0.5564840000000  0.4877890000000  0.5052960000000 1.0
C      1  0.4654810000000  0.5515380000000  0.5115600000000 1.0
C      1  0.5108090000000  0.4314040000000  0.5121300000000 1.0
C      1  0.5552090000000  0.5216340000000  0.5095870000000 1.0
C      1  0.5421040000000  0.5446850000000  0.4882600000000 1.0
C      1  0.5262770000000  0.4419440000000  0.4921100000000 1.0
C      1  0.4572990000000  0.5350970000000  0.4894860000000 1.0
C      1  0.5299110000000  0.5071310000000  0.4826490000000 1.0
C      1  0.4802410000000  0.5130050000000  0.4852620000000 1.0
C      1  0.4988280000000  0.4696130000000  0.4834870000000 1.0
C      1  0.4728110000000  0.5094940000000  0.5158920000000 1.0
C      1  0.5247990000000  0.5107730000000  0.5146310000000 1.0
C      1  0.4994920000000  0.4696180000000  0.5135530000000 1.0
C      1  0.4747100000000  0.4828510000000  0.5271840000000 1.0
C      1  0.5225440000000  0.4829650000000  0.5258830000000 1.0
C      1  0.4986030000000  0.5276790000000  0.5174870000000 1.0
C      1  0.5245240000000  0.4824190000000  0.4695080000000 1.0
C      1  0.4769410000000  0.4869570000000  0.4718330000000 1.0
C      1  0.5067160000000  0.5270550000000  0.4831850000000 1.0
C      1  0.4555460000000  0.5176910000000  0.5541590000000 1.0
C      1  0.5049390000000  0.4506180000000  0.5596100000000 1.0
C      1  0.5369040000000  0.5337630000000  0.5634540000000 1.0
C      1  0.5430310000000  0.5167650000000  0.4401440000000 1.0
C      1  0.4907480000000  0.4482380000000  0.4402280000000 1.0
C      1  0.4636540000000  0.5298700000000  0.4410680000000 1.0
C      1  0.5387110000000  0.4829740000000  0.4400270000000 1.0
C      1  0.4912380000000  0.5480460000000  0.4412010000000 1.0
C      1  0.4654330000000  0.4709810000000  0.4453400000000 1.0
C      1  0.4571870000000  0.4836140000000  0.5550470000000 1.0
C      1  0.5083830000000  0.5463620000000  0.5644080000000 1.0
C      1  0.5303980000000  0.4739330000000  0.5563030000000 1.0
END
