TITL C-26726-4881-157 -297.587604577425 125000 -331.480946053039 0 0 60 (C3) n - 1
REM
REM in /home/nfs/bkarasulu/CARBON/AIRSS/Generating-Clusters/AIREBO/Higher-Symm/Only-C60
REM
REM
REM
REM
REM
REM ./C.cell (28575a23ae977d3b5fae324c64b13b57)
REM
REM compiler GCC version 9.2.1 20190827 (Red Hat 9.2.1-1)
REM options -cpp -mtune=generic -march=x86-64 -g -O0 -fpre-include=/usr/include/finclude/math-vector-fortran.h
REM seed -1907480272 924796423 -1377875270 -1526339572 -1924591011 -2107802954 -1247324538 2106913637 1549032522 -133625745 -1517978484 1308533372 1949195498 -1099179475 36523000 -2114638511 -511195443 -383949699 -537265280 322982580 878492495 2134521679 -378292789 2123660752 2085269083 -1324653306 1974549273 -1445429692 -641192141 -1846833629 -1731190468 -1907585091 -930180284
REM
CELL 1.54180   50.00000   50.00000   50.00000   90.00000   90.00000   90.00000
LATT -1
SFAC C  
C      1  0.5469420000000  0.5568260000000  0.5093180000000 1.0
C      1  0.5469920000000  0.5201450000000  0.5539060000000 1.0
C      1  0.5469430000000  0.4635180000000  0.5445530000000 1.0
C      1  0.5469940000000  0.4432440000000  0.4904930000000 1.0
C      1  0.5469450000000  0.4796580000000  0.4461300000000 1.0
C      1  0.5469930000000  0.5366140000000  0.4556010000000 1.0
C      1  0.4654260000000  0.4264620000000  0.4916630000000 1.0
C      1  0.4646960000000  0.4727560000000  0.4316450000000 1.0
C      1  0.4654260000000  0.5439870000000  0.4404840000000 1.0
C      1  0.4646920000000  0.5728180000000  0.5105830000000 1.0
C      1  0.4654250000000  0.5295480000000  0.5678520000000 1.0
C      1  0.4646940000000  0.4544240000000  0.5577720000000 1.0
C      1  0.4471120000000  0.4900630000000  0.4387970000000 1.0
C      1  0.4477070000000  0.5468220000000  0.4585790000000 1.0
C      1  0.4471090000000  0.5579710000000  0.5219980000000 1.0
C      1  0.4477060000000  0.5124600000000  0.5612600000000 1.0
C      1  0.4471110000000  0.4519620000000  0.5392070000000 1.0
C      1  0.4477060000000  0.4407140000000  0.4801620000000 1.0
C      1  0.4913380000000  0.5281230000000  0.4474830000000 1.0
C      1  0.4906870000000  0.5598030000000  0.4983940000000 1.0
C      1  0.4913370000000  0.5314190000000  0.5506130000000 1.0
C      1  0.4906880000000  0.4714890000000  0.5525930000000 1.0
C      1  0.4913380000000  0.4404580000000  0.5019030000000 1.0
C      1  0.4906910000000  0.4687080000000  0.4490110000000 1.0
C      1  0.5332390000000  0.4719930000000  0.5741590000000 1.0
C      1  0.5335230000000  0.4218740000000  0.5126940000000 1.0
C      1  0.5332430000000  0.4497810000000  0.4386660000000 1.0
C      1  0.5335240000000  0.5280710000000  0.4259930000000 1.0
C      1  0.5332390000000  0.5782280000000  0.4871760000000 1.0
C      1  0.5335210000000  0.5500570000000  0.5613120000000 1.0
C      1  0.5155480000000  0.4529730000000  0.5438850000000 1.0
C      1  0.5155350000000  0.4385450000000  0.4811810000000 1.0
C      1  0.5155500000000  0.4855090000000  0.4373300000000 1.0
C      1  0.5155340000000  0.5470260000000  0.4561880000000 1.0
C      1  0.5155470000000  0.5615190000000  0.5187840000000 1.0
C      1  0.5155330000000  0.5144300000000  0.5626310000000 1.0
C      1  0.4823330000000  0.4694220000000  0.5044020000000 1.0
C      1  0.4805810000000  0.4810880000000  0.4751270000000 1.0
C      1  0.4823350000000  0.5114760000000  0.4713170000000 1.0
C      1  0.4805760000000  0.5309960000000  0.4960570000000 1.0
C      1  0.4823330000000  0.5191020000000  0.5242790000000 1.0
C      1  0.4805770000000  0.4879160000000  0.5288150000000 1.0
C      1  0.5108840000000  0.4874370000000  0.5697830000000 1.0
C      1  0.5112310000000  0.4331960000000  0.5241260000000 1.0
C      1  0.5108870000000  0.4458480000000  0.4542280000000 1.0
C      1  0.5112320000000  0.5125090000000  0.4300820000000 1.0
C      1  0.5108840000000  0.5667160000000  0.4759880000000 1.0
C      1  0.5112290000000  0.5542960000000  0.5457910000000 1.0
C      1  0.4488310000000  0.4723880000000  0.4836950000000 1.0
C      1  0.4472270000000  0.5007740000000  0.4672330000000 1.0
C      1  0.4488340000000  0.5279260000000  0.4842430000000 1.0
C      1  0.4472250000000  0.5279900000000  0.5170560000000 1.0
C      1  0.4488320000000  0.4996820000000  0.5320640000000 1.0
C      1  0.4472250000000  0.4712320000000  0.5157130000000 1.0
C      1  0.5601660000000  0.4577930000000  0.4668480000000 1.0
C      1  0.5600050000000  0.5074850000000  0.4474070000000 1.0
C      1  0.5601640000000  0.5498190000000  0.4800230000000 1.0
C      1  0.5600030000000  0.5418060000000  0.5327780000000 1.0
C      1  0.5601640000000  0.4923930000000  0.5531310000000 1.0
C      1  0.5600050000000  0.4507110000000  0.5198170000000 1.0
END
