TITL C-26734-8308-87 -0.00234359033772159 125000 -372.298168685702 0 0 60 (C1) n - 1
REM
REM in /home/nfs/bkarasulu/CARBON/AIRSS/Generating-Clusters/AIREBO/Higher-Symm/Only-C60
REM
REM
REM
REM
REM
REM ./C.cell (28575a23ae977d3b5fae324c64b13b57)
REM
REM compiler GCC version 9.2.1 20190827 (Red Hat 9.2.1-1)
REM options -cpp -mtune=generic -march=x86-64 -g -O0 -fpre-include=/usr/include/finclude/math-vector-fortran.h
REM seed 1153903643 855362705 -1074560501 660155401 1944984291 -1179838866 -394239312 1806580638 4496009 -485332310 -38160211 1089065374 -1440287241 -546759002 1707005832 31160465 -791230614 337906444 -732084094 -479444016 -1242425049 -725697245 1681364800 -217122176 680155504 -1764172181 -957729757 -276872373 167212462 349647551 427580818 1736755666 1420448317
REM
CELL 1.54180   50.00000   50.00000   50.00000   90.00000   90.00000   90.00000
LATT -1
SFAC C  
C      1  0.4866350000000  0.4301300000000  0.4751530000000 1.0
C      1  0.5115660000000  0.4322330000000  0.5364260000000 1.0
C      1  0.4878150000000  0.5644020000000  0.4684930000000 1.0
C      1  0.5133970000000  0.5665980000000  0.5298800000000 1.0
C      1  0.4846910000000  0.4296900000000  0.5320100000000 1.0
C      1  0.5137710000000  0.4321930000000  0.4715820000000 1.0
C      1  0.4864600000000  0.5644580000000  0.5336250000000 1.0
C      1  0.5146520000000  0.5664610000000  0.4733230000000 1.0
C      1  0.4863660000000  0.5126310000000  0.4486270000000 1.0
C      1  0.5151210000000  0.5162330000000  0.5517230000000 1.0
C      1  0.4849390000000  0.4816080000000  0.4470640000000 1.0
C      1  0.5129760000000  0.4857540000000  0.5519130000000 1.0
C      1  0.4841510000000  0.5131230000000  0.5510770000000 1.0
C      1  0.5172340000000  0.5162270000000  0.4484450000000 1.0
C      1  0.4826040000000  0.4823390000000  0.5532170000000 1.0
C      1  0.5152850000000  0.4853610000000  0.4486030000000 1.0
C      1  0.5348420000000  0.5241330000000  0.4688640000000 1.0
C      1  0.4662870000000  0.5218880000000  0.5312030000000 1.0
C      1  0.5315050000000  0.4754630000000  0.4689660000000 1.0
C      1  0.4662420000000  0.4729900000000  0.5326800000000 1.0
C      1  0.5336580000000  0.5240280000000  0.5322100000000 1.0
C      1  0.4681470000000  0.5216170000000  0.4680600000000 1.0
C      1  0.5302620000000  0.4753140000000  0.5327690000000 1.0
C      1  0.4683440000000  0.4727350000000  0.4676550000000 1.0
C      1  0.4375610000000  0.4429480000000  0.4858890000000 1.0
C      1  0.5590350000000  0.4411860000000  0.5200460000000 1.0
C      1  0.4398860000000  0.5557850000000  0.4842150000000 1.0
C      1  0.5617340000000  0.5589830000000  0.5175960000000 1.0
C      1  0.4370140000000  0.4405240000000  0.5166540000000 1.0
C      1  0.5614230000000  0.4452660000000  0.4886940000000 1.0
C      1  0.4399100000000  0.5575170000000  0.5151010000000 1.0
C      1  0.5630210000000  0.5576010000000  0.4867770000000 1.0
C      1  0.5384080000000  0.5511570000000  0.4741250000000 1.0
C      1  0.4635040000000  0.5492840000000  0.5278800000000 1.0
C      1  0.5359300000000  0.4490280000000  0.4752960000000 1.0
C      1  0.4617810000000  0.4458830000000  0.5292500000000 1.0
C      1  0.5370700000000  0.5513410000000  0.5286490000000 1.0
C      1  0.4646410000000  0.5488180000000  0.4722240000000 1.0
C      1  0.5342090000000  0.4479610000000  0.5309430000000 1.0
C      1  0.4634500000000  0.4463170000000  0.4744100000000 1.0
C      1  0.5748400000000  0.4921480000000  0.5243510000000 1.0
C      1  0.4259350000000  0.4914990000000  0.4714610000000 1.0
C      1  0.5899450000000  0.5149830000000  0.5275300000000 1.0
C      1  0.4117420000000  0.5147400000000  0.4647970000000 1.0
C      1  0.5756390000000  0.4931630000000  0.4738900000000 1.0
C      1  0.4239990000000  0.4912620000000  0.5221530000000 1.0
C      1  0.5905020000000  0.5161160000000  0.4678910000000 1.0
C      1  0.4092050000000  0.5151880000000  0.5245730000000 1.0
C      1  0.5885180000000  0.5400360000000  0.4823330000000 1.0
C      1  0.4149020000000  0.5389610000000  0.5102720000000 1.0
C      1  0.5838120000000  0.4678080000000  0.4822920000000 1.0
C      1  0.4172180000000  0.4652730000000  0.5118430000000 1.0
C      1  0.5861410000000  0.5393840000000  0.5136210000000 1.0
C      1  0.4140400000000  0.5388360000000  0.4789390000000 1.0
C      1  0.5805710000000  0.4650180000000  0.5139710000000 1.0
C      1  0.4168760000000  0.4662090000000  0.4804980000000 1.0
C      1  0.4538870000000  0.4971510000000  0.5151850000000 1.0
C      1  0.5465940000000  0.4990710000000  0.4838040000000 1.0
C      1  0.5454400000000  0.4986390000000  0.5164770000000 1.0
C      1  0.4546670000000  0.4973080000000  0.4828040000000 1.0
END
