TITL C-26729-7230-11 -0.000125185578757134 125000 -331.269493881325 0 0 60 (C1) n - 1
REM
REM in /home/nfs/bkarasulu/CARBON/AIRSS/Generating-Clusters/AIREBO/Higher-Symm/Only-C60
REM
REM
REM
REM
REM
REM ./C.cell (28575a23ae977d3b5fae324c64b13b57)
REM
REM compiler GCC version 9.2.1 20190827 (Red Hat 9.2.1-1)
REM options -cpp -mtune=generic -march=x86-64 -g -O0 -fpre-include=/usr/include/finclude/math-vector-fortran.h
REM seed -342159487 790086818 -897834080 -1098611464 -475395120 -364081095 -1114643630 1654105683 323549792 1936003482 893028776 -1170444488 -372742262 -709928236 433057539 1422187197 -1061988079 1800777313 1131503891 -1658124150 1459085684 -621528502 2088024617 679843947 48527139 -426218652 1892348397 1642702776 364379298 -546442925 819082397 -935861148 -274705757
REM
CELL 1.54180   50.00000   50.00000   50.00000   90.00000   90.00000   90.00000
LATT -1
SFAC C  
C      1  0.4220270000000  0.4804090000000  0.4911100000000 1.0
C      1  0.4308570000000  0.5284540000000  0.5049790000000 1.0
C      1  0.5712330000000  0.5291910000000  0.4978460000000 1.0
C      1  0.5667450000000  0.4808070000000  0.5055450000000 1.0
C      1  0.4295910000000  0.4890510000000  0.4665280000000 1.0
C      1  0.4289130000000  0.5010640000000  0.5172440000000 1.0
C      1  0.5660770000000  0.4946910000000  0.5315370000000 1.0
C      1  0.5761050000000  0.5045620000000  0.4847740000000 1.0
C      1  0.4988050000000  0.4447300000000  0.5428150000000 1.0
C      1  0.4890260000000  0.5645540000000  0.4697260000000 1.0
C      1  0.5068870000000  0.5610740000000  0.5404500000000 1.0
C      1  0.5059380000000  0.4401890000000  0.4581980000000 1.0
C      1  0.4997300000000  0.5310440000000  0.4298070000000 1.0
C      1  0.5119550000000  0.4645770000000  0.5673590000000 1.0
C      1  0.4897680000000  0.5426690000000  0.5640830000000 1.0
C      1  0.4942330000000  0.4619000000000  0.4339730000000 1.0
C      1  0.5844960000000  0.4796830000000  0.4698140000000 1.0
C      1  0.5881440000000  0.5106140000000  0.5372460000000 1.0
C      1  0.4245260000000  0.5196980000000  0.4601670000000 1.0
C      1  0.4177790000000  0.4727780000000  0.5363490000000 1.0
C      1  0.5711640000000  0.4555550000000  0.4796580000000 1.0
C      1  0.5901850000000  0.5324950000000  0.5194980000000 1.0
C      1  0.4307280000000  0.4616190000000  0.5121730000000 1.0
C      1  0.4136450000000  0.5334750000000  0.4831080000000 1.0
C      1  0.5129420000000  0.4717050000000  0.5101640000000 1.0
C      1  0.5153440000000  0.5268310000000  0.4892050000000 1.0
C      1  0.4873470000000  0.5286330000000  0.5063360000000 1.0
C      1  0.4862590000000  0.4705310000000  0.4940030000000 1.0
C      1  0.5128250000000  0.5048130000000  0.4689270000000 1.0
C      1  0.5127630000000  0.4938200000000  0.5293020000000 1.0
C      1  0.4861500000000  0.5079220000000  0.5280960000000 1.0
C      1  0.4836400000000  0.4916900000000  0.4731770000000 1.0
C      1  0.4703730000000  0.5613400000000  0.4909220000000 1.0
C      1  0.4816380000000  0.4379840000000  0.5164390000000 1.0
C      1  0.5254850000000  0.4339140000000  0.4853070000000 1.0
C      1  0.5240380000000  0.5581900000000  0.5119260000000 1.0
C      1  0.4684160000000  0.4888980000000  0.5583150000000 1.0
C      1  0.4684740000000  0.5226870000000  0.4365690000000 1.0
C      1  0.5165400000000  0.4866730000000  0.4241210000000 1.0
C      1  0.5330350000000  0.5186110000000  0.5622140000000 1.0
C      1  0.4611940000000  0.4629780000000  0.5133780000000 1.0
C      1  0.4582440000000  0.5315790000000  0.4915830000000 1.0
C      1  0.5423690000000  0.5309390000000  0.5087760000000 1.0
C      1  0.5405660000000  0.4638900000000  0.4919450000000 1.0
C      1  0.4571110000000  0.5116700000000  0.4657410000000 1.0
C      1  0.4569930000000  0.4902460000000  0.5283860000000 1.0
C      1  0.5405020000000  0.5108370000000  0.5317310000000 1.0
C      1  0.5327150000000  0.4806010000000  0.4661680000000 1.0
C      1  0.5141920000000  0.5588560000000  0.4813390000000 1.0
C      1  0.5212260000000  0.4404030000000  0.5178170000000 1.0
C      1  0.4863250000000  0.4402700000000  0.4830030000000 1.0
C      1  0.4847440000000  0.5583450000000  0.5183310000000 1.0
C      1  0.5230340000000  0.4886000000000  0.5596380000000 1.0
C      1  0.5162580000000  0.5109610000000  0.4383510000000 1.0
C      1  0.4802030000000  0.4909140000000  0.4406110000000 1.0
C      1  0.4784780000000  0.5186040000000  0.5577720000000 1.0
C      1  0.5273050000000  0.4609130000000  0.4418030000000 1.0
C      1  0.5208470000000  0.5428850000000  0.5655560000000 1.0
C      1  0.4827620000000  0.5526770000000  0.4451560000000 1.0
C      1  0.4811030000000  0.4647090000000  0.5639050000000 1.0
END
