TITL C-27144-3922-57 0.000648001432475735 125000 -309.092474415004 0 0 60 (C1) n - 1
REM
REM in /home/nfs/bkarasulu/CARBON/AIRSS/Generating-Clusters/AIREBO/Higher-Symm/Only-C60
REM
REM
REM
REM
REM
REM ./C.cell (28575a23ae977d3b5fae324c64b13b57)
REM
REM compiler GCC version 9.2.1 20190827 (Red Hat 9.2.1-1)
REM options -cpp -mtune=generic -march=x86-64 -g -O0 -fpre-include=/usr/include/finclude/math-vector-fortran.h
REM seed 712916719 375380986 -1541973093 328119594 1663946415 1141351485 -1044464470 -913002029 -58585450 -815389868 18619481 -135588596 902454159 -919506821 -747531322 -512895953 1353248606 -1639932729 -1853426163 -1654516779 -262679034 -1138818960 1231405615 1474405352 2123843260 481999036 -783453924 -1073398236 -38538181 366874043 968827175 1053456569 -190437177
REM
CELL 1.54180   50.00000   50.00000   50.00000   90.00000   90.00000   90.00000
LATT -1
SFAC C  
C      1  0.4726940000000  0.5693130000000  0.5403490000000 1.0
C      1  0.4863890000000  0.5136710000000  0.5741460000000 1.0
C      1  0.4845940000000  0.4503900000000  0.5590410000000 1.0
C      1  0.4872580000000  0.4238130000000  0.4936390000000 1.0
C      1  0.4873540000000  0.4606180000000  0.4393740000000 1.0
C      1  0.4781160000000  0.5237160000000  0.4266400000000 1.0
C      1  0.4787500000000  0.5696770000000  0.4692960000000 1.0
C      1  0.4862880000000  0.4866670000000  0.5745370000000 1.0
C      1  0.4835000000000  0.4322890000000  0.5390180000000 1.0
C      1  0.4871000000000  0.4339970000000  0.4686790000000 1.0
C      1  0.4846100000000  0.4845850000000  0.4272930000000 1.0
C      1  0.4733220000000  0.5486740000000  0.4362750000000 1.0
C      1  0.4865190000000  0.5684300000000  0.4954210000000 1.0
C      1  0.4832120000000  0.5484000000000  0.5552000000000 1.0
C      1  0.4498380000000  0.5134830000000  0.5348750000000 1.0
C      1  0.4501930000000  0.4842790000000  0.5350650000000 1.0
C      1  0.4559290000000  0.4656880000000  0.5080090000000 1.0
C      1  0.4506800000000  0.4711610000000  0.4770710000000 1.0
C      1  0.4543810000000  0.5010060000000  0.4663260000000 1.0
C      1  0.4468980000000  0.5287400000000  0.4779960000000 1.0
C      1  0.4549020000000  0.5323370000000  0.5078050000000 1.0
C      1  0.5313710000000  0.4724460000000  0.5291660000000 1.0
C      1  0.5298090000000  0.4591130000000  0.4979140000000 1.0
C      1  0.5365340000000  0.4781210000000  0.4703490000000 1.0
C      1  0.5320740000000  0.5122060000000  0.4589850000000 1.0
C      1  0.5406300000000  0.5284320000000  0.4876540000000 1.0
C      1  0.5314170000000  0.5304180000000  0.5204750000000 1.0
C      1  0.5311220000000  0.5038480000000  0.5422530000000 1.0
C      1  0.4872980000000  0.4690320000000  0.5095420000000 1.0
C      1  0.4964250000000  0.4770380000000  0.4816540000000 1.0
C      1  0.4862430000000  0.5003460000000  0.4639700000000 1.0
C      1  0.5016030000000  0.5375330000000  0.4638280000000 1.0
C      1  0.4867420000000  0.5292120000000  0.5088550000000 1.0
C      1  0.4939210000000  0.5127510000000  0.5310050000000 1.0
C      1  0.4943440000000  0.4870710000000  0.5316740000000 1.0
C      1  0.5127390000000  0.4553010000000  0.4619630000000 1.0
C      1  0.5061110000000  0.5079290000000  0.4374340000000 1.0
C      1  0.5013130000000  0.5653120000000  0.4442210000000 1.0
C      1  0.5116690000000  0.5514390000000  0.5024510000000 1.0
C      1  0.5103620000000  0.5279320000000  0.5543840000000 1.0
C      1  0.5113450000000  0.4722130000000  0.5566600000000 1.0
C      1  0.5064770000000  0.4415660000000  0.5153560000000 1.0
C      1  0.5380710000000  0.4365360000000  0.4747100000000 1.0
C      1  0.5591750000000  0.4690020000000  0.4482120000000 1.0
C      1  0.5260730000000  0.5419320000000  0.4435990000000 1.0
C      1  0.5441720000000  0.5591110000000  0.4960600000000 1.0
C      1  0.5363640000000  0.5487420000000  0.5475280000000 1.0
C      1  0.5400140000000  0.4865480000000  0.5688700000000 1.0
C      1  0.5305010000000  0.4409660000000  0.5396960000000 1.0
C      1  0.4549130000000  0.5508260000000  0.4613080000000 1.0
C      1  0.4661840000000  0.5630690000000  0.5138480000000 1.0
C      1  0.4616610000000  0.5257900000000  0.5588850000000 1.0
C      1  0.4617780000000  0.4724210000000  0.5595060000000 1.0
C      1  0.4671340000000  0.4348320000000  0.5139060000000 1.0
C      1  0.4633690000000  0.4518850000000  0.4593240000000 1.0
C      1  0.4593610000000  0.5009270000000  0.4343990000000 1.0
C      1  0.5289360000000  0.4990440000000  0.4960570000000 1.0
C      1  0.5027300000000  0.5163090000000  0.4858100000000 1.0
C      1  0.5606140000000  0.4868780000000  0.4938660000000 1.0
C      1  0.5839810000000  0.4832260000000  0.5029220000000 1.0
END
