TITL C-27143-4867-198 0.000492329746858765 125000 -327.342160008428 0 0 60 (C1) n - 1
REM
REM in /home/nfs/bkarasulu/CARBON/AIRSS/Generating-Clusters/AIREBO/Higher-Symm/Only-C60
REM
REM
REM
REM
REM
REM ./C.cell (28575a23ae977d3b5fae324c64b13b57)
REM
REM compiler GCC version 9.2.1 20190827 (Red Hat 9.2.1-1)
REM options -cpp -mtune=generic -march=x86-64 -g -O0 -fpre-include=/usr/include/finclude/math-vector-fortran.h
REM seed 1113286067 -1008149196 -1794640578 427367071 1342136762 714323176 54230947 81120612 411403960 111834247 -1326399100 1551144593 267118601 -322186351 -1798488884 -1814936665 -1483027418 855721708 -300052861 1168852446 -1295579437 278003953 885516488 968050491 -1624567304 680682851 -1211874642 983222713 1437757013 -1651416896 2035222617 -2015409858 -342140826
REM
CELL 1.54180   50.00000   50.00000   50.00000   90.00000   90.00000   90.00000
LATT -1
SFAC C  
C      1  0.4703750000000  0.4624510000000  0.4569240000000 1.0
C      1  0.5494660000000  0.4948900000000  0.4571290000000 1.0
C      1  0.4804120000000  0.5437800000000  0.4567650000000 1.0
C      1  0.4428060000000  0.5381370000000  0.4904400000000 1.0
C      1  0.4950290000000  0.4296610000000  0.4912520000000 1.0
C      1  0.5642690000000  0.5337170000000  0.4904520000000 1.0
C      1  0.5287890000000  0.4428760000000  0.5202720000000 1.0
C      1  0.5314800000000  0.5464740000000  0.5251830000000 1.0
C      1  0.4382530000000  0.5030800000000  0.5213390000000 1.0
C      1  0.5899520000000  0.5030220000000  0.5248260000000 1.0
C      1  0.4554760000000  0.5751360000000  0.5251690000000 1.0
C      1  0.4561420000000  0.4242740000000  0.5262530000000 1.0
C      1  0.4531490000000  0.5248120000000  0.4345740000000 1.0
C      1  0.5014280000000  0.4470330000000  0.4371540000000 1.0
C      1  0.5452650000000  0.5290090000000  0.4368420000000 1.0
C      1  0.5482020000000  0.5484840000000  0.4643820000000 1.0
C      1  0.4344700000000  0.5150510000000  0.4605900000000 1.0
C      1  0.5154450000000  0.4336380000000  0.4643560000000 1.0
C      1  0.4858880000000  0.5246520000000  0.5798330000000 1.0
C      1  0.4850220000000  0.4766180000000  0.5765540000000 1.0
C      1  0.5270850000000  0.4996050000000  0.5753070000000 1.0
C      1  0.4676210000000  0.4812980000000  0.4847070000000 1.0
C      1  0.5351720000000  0.4793420000000  0.4838060000000 1.0
C      1  0.4997550000000  0.5385220000000  0.4843030000000 1.0
C      1  0.4705360000000  0.4994280000000  0.4222930000000 1.0
C      1  0.5165160000000  0.4742550000000  0.4250480000000 1.0
C      1  0.5148600000000  0.5271970000000  0.4240020000000 1.0
C      1  0.4657650000000  0.5229870000000  0.5193840000000 1.0
C      1  0.4977630000000  0.4572680000000  0.5199630000000 1.0
C      1  0.5401410000000  0.5168130000000  0.5173840000000 1.0
C      1  0.5692450000000  0.5146120000000  0.5132470000000 1.0
C      1  0.4544640000000  0.5513410000000  0.5137580000000 1.0
C      1  0.4770470000000  0.4340840000000  0.5151290000000 1.0
C      1  0.4730490000000  0.4553150000000  0.5877040000000 1.0
C      1  0.5523310000000  0.4978050000000  0.5844610000000 1.0
C      1  0.4740070000000  0.5451740000000  0.5925130000000 1.0
C      1  0.5237200000000  0.5437420000000  0.5547660000000 1.0
C      1  0.4566950000000  0.5026700000000  0.5486460000000 1.0
C      1  0.5187360000000  0.4614470000000  0.5459100000000 1.0
C      1  0.5133520000000  0.5245870000000  0.5722040000000 1.0
C      1  0.4718840000000  0.5013390000000  0.5710210000000 1.0
C      1  0.5118780000000  0.4768080000000  0.5670140000000 1.0
C      1  0.5301380000000  0.4987020000000  0.4325780000000 1.0
C      1  0.4869460000000  0.5269480000000  0.4311320000000 1.0
C      1  0.4837350000000  0.4754750000000  0.4314920000000 1.0
C      1  0.4130290000000  0.4928510000000  0.5263200000000 1.0
C      1  0.5489390000000  0.4251050000000  0.5257560000000 1.0
C      1  0.5324920000000  0.5749330000000  0.5163860000000 1.0
C      1  0.4926600000000  0.4817520000000  0.5034750000000 1.0
C      1  0.5205480000000  0.5002590000000  0.5020440000000 1.0
C      1  0.4898090000000  0.5152560000000  0.5029670000000 1.0
C      1  0.4413730000000  0.4665450000000  0.4702600000000 1.0
C      1  0.5643930000000  0.4703240000000  0.4708640000000 1.0
C      1  0.4948280000000  0.5686090000000  0.4707570000000 1.0
C      1  0.5292470000000  0.5448450000000  0.4912890000000 1.0
C      1  0.4463400000000  0.5041850000000  0.4899440000000 1.0
C      1  0.5243240000000  0.4518230000000  0.4901450000000 1.0
C      1  0.4490400000000  0.5461400000000  0.4604010000000 1.0
C      1  0.4814350000000  0.4331630000000  0.4610230000000 1.0
C      1  0.5677830000000  0.5206540000000  0.4603100000000 1.0
END
