TITL C-27132-7279-110 0.000365701814194156 125000 -333.224554142398 0 0 60 (C1) n - 1
REM
REM in /home/nfs/bkarasulu/CARBON/AIRSS/Generating-Clusters/AIREBO/Higher-Symm/Only-C60
REM
REM
REM
REM
REM
REM ./C.cell (28575a23ae977d3b5fae324c64b13b57)
REM
REM compiler GCC version 9.2.1 20190827 (Red Hat 9.2.1-1)
REM options -cpp -mtune=generic -march=x86-64 -g -O0 -fpre-include=/usr/include/finclude/math-vector-fortran.h
REM seed 1056658267 -404198729 -146175209 -1748224816 688127723 -1729779477 -775405756 1234612301 1417495378 678652571 -1727152420 299851341 1843281145 -1013961469 -624520935 -2115975344 595289236 -619249811 1974255943 -1398330238 1638370313 -1999910093 -1776486940 -723258297 -552860383 451545640 -487163910 -2126009440 -2035433962 -2079090728 1318074163 34832381 1204826116
REM
CELL 1.54180   50.00000   50.00000   50.00000   90.00000   90.00000   90.00000
LATT -1
SFAC C  
C      1  0.5002570000000  0.4713210000000  0.4430420000000 1.0
C      1  0.4940820000000  0.4302140000000  0.5060100000000 1.0
C      1  0.5001970000000  0.4922130000000  0.5606450000000 1.0
C      1  0.4973940000000  0.5592440000000  0.5311160000000 1.0
C      1  0.5022860000000  0.5513630000000  0.4584980000000 1.0
C      1  0.4870780000000  0.4358560000000  0.5320110000000 1.0
C      1  0.4753330000000  0.5112300000000  0.5616520000000 1.0
C      1  0.4746800000000  0.5703270000000  0.5093310000000 1.0
C      1  0.4927270000000  0.5337400000000  0.4394080000000 1.0
C      1  0.4761010000000  0.4534290000000  0.4538730000000 1.0
C      1  0.4426760000000  0.5384750000000  0.5353280000000 1.0
C      1  0.4336220000000  0.5363700000000  0.4799430000000 1.0
C      1  0.4352900000000  0.4861290000000  0.4556170000000 1.0
C      1  0.4440970000000  0.4543230000000  0.4929210000000 1.0
C      1  0.4358920000000  0.4875690000000  0.5383680000000 1.0
C      1  0.4501060000000  0.5477890000000  0.5059490000000 1.0
C      1  0.4389860000000  0.5128250000000  0.4683160000000 1.0
C      1  0.4490070000000  0.4630410000000  0.4641730000000 1.0
C      1  0.4426530000000  0.4704310000000  0.5150150000000 1.0
C      1  0.4480870000000  0.5112150000000  0.5477640000000 1.0
C      1  0.5086400000000  0.5085810000000  0.5251480000000 1.0
C      1  0.5142160000000  0.5224460000000  0.4976040000000 1.0
C      1  0.5170030000000  0.5043620000000  0.4779390000000 1.0
C      1  0.5094950000000  0.4754270000000  0.4867380000000 1.0
C      1  0.5179480000000  0.4805000000000  0.5165620000000 1.0
C      1  0.5441450000000  0.5510850000000  0.4952270000000 1.0
C      1  0.5511210000000  0.5105910000000  0.4582360000000 1.0
C      1  0.5471370000000  0.4646750000000  0.4763080000000 1.0
C      1  0.5508040000000  0.4608390000000  0.5255310000000 1.0
C      1  0.5471340000000  0.5139390000000  0.5340510000000 1.0
C      1  0.5316230000000  0.4818560000000  0.5669490000000 1.0
C      1  0.5263330000000  0.5557700000000  0.5419540000000 1.0
C      1  0.5295340000000  0.5555920000000  0.4645490000000 1.0
C      1  0.5325200000000  0.4711490000000  0.4321950000000 1.0
C      1  0.5211200000000  0.4282780000000  0.4962190000000 1.0
C      1  0.4778270000000  0.4756630000000  0.4897590000000 1.0
C      1  0.4715400000000  0.4826920000000  0.5209330000000 1.0
C      1  0.4777680000000  0.5128970000000  0.5202330000000 1.0
C      1  0.4695510000000  0.5237890000000  0.4919180000000 1.0
C      1  0.4692460000000  0.4996720000000  0.4717950000000 1.0
C      1  0.5257360000000  0.5461730000000  0.5699490000000 1.0
C      1  0.5157530000000  0.5884170000000  0.4944360000000 1.0
C      1  0.5243570000000  0.5107560000000  0.4165030000000 1.0
C      1  0.5204580000000  0.4200770000000  0.4664860000000 1.0
C      1  0.5299860000000  0.4522160000000  0.5719740000000 1.0
C      1  0.5223370000000  0.5076570000000  0.4445120000000 1.0
C      1  0.5187110000000  0.4530160000000  0.4649640000000 1.0
C      1  0.5207320000000  0.4554620000000  0.5393980000000 1.0
C      1  0.5210890000000  0.5180170000000  0.5539240000000 1.0
C      1  0.5108420000000  0.5562140000000  0.4998140000000 1.0
C      1  0.4893030000000  0.5014640000000  0.4493260000000 1.0
C      1  0.4754890000000  0.4429810000000  0.4862240000000 1.0
C      1  0.4891810000000  0.4680230000000  0.5410960000000 1.0
C      1  0.4768340000000  0.5379050000000  0.5406200000000 1.0
C      1  0.4821300000000  0.5520190000000  0.4824590000000 1.0
C      1  0.5427020000000  0.4485290000000  0.5002630000000 1.0
C      1  0.5488750000000  0.4862490000000  0.5433770000000 1.0
C      1  0.5444050000000  0.5413840000000  0.5248090000000 1.0
C      1  0.5547780000000  0.5354400000000  0.4681620000000 1.0
C      1  0.5510450000000  0.4810960000000  0.4528740000000 1.0
END
