TITL C-27133-8107-61 -0.00119372421404189 125000 -344.03397069909 0 0 60 (C1) n - 1
REM
REM in /home/nfs/bkarasulu/CARBON/AIRSS/Generating-Clusters/AIREBO/Higher-Symm/Only-C60
REM
REM
REM
REM
REM
REM ./C.cell (28575a23ae977d3b5fae324c64b13b57)
REM
REM compiler GCC version 9.2.1 20190827 (Red Hat 9.2.1-1)
REM options -cpp -mtune=generic -march=x86-64 -g -O0 -fpre-include=/usr/include/finclude/math-vector-fortran.h
REM seed -75101450 1434240637 -1737928735 -1434930061 2004601436 188343952 -14623004 79156518 -1788561201 539848793 1720481111 -2102248217 -1323545900 -1681585390 36441894 1543445371 1054502611 1000186074 -2961025 -929465295 1581242936 1750112818 -304614666 1915763729 -1280917178 50468965 544430373 -423257086 -624794587 295117318 239956264 1372838007 215826726
REM
CELL 1.54180   50.00000   50.00000   50.00000   90.00000   90.00000   90.00000
LATT -1
SFAC C  
C      1  0.4193690000000  0.5155790000000  0.4516990000000 1.0
C      1  0.4253990000000  0.4487960000000  0.5104270000000 1.0
C      1  0.4248750000000  0.5293210000000  0.5405500000000 1.0
C      1  0.4166920000000  0.4882260000000  0.4496540000000 1.0
C      1  0.4222960000000  0.5472020000000  0.5196200000000 1.0
C      1  0.4208070000000  0.4532770000000  0.5374950000000 1.0
C      1  0.4425140000000  0.5088750000000  0.5383860000000 1.0
C      1  0.4386800000000  0.5238620000000  0.4737910000000 1.0
C      1  0.4441030000000  0.4693310000000  0.4977610000000 1.0
C      1  0.4384370000000  0.4791680000000  0.5327540000000 1.0
C      1  0.4383820000000  0.4871290000000  0.4724110000000 1.0
C      1  0.4367530000000  0.5429950000000  0.4974810000000 1.0
C      1  0.5566690000000  0.5147530000000  0.5232140000000 1.0
C      1  0.5574660000000  0.5146530000000  0.4757550000000 1.0
C      1  0.5565980000000  0.4736550000000  0.4998090000000 1.0
C      1  0.5559280000000  0.4875590000000  0.5233930000000 1.0
C      1  0.5570710000000  0.4870470000000  0.4760980000000 1.0
C      1  0.5574750000000  0.5286170000000  0.4992970000000 1.0
C      1  0.5168390000000  0.5165590000000  0.5259470000000 1.0
C      1  0.5177450000000  0.5151440000000  0.4714510000000 1.0
C      1  0.5170060000000  0.4681490000000  0.5003900000000 1.0
C      1  0.5162400000000  0.4839870000000  0.5267820000000 1.0
C      1  0.5173530000000  0.4845960000000  0.4723980000000 1.0
C      1  0.5176220000000  0.5315800000000  0.4995390000000 1.0
C      1  0.5478680000000  0.4432680000000  0.5483900000000 1.0
C      1  0.5460770000000  0.5715820000000  0.5254560000000 1.0
C      1  0.5477890000000  0.4875670000000  0.4254360000000 1.0
C      1  0.5462870000000  0.5589410000000  0.5473780000000 1.0
C      1  0.5485930000000  0.4303900000000  0.5265340000000 1.0
C      1  0.5477120000000  0.5129090000000  0.4251530000000 1.0
C      1  0.4997520000000  0.5684520000000  0.4747060000000 1.0
C      1  0.4827960000000  0.4383960000000  0.4506170000000 1.0
C      1  0.4814370000000  0.4893630000000  0.5774810000000 1.0
C      1  0.4836760000000  0.4252680000000  0.4725510000000 1.0
C      1  0.4977640000000  0.5519820000000  0.4477290000000 1.0
C      1  0.4809680000000  0.5149780000000  0.5763060000000 1.0
C      1  0.5208870000000  0.4497950000000  0.4537980000000 1.0
C      1  0.5196040000000  0.4867520000000  0.5661930000000 1.0
C      1  0.5315060000000  0.5720850000000  0.4754900000000 1.0
C      1  0.5284740000000  0.5556860000000  0.4502770000000 1.0
C      1  0.5193410000000  0.5160300000000  0.5655130000000 1.0
C      1  0.5218700000000  0.4350060000000  0.4789830000000 1.0
C      1  0.4770230000000  0.4680680000000  0.5010540000000 1.0
C      1  0.4711950000000  0.5165440000000  0.5260480000000 1.0
C      1  0.4692070000000  0.5142780000000  0.4712240000000 1.0
C      1  0.4676030000000  0.5322340000000  0.4999200000000 1.0
C      1  0.4707940000000  0.4830840000000  0.5272520000000 1.0
C      1  0.4719890000000  0.4832090000000  0.4729590000000 1.0
C      1  0.5422110000000  0.5277460000000  0.4514760000000 1.0
C      1  0.5426160000000  0.4457720000000  0.5007850000000 1.0
C      1  0.5411250000000  0.5289610000000  0.5462780000000 1.0
C      1  0.5422040000000  0.4735360000000  0.4519790000000 1.0
C      1  0.5415090000000  0.5557800000000  0.4994710000000 1.0
C      1  0.5412830000000  0.4730950000000  0.5470570000000 1.0
C      1  0.4922840000000  0.5263550000000  0.5476810000000 1.0
C      1  0.4923860000000  0.5249710000000  0.4559590000000 1.0
C      1  0.4945160000000  0.4427010000000  0.4976180000000 1.0
C      1  0.4919820000000  0.4758240000000  0.5496390000000 1.0
C      1  0.4930480000000  0.4693310000000  0.4536480000000 1.0
C      1  0.4923070000000  0.5499980000000  0.4958560000000 1.0
END
