TITL C-27145-253-59 9.68269601920136e-05 125000 -293.620892162503 0 0 60 (C1) n - 1
REM
REM in /home/nfs/bkarasulu/CARBON/AIRSS/Generating-Clusters/AIREBO/Higher-Symm/Only-C60
REM
REM
REM
REM
REM
REM ./C.cell (28575a23ae977d3b5fae324c64b13b57)
REM
REM compiler GCC version 9.2.1 20190827 (Red Hat 9.2.1-1)
REM options -cpp -mtune=generic -march=x86-64 -g -O0 -fpre-include=/usr/include/finclude/math-vector-fortran.h
REM seed 589981465 -1753657040 -1153828853 -2128053603 2033765549 -2086330758 -469166782 542441127 618279157 1209267091 1775980380 1154063583 1132623757 -1537244214 -183420501 -1094028673 848526516 -331428788 1440602609 957701940 1491275846 -323763112 1613627382 -453808443 2024371367 -775752142 -2004004917 2004609303 1711741294 -1188673963 -799916065 824877627 1637886567
REM
CELL 1.54180   50.00000   50.00000   50.00000   90.00000   90.00000   90.00000
LATT -1
SFAC C  
C      1  0.4268550000000  0.5309040000000  0.4809490000000 1.0
C      1  0.4756650000000  0.4224660000000  0.5295440000000 1.0
C      1  0.5249670000000  0.4754030000000  0.4216190000000 1.0
C      1  0.4185300000000  0.4763110000000  0.5218820000000 1.0
C      1  0.5766760000000  0.4714730000000  0.4817520000000 1.0
C      1  0.5770800000000  0.5294880000000  0.5184950000000 1.0
C      1  0.4805060000000  0.5740530000000  0.4700330000000 1.0
C      1  0.5217430000000  0.5800610000000  0.5251700000000 1.0
C      1  0.5206170000000  0.4246530000000  0.4760350000000 1.0
C      1  0.5284280000000  0.5154970000000  0.5723460000000 1.0
C      1  0.4699100000000  0.5172090000000  0.4264950000000 1.0
C      1  0.4701170000000  0.4812030000000  0.5761480000000 1.0
C      1  0.5213680000000  0.4402180000000  0.5169830000000 1.0
C      1  0.5268070000000  0.5282370000000  0.4376170000000 1.0
C      1  0.4439570000000  0.5108680000000  0.5312720000000 1.0
C      1  0.5287690000000  0.5608980000000  0.4907710000000 1.0
C      1  0.4710330000000  0.5574330000000  0.5294380000000 1.0
C      1  0.4757810000000  0.4408110000000  0.4680400000000 1.0
C      1  0.5234980000000  0.4730190000000  0.5542120000000 1.0
C      1  0.4908900000000  0.4699560000000  0.4425110000000 1.0
C      1  0.4811850000000  0.5206210000000  0.5626640000000 1.0
C      1  0.4395630000000  0.4728790000000  0.4706480000000 1.0
C      1  0.5537160000000  0.4901940000000  0.5295640000000 1.0
C      1  0.5588110000000  0.5368370000000  0.4727870000000 1.0
C      1  0.5362770000000  0.4918630000000  0.5026360000000 1.0
C      1  0.5057810000000  0.5388220000000  0.4937410000000 1.0
C      1  0.4836860000000  0.5065840000000  0.5318930000000 1.0
C      1  0.5345850000000  0.5213890000000  0.4889610000000 1.0
C      1  0.4623250000000  0.5059690000000  0.5054410000000 1.0
C      1  0.4604110000000  0.4774630000000  0.4926530000000 1.0
C      1  0.5004630000000  0.4631790000000  0.5142510000000 1.0
C      1  0.4906490000000  0.4669490000000  0.4823660000000 1.0
C      1  0.4933540000000  0.5373850000000  0.5227800000000 1.0
C      1  0.4946190000000  0.4944920000000  0.4628120000000 1.0
C      1  0.5137910000000  0.4912140000000  0.5281350000000 1.0
C      1  0.5230700000000  0.5083080000000  0.4606230000000 1.0
C      1  0.5034980000000  0.4833860000000  0.4070110000000 1.0
C      1  0.4073710000000  0.5153400000000  0.4918240000000 1.0
C      1  0.4883270000000  0.4069910000000  0.5111460000000 1.0
C      1  0.5102570000000  0.5075550000000  0.5906240000000 1.0
C      1  0.4853390000000  0.5036340000000  0.4086210000000 1.0
C      1  0.4907390000000  0.4886800000000  0.5919260000000 1.0
C      1  0.4047070000000  0.4976260000000  0.5123780000000 1.0
C      1  0.5938140000000  0.4903880000000  0.4910250000000 1.0
C      1  0.5935010000000  0.5096120000000  0.5103040000000 1.0
C      1  0.4926200000000  0.5924130000000  0.4860940000000 1.0
C      1  0.5126940000000  0.5949170000000  0.5043360000000 1.0
C      1  0.5100940000000  0.4084050000000  0.4948900000000 1.0
C      1  0.5461150000000  0.4728600000000  0.4812730000000 1.0
C      1  0.4832230000000  0.5436880000000  0.4740870000000 1.0
C      1  0.4670380000000  0.4804690000000  0.5459270000000 1.0
C      1  0.5468010000000  0.5330980000000  0.5181900000000 1.0
C      1  0.4570120000000  0.5258470000000  0.4832020000000 1.0
C      1  0.4481550000000  0.4689720000000  0.5212050000000 1.0
C      1  0.4758780000000  0.4529730000000  0.5302160000000 1.0
C      1  0.5204650000000  0.4548420000000  0.4713900000000 1.0
C      1  0.5219080000000  0.5501070000000  0.5309530000000 1.0
C      1  0.4745740000000  0.5167520000000  0.4568680000000 1.0
C      1  0.5284550000000  0.5185970000000  0.5419710000000 1.0
C      1  0.5319340000000  0.4785420000000  0.4512710000000 1.0
END
