TITL C-27144-3922-58 0.000364881831725328 125000 -336.049813970963 0 0 60 (C1) n - 1
REM
REM in /home/nfs/bkarasulu/CARBON/AIRSS/Generating-Clusters/AIREBO/Higher-Symm/Only-C60
REM
REM
REM
REM
REM
REM ./C.cell (28575a23ae977d3b5fae324c64b13b57)
REM
REM compiler GCC version 9.2.1 20190827 (Red Hat 9.2.1-1)
REM options -cpp -mtune=generic -march=x86-64 -g -O0 -fpre-include=/usr/include/finclude/math-vector-fortran.h
REM seed -1421157362 549677789 2080765560 86463510 -931989433 -902060522 572113902 1146702829 -1317494186 1995465163 1876529448 -1314183734 -1840481526 -332133845 772079614 -633648084 -253745289 -773203900 -2037378335 324766758 973286253 -152876863 2068687436 109029767 1075872162 1909852786 859512469 -312316834 335677721 -1890845074 -547966321 816206131 1730148587
REM
CELL 1.54180   50.00000   50.00000   50.00000   90.00000   90.00000   90.00000
LATT -1
SFAC C  
C      1  0.5649580000000  0.5150610000000  0.4821040000000 1.0
C      1  0.4304520000000  0.4838660000000  0.4755940000000 1.0
C      1  0.5613220000000  0.4870440000000  0.5133980000000 1.0
C      1  0.4356240000000  0.5106980000000  0.5221340000000 1.0
C      1  0.4282590000000  0.4801970000000  0.5093300000000 1.0
C      1  0.5834870000000  0.5130750000000  0.5106910000000 1.0
C      1  0.4147190000000  0.5067360000000  0.4955590000000 1.0
C      1  0.5841020000000  0.4876190000000  0.4881610000000 1.0
C      1  0.4548430000000  0.5172870000000  0.5495640000000 1.0
C      1  0.5405810000000  0.4846730000000  0.5402970000000 1.0
C      1  0.4455680000000  0.4907580000000  0.4490700000000 1.0
C      1  0.5479680000000  0.5198790000000  0.4527590000000 1.0
C      1  0.4856290000000  0.4825480000000  0.5880190000000 1.0
C      1  0.5500250000000  0.5189300000000  0.5776710000000 1.0
C      1  0.4741490000000  0.5293060000000  0.4303970000000 1.0
C      1  0.5369080000000  0.4662320000000  0.4481950000000 1.0
C      1  0.5017200000000  0.5397570000000  0.4367560000000 1.0
C      1  0.4837010000000  0.4629380000000  0.4528500000000 1.0
C      1  0.4961250000000  0.4680970000000  0.5563420000000 1.0
C      1  0.5020800000000  0.5307100000000  0.5581670000000 1.0
C      1  0.5371460000000  0.4655090000000  0.5124130000000 1.0
C      1  0.4618920000000  0.5279510000000  0.5185750000000 1.0
C      1  0.5373530000000  0.5310620000000  0.4830180000000 1.0
C      1  0.4560610000000  0.4655330000000  0.4851090000000 1.0
C      1  0.4542930000000  0.4495130000000  0.5142150000000 1.0
C      1  0.5387910000000  0.5631520000000  0.5301110000000 1.0
C      1  0.4592190000000  0.5589340000000  0.4645850000000 1.0
C      1  0.5415950000000  0.4279630000000  0.4769070000000 1.0
C      1  0.4802960000000  0.5117930000000  0.4758220000000 1.0
C      1  0.5261560000000  0.4928430000000  0.4856870000000 1.0
C      1  0.4747090000000  0.4936120000000  0.5342860000000 1.0
C      1  0.5289940000000  0.5308120000000  0.5289870000000 1.0
C      1  0.5070310000000  0.4718390000000  0.4986670000000 1.0
C      1  0.4861270000000  0.5110740000000  0.5074340000000 1.0
C      1  0.5170150000000  0.5169850000000  0.5041800000000 1.0
C      1  0.4840670000000  0.4799080000000  0.4796960000000 1.0
C      1  0.5308760000000  0.5126380000000  0.5546500000000 1.0
C      1  0.4927620000000  0.5000740000000  0.5619330000000 1.0
C      1  0.5377130000000  0.4911460000000  0.4608770000000 1.0
C      1  0.4616470000000  0.5137870000000  0.4504610000000 1.0
C      1  0.4637700000000  0.5562690000000  0.5115390000000 1.0
C      1  0.5193660000000  0.4310540000000  0.5221750000000 1.0
C      1  0.4810080000000  0.4205000000000  0.4708190000000 1.0
C      1  0.5304320000000  0.5598370000000  0.4850190000000 1.0
C      1  0.4716190000000  0.5332520000000  0.5675390000000 1.0
C      1  0.5245160000000  0.4624290000000  0.5530850000000 1.0
C      1  0.4601770000000  0.4688980000000  0.4382170000000 1.0
C      1  0.5280620000000  0.5356420000000  0.4342470000000 1.0
C      1  0.4744490000000  0.4604620000000  0.5331590000000 1.0
C      1  0.5072500000000  0.5556990000000  0.5356980000000 1.0
C      1  0.4868540000000  0.5432880000000  0.4655970000000 1.0
C      1  0.5263690000000  0.4411130000000  0.4567840000000 1.0
C      1  0.4622200000000  0.4324050000000  0.4879580000000 1.0
C      1  0.5444790000000  0.5734460000000  0.5054910000000 1.0
C      1  0.4487140000000  0.5651120000000  0.4893860000000 1.0
C      1  0.5426850000000  0.4347680000000  0.5041050000000 1.0
C      1  0.4978660000000  0.4384910000000  0.4561840000000 1.0
C      1  0.5026110000000  0.5613860000000  0.4860300000000 1.0
C      1  0.4905240000000  0.5637700000000  0.5114530000000 1.0
C      1  0.5010690000000  0.4506370000000  0.5208460000000 1.0
END
