TITL C-27139-4854-73 0.00344382347813622 125000 -298.103117843259 0 0 60 (C1) n - 1
REM
REM in /home/nfs/bkarasulu/CARBON/AIRSS/Generating-Clusters/AIREBO/Higher-Symm/Only-C60
REM
REM
REM
REM
REM
REM ./C.cell (28575a23ae977d3b5fae324c64b13b57)
REM
REM compiler GCC version 9.2.1 20190827 (Red Hat 9.2.1-1)
REM options -cpp -mtune=generic -march=x86-64 -g -O0 -fpre-include=/usr/include/finclude/math-vector-fortran.h
REM seed -1709239324 1221910020 545877096 -705595296 -960448360 1519422946 -1085435106 1252183622 1238821879 -1545476079 -1530228207 1783922916 -69490546 1832102142 -390930493 1798298886 1335792565 539650689 720622479 -1540579529 1380293704 906486877 -1244264769 1224159458 -937595421 1945841437 -1506935536 -372239969 -1045890674 -1897858972 -1521136458 -679747440 1771319667
REM
CELL 1.54180   50.00000   50.00000   50.00000   90.00000   90.00000   90.00000
LATT -1
SFAC C  
C      1  0.5023220000000  0.5282380000000  0.4299960000000 1.0
C      1  0.4738620000000  0.5109460000000  0.4299740000000 1.0
C      1  0.4815040000000  0.4785330000000  0.4299610000000 1.0
C      1  0.5146940000000  0.4757980000000  0.4299520000000 1.0
C      1  0.5275630000000  0.5065120000000  0.4299830000000 1.0
C      1  0.5149190000000  0.5248440000000  0.5189040000000 1.0
C      1  0.4810130000000  0.5218490000000  0.5188390000000 1.0
C      1  0.4733780000000  0.4886780000000  0.5188300000000 1.0
C      1  0.5025680000000  0.4711590000000  0.5188760000000 1.0
C      1  0.5282410000000  0.4935160000000  0.5189080000000 1.0
C      1  0.4607480000000  0.4344850000000  0.5161720000000 1.0
C      1  0.5501640000000  0.4424330000000  0.5162200000000 1.0
C      1  0.5702900000000  0.5299400000000  0.5162560000000 1.0
C      1  0.4932630000000  0.5760870000000  0.5162210000000 1.0
C      1  0.4255800000000  0.5171080000000  0.5161630000000 1.0
C      1  0.4771180000000  0.4284140000000  0.5453470000000 1.0
C      1  0.5610430000000  0.4561480000000  0.5453680000000 1.0
C      1  0.5605690000000  0.5445120000000  0.5453970000000 1.0
C      1  0.4764550000000  0.5714190000000  0.5454050000000 1.0
C      1  0.4248100000000  0.4997360000000  0.5453810000000 1.0
C      1  0.4901220000000  0.5431390000000  0.4939190000000 1.0
C      1  0.4559400000000  0.5038790000000  0.4938870000000 1.0
C      1  0.4825910000000  0.4592950000000  0.4938060000000 1.0
C      1  0.5333370000000  0.4708650000000  0.4938250000000 1.0
C      1  0.5380710000000  0.5226690000000  0.4938540000000 1.0
C      1  0.4959460000000  0.4494800000000  0.4402290000000 1.0
C      1  0.5467860000000  0.4805270000000  0.4402420000000 1.0
C      1  0.5329560000000  0.5384940000000  0.4402910000000 1.0
C      1  0.4735670000000  0.5432370000000  0.4403050000000 1.0
C      1  0.4506860000000  0.4882450000000  0.4402530000000 1.0
C      1  0.4610360000000  0.4667070000000  0.4805120000000 1.0
C      1  0.5195640000000  0.4527140000000  0.4805280000000 1.0
C      1  0.5510780000000  0.5039670000000  0.4805520000000 1.0
C      1  0.5119520000000  0.5496680000000  0.4806120000000 1.0
C      1  0.4563990000000  0.5266690000000  0.4805790000000 1.0
C      1  0.5136980000000  0.4799240000000  0.5562090000000 1.0
C      1  0.5233320000000  0.5068440000000  0.5562280000000 1.0
C      1  0.5007010000000  0.5243210000000  0.5562150000000 1.0
C      1  0.4770920000000  0.5082020000000  0.5561630000000 1.0
C      1  0.4851200000000  0.4807650000000  0.5561670000000 1.0
C      1  0.4690330000000  0.4604580000000  0.5373510000000 1.0
C      1  0.5280530000000  0.4583370000000  0.5374330000000 1.0
C      1  0.5483130000000  0.5138100000000  0.5374430000000 1.0
C      1  0.5017970000000  0.5502060000000  0.5374150000000 1.0
C      1  0.4528330000000  0.5172400000000  0.5373500000000 1.0
C      1  0.4640060000000  0.5512480000000  0.5225610000000 1.0
C      1  0.4401580000000  0.4816160000000  0.5225770000000 1.0
C      1  0.4990160000000  0.4375250000000  0.5225000000000 1.0
C      1  0.5591450000000  0.4797640000000  0.5224960000000 1.0
C      1  0.5375410000000  0.5499900000000  0.5225060000000 1.0
C      1  0.5589820000000  0.4810230000000  0.4652500000000 1.0
C      1  0.5362170000000  0.5502260000000  0.4653180000000 1.0
C      1  0.4633970000000  0.5499320000000  0.4653330000000 1.0
C      1  0.4411430000000  0.4806490000000  0.4652670000000 1.0
C      1  0.5002130000000  0.4380560000000  0.4652450000000 1.0
C      1  0.4691040000000  0.5681370000000  0.4934920000000 1.0
C      1  0.4256570000000  0.4916230000000  0.4934930000000 1.0
C      1  0.4849920000000  0.4267140000000  0.4934700000000 1.0
C      1  0.5650490000000  0.4630460000000  0.4934800000000 1.0
C      1  0.5552710000000  0.5504320000000  0.4934930000000 1.0
END
