TITL C-27139-4854-25 0.00127504818259216 125000 -322.108530365387 0 0 60 (C1) n - 1
REM
REM in /home/nfs/bkarasulu/CARBON/AIRSS/Generating-Clusters/AIREBO/Higher-Symm/Only-C60
REM
REM
REM
REM
REM
REM ./C.cell (28575a23ae977d3b5fae324c64b13b57)
REM
REM compiler GCC version 9.2.1 20190827 (Red Hat 9.2.1-1)
REM options -cpp -mtune=generic -march=x86-64 -g -O0 -fpre-include=/usr/include/finclude/math-vector-fortran.h
REM seed 1283275140 2061963690 602781144 2126792195 -841303494 -1167687319 -265576528 642881546 1549691767 1336270229 -1831632355 -1426884362 -70577301 1752756269 -694274770 -1967611495 1961603211 1094206936 -1352725434 695181867 160191558 960017747 1333510808 1299984568 -1256335950 -741139838 -300132740 -1648772778 1079130379 538999060 -1144086710 295248137 302610938
REM
CELL 1.54180   50.00000   50.00000   50.00000   90.00000   90.00000   90.00000
LATT -1
SFAC C  
C      1  0.4383710000000  0.5262000000000  0.5231740000000 1.0
C      1  0.5289690000000  0.4490830000000  0.5256000000000 1.0
C      1  0.5473230000000  0.5068850000000  0.4492380000000 1.0
C      1  0.5575020000000  0.5385570000000  0.4913840000000 1.0
C      1  0.4370930000000  0.4765860000000  0.4758670000000 1.0
C      1  0.5710410000000  0.4739870000000  0.5153750000000 1.0
C      1  0.4873390000000  0.4499340000000  0.4675840000000 1.0
C      1  0.5224810000000  0.5568670000000  0.4658870000000 1.0
C      1  0.4905700000000  0.5494880000000  0.5329470000000 1.0
C      1  0.4728590000000  0.5214160000000  0.5547910000000 1.0
C      1  0.5465920000000  0.4921540000000  0.5504830000000 1.0
C      1  0.4731980000000  0.4798460000000  0.4455210000000 1.0
C      1  0.4439480000000  0.4935590000000  0.5154390000000 1.0
C      1  0.5114230000000  0.4686320000000  0.5077220000000 1.0
C      1  0.4953490000000  0.5216630000000  0.4704700000000 1.0
C      1  0.5456420000000  0.5007020000000  0.4809560000000 1.0
C      1  0.4452630000000  0.5082680000000  0.4847040000000 1.0
C      1  0.5454800000000  0.4959620000000  0.5108750000000 1.0
C      1  0.4826680000000  0.4574600000000  0.4982580000000 1.0
C      1  0.5171670000000  0.5360310000000  0.4922400000000 1.0
C      1  0.4839440000000  0.5426910000000  0.5023850000000 1.0
C      1  0.4969830000000  0.5089760000000  0.5350490000000 1.0
C      1  0.4917340000000  0.4792620000000  0.5302100000000 1.0
C      1  0.4981940000000  0.4912240000000  0.4655660000000 1.0
C      1  0.5104010000000  0.4656530000000  0.4467660000000 1.0
C      1  0.4158510000000  0.5226270000000  0.4754880000000 1.0
C      1  0.4784320000000  0.4351890000000  0.5231900000000 1.0
C      1  0.4986280000000  0.4792390000000  0.5615650000000 1.0
C      1  0.5109080000000  0.5330090000000  0.5546710000000 1.0
C      1  0.5017220000000  0.5204910000000  0.4387670000000 1.0
C      1  0.5643950000000  0.5115530000000  0.5344530000000 1.0
C      1  0.4130910000000  0.4815660000000  0.5231930000000 1.0
C      1  0.5749000000000  0.4940460000000  0.4649950000000 1.0
C      1  0.5314480000000  0.4278160000000  0.4721160000000 1.0
C      1  0.4744580000000  0.5672750000000  0.4812880000000 1.0
C      1  0.5391270000000  0.5571800000000  0.5073400000000 1.0
C      1  0.5065180000000  0.4294830000000  0.5137190000000 1.0
C      1  0.5234290000000  0.4951250000000  0.4348460000000 1.0
C      1  0.4135580000000  0.5179160000000  0.5067790000000 1.0
C      1  0.5060540000000  0.4273140000000  0.4849550000000 1.0
C      1  0.5035520000000  0.5729240000000  0.4852890000000 1.0
C      1  0.5113970000000  0.5689470000000  0.5141880000000 1.0
C      1  0.4885620000000  0.5062750000000  0.5740900000000 1.0
C      1  0.5222370000000  0.5027140000000  0.5653130000000 1.0
C      1  0.4902650000000  0.4936040000000  0.4264590000000 1.0
C      1  0.5755300000000  0.5218050000000  0.5063430000000 1.0
C      1  0.4126450000000  0.4864270000000  0.4918570000000 1.0
C      1  0.5824130000000  0.4950510000000  0.4951320000000 1.0
C      1  0.5461200000000  0.5371370000000  0.4647140000000 1.0
C      1  0.4580350000000  0.5395640000000  0.5371430000000 1.0
C      1  0.5494720000000  0.4655880000000  0.5364970000000 1.0
C      1  0.4562290000000  0.4626000000000  0.4620250000000 1.0
C      1  0.4624970000000  0.4715560000000  0.5217510000000 1.0
C      1  0.5236490000000  0.4784990000000  0.4819740000000 1.0
C      1  0.4654830000000  0.5286280000000  0.4778510000000 1.0
C      1  0.5249390000000  0.5185330000000  0.5203390000000 1.0
C      1  0.4537850000000  0.5572200000000  0.4634310000000 1.0
C      1  0.4539870000000  0.4423120000000  0.5374560000000 1.0
C      1  0.5357310000000  0.4530700000000  0.4630290000000 1.0
C      1  0.5387600000000  0.5397460000000  0.5430350000000 1.0
END
