TITL C-27140-5627-185 -0.00244226755530974 125000 -354.55728500202 0 0 60 (C1) n - 1
REM
REM in /home/nfs/bkarasulu/CARBON/AIRSS/Generating-Clusters/AIREBO/Higher-Symm/Only-C60
REM
REM
REM
REM
REM
REM ./C.cell (28575a23ae977d3b5fae324c64b13b57)
REM
REM compiler GCC version 9.2.1 20190827 (Red Hat 9.2.1-1)
REM options -cpp -mtune=generic -march=x86-64 -g -O0 -fpre-include=/usr/include/finclude/math-vector-fortran.h
REM seed -1161798853 557825661 1216432932 -827570011 2131772500 -1860071978 629005453 1331006345 -434465847 -577652400 630451198 492763043 1374403455 -1145763963 499583020 1673998777 -681380565 1426264693 1027505987 -1942024131 -1297586524 1455456982 -1088421264 -432287853 1728919010 -649235442 -795315647 -1723676842 666771537 1486656892 -608601889 193187804 1033864568
REM
CELL 1.54180   50.00000   50.00000   50.00000   90.00000   90.00000   90.00000
LATT -1
SFAC C  
C      1  0.4488390000000  0.5136550000000  0.4722520000000 1.0
C      1  0.4556320000000  0.4813440000000  0.4640870000000 1.0
C      1  0.4493210000000  0.4743330000000  0.5251010000000 1.0
C      1  0.4520500000000  0.5079300000000  0.5296980000000 1.0
C      1  0.4566340000000  0.5263060000000  0.5011750000000 1.0
C      1  0.4226790000000  0.4699400000000  0.4833180000000 1.0
C      1  0.4223610000000  0.4694890000000  0.5127070000000 1.0
C      1  0.4017880000000  0.4903680000000  0.5170820000000 1.0
C      1  0.4011740000000  0.5077540000000  0.4942690000000 1.0
C      1  0.4209470000000  0.4982210000000  0.4744060000000 1.0
C      1  0.4670720000000  0.5211310000000  0.5549090000000 1.0
C      1  0.4698920000000  0.5564120000000  0.5003900000000 1.0
C      1  0.4627180000000  0.5217530000000  0.4422900000000 1.0
C      1  0.4601390000000  0.4550470000000  0.4564150000000 1.0
C      1  0.4607560000000  0.4539040000000  0.5457020000000 1.0
C      1  0.5276670000000  0.5503380000000  0.4696400000000 1.0
C      1  0.5206980000000  0.4888610000000  0.4459090000000 1.0
C      1  0.5150610000000  0.4444360000000  0.4944420000000 1.0
C      1  0.5220650000000  0.4791490000000  0.5534450000000 1.0
C      1  0.5249070000000  0.5464910000000  0.5395530000000 1.0
C      1  0.4930880000000  0.4830590000000  0.4506370000000 1.0
C      1  0.4867190000000  0.4467800000000  0.4984970000000 1.0
C      1  0.4946470000000  0.4873270000000  0.5561600000000 1.0
C      1  0.4956560000000  0.5447270000000  0.5370380000000 1.0
C      1  0.4992110000000  0.5435020000000  0.4746520000000 1.0
C      1  0.5760040000000  0.4998250000000  0.5222560000000 1.0
C      1  0.5768160000000  0.5227210000000  0.5046980000000 1.0
C      1  0.5771980000000  0.5129330000000  0.4774920000000 1.0
C      1  0.5759190000000  0.4841630000000  0.4785170000000 1.0
C      1  0.5741110000000  0.4761160000000  0.5060670000000 1.0
C      1  0.4827710000000  0.4938440000000  0.4795890000000 1.0
C      1  0.4767510000000  0.4743450000000  0.5048970000000 1.0
C      1  0.4833000000000  0.4945320000000  0.5299470000000 1.0
C      1  0.4861180000000  0.5244850000000  0.5180260000000 1.0
C      1  0.4938260000000  0.5200670000000  0.4883780000000 1.0
C      1  0.4781020000000  0.4662050000000  0.5692830000000 1.0
C      1  0.4780970000000  0.5509460000000  0.5627780000000 1.0
C      1  0.4782160000000  0.5674140000000  0.4705790000000 1.0
C      1  0.4764560000000  0.4960490000000  0.4299990000000 1.0
C      1  0.4706170000000  0.4331210000000  0.4774940000000 1.0
C      1  0.5315840000000  0.4468580000000  0.5171180000000 1.0
C      1  0.5390030000000  0.5013450000000  0.5573400000000 1.0
C      1  0.5392880000000  0.5566530000000  0.5177470000000 1.0
C      1  0.5398390000000  0.5342350000000  0.4504640000000 1.0
C      1  0.5357760000000  0.4663710000000  0.4537840000000 1.0
C      1  0.4968570000000  0.5239600000000  0.5711040000000 1.0
C      1  0.4969650000000  0.5767800000000  0.4965180000000 1.0
C      1  0.4934090000000  0.5231990000000  0.4270200000000 1.0
C      1  0.4915330000000  0.4432540000000  0.4538950000000 1.0
C      1  0.4924760000000  0.4428000000000  0.5511330000000 1.0
C      1  0.5191450000000  0.4521320000000  0.5424080000000 1.0
C      1  0.5244910000000  0.5260740000000  0.5613770000000 1.0
C      1  0.5244290000000  0.5666350000000  0.4952830000000 1.0
C      1  0.5216390000000  0.5166960000000  0.4364840000000 1.0
C      1  0.5187180000000  0.4460390000000  0.4653820000000 1.0
C      1  0.5653250000000  0.5005380000000  0.5480030000000 1.0
C      1  0.5652810000000  0.5468160000000  0.5131280000000 1.0
C      1  0.5666320000000  0.5272100000000  0.4557230000000 1.0
C      1  0.5630900000000  0.4692290000000  0.4587390000000 1.0
C      1  0.5585000000000  0.4541540000000  0.5135730000000 1.0
END
