TITL C-27134-4977-46 0.000358928651822896 125000 -344.388615114618 0 0 60 (C1) n - 1
REM
REM in /home/nfs/bkarasulu/CARBON/AIRSS/Generating-Clusters/AIREBO/Higher-Symm/Only-C60
REM
REM
REM
REM
REM
REM ./C.cell (28575a23ae977d3b5fae324c64b13b57)
REM
REM compiler GCC version 9.2.1 20190827 (Red Hat 9.2.1-1)
REM options -cpp -mtune=generic -march=x86-64 -g -O0 -fpre-include=/usr/include/finclude/math-vector-fortran.h
REM seed -1138672267 905713748 2028561870 -2112424441 577739214 -974238832 -127748830 -1185617968 1290659361 -389326667 1172391247 679974449 776481703 591861736 1137411512 -978533104 -284318934 1890596908 80989587 -856847224 2144476063 -696107321 -1558175991 -1296651763 -1198264434 2006167758 236638432 1267024980 1393177942 -1284981872 -1959539715 390867836 -1423236919
REM
CELL 1.54180   50.00000   50.00000   50.00000   90.00000   90.00000   90.00000
LATT -1
SFAC C  
C      1  0.5608120000000  0.5229540000000  0.5097830000000 1.0
C      1  0.5388640000000  0.5308640000000  0.5332940000000 1.0
C      1  0.5176390000000  0.5197310000000  0.5559680000000 1.0
C      1  0.4878030000000  0.5322180000000  0.5560430000000 1.0
C      1  0.4591780000000  0.5194680000000  0.5457590000000 1.0
C      1  0.4449280000000  0.5340970000000  0.5193620000000 1.0
C      1  0.4380660000000  0.5231950000000  0.4893060000000 1.0
C      1  0.4579560000000  0.5327970000000  0.4642220000000 1.0
C      1  0.4807500000000  0.5208260000000  0.4425120000000 1.0
C      1  0.5107320000000  0.5331150000000  0.4435900000000 1.0
C      1  0.5386080000000  0.5191340000000  0.4535770000000 1.0
C      1  0.5535600000000  0.5322810000000  0.4799200000000 1.0
C      1  0.5561920000000  0.4709270000000  0.4779170000000 1.0
C      1  0.5642250000000  0.4774460000000  0.5081880000000 1.0
C      1  0.5430130000000  0.4661790000000  0.5300940000000 1.0
C      1  0.5172970000000  0.4689360000000  0.5522690000000 1.0
C      1  0.4869670000000  0.4790470000000  0.5563170000000 1.0
C      1  0.4595700000000  0.4673050000000  0.5409770000000 1.0
C      1  0.4388820000000  0.4820590000000  0.5199370000000 1.0
C      1  0.4363440000000  0.4754640000000  0.4919690000000 1.0
C      1  0.4583070000000  0.4719940000000  0.4689200000000 1.0
C      1  0.4816160000000  0.4698280000000  0.4441890000000 1.0
C      1  0.5109530000000  0.4810860000000  0.4366810000000 1.0
C      1  0.5360340000000  0.4664190000000  0.4507980000000 1.0
C      1  0.4523640000000  0.5628740000000  0.5174460000000 1.0
C      1  0.4523240000000  0.5728760000000  0.4913590000000 1.0
C      1  0.4628810000000  0.5622440000000  0.4677750000000 1.0
C      1  0.4840590000000  0.5724030000000  0.4527160000000 1.0
C      1  0.5098220000000  0.5621340000000  0.4496020000000 1.0
C      1  0.5332270000000  0.5724370000000  0.4606810000000 1.0
C      1  0.5472210000000  0.5616360000000  0.4822330000000 1.0
C      1  0.5474540000000  0.5714760000000  0.5085060000000 1.0
C      1  0.5366010000000  0.5608140000000  0.5320670000000 1.0
C      1  0.5157340000000  0.5711300000000  0.5475870000000 1.0
C      1  0.4896080000000  0.5614680000000  0.5505010000000 1.0
C      1  0.4667110000000  0.5727060000000  0.5392230000000 1.0
C      1  0.4272730000000  0.5067500000000  0.5253090000000 1.0
C      1  0.4216690000000  0.5009990000000  0.4862400000000 1.0
C      1  0.4499900000000  0.5010630000000  0.4583350000000 1.0
C      1  0.4750210000000  0.4973050000000  0.4278110000000 1.0
C      1  0.5135980000000  0.5062890000000  0.4246380000000 1.0
C      1  0.5480750000000  0.4956490000000  0.4412900000000 1.0
C      1  0.5671450000000  0.5017620000000  0.4754900000000 1.0
C      1  0.5772390000000  0.5011460000000  0.5139470000000 1.0
C      1  0.5442040000000  0.4979700000000  0.5358900000000 1.0
C      1  0.5240230000000  0.4958530000000  0.5699040000000 1.0
C      1  0.4849250000000  0.5028760000000  0.5714740000000 1.0
C      1  0.4491870000000  0.4950620000000  0.5562570000000 1.0
C      1  0.5513880000000  0.4258170000000  0.5018700000000 1.0
C      1  0.5432690000000  0.4342830000000  0.5270360000000 1.0
C      1  0.5216560000000  0.4374110000000  0.5472780000000 1.0
C      1  0.5018430000000  0.4203490000000  0.5564090000000 1.0
C      1  0.4753210000000  0.4213120000000  0.5498180000000 1.0
C      1  0.4620600000000  0.4388000000000  0.5327360000000 1.0
C      1  0.4583010000000  0.4340960000000  0.5056210000000 1.0
C      1  0.4637370000000  0.4409640000000  0.4798050000000 1.0
C      1  0.4816980000000  0.4417680000000  0.4571390000000 1.0
C      1  0.5040030000000  0.4261400000000  0.4511570000000 1.0
C      1  0.5299100000000  0.4349790000000  0.4554040000000 1.0
C      1  0.5481610000000  0.4397920000000  0.4778520000000 1.0
END
