TITL C-27145-253-168 0.0359880782968332 125000 -318.859973419134 0 0 60 (C1) n - 1
REM
REM in /home/nfs/bkarasulu/CARBON/AIRSS/Generating-Clusters/AIREBO/Higher-Symm/Only-C60
REM
REM
REM
REM
REM
REM ./C.cell (28575a23ae977d3b5fae324c64b13b57)
REM
REM compiler GCC version 9.2.1 20190827 (Red Hat 9.2.1-1)
REM options -cpp -mtune=generic -march=x86-64 -g -O0 -fpre-include=/usr/include/finclude/math-vector-fortran.h
REM seed 559964018 2039900546 -1840177503 1292725392 1512189075 977857583 -589090899 -1399798929 533015420 397689102 -2011299067 -901973745 950660327 -1547146250 1942985662 -324587029 1269400915 -1983247430 1882943490 943151675 -1988439534 -235995025 -1103745339 330185812 -1124600484 957949393 1973840375 -758615231 -1428937260 1052145921 -469959202 -55887085 1158859398
REM
CELL 1.54180   50.00000   50.00000   50.00000   90.00000   90.00000   90.00000
LATT -1
SFAC C  
C      1  0.5150340000000  0.4794760000000  0.4079320000000 1.0
C      1  0.4290580000000  0.4633250000000  0.5199850000000 1.0
C      1  0.5630310000000  0.4762770000000  0.5496100000000 1.0
C      1  0.5027280000000  0.5326210000000  0.5863420000000 1.0
C      1  0.4259460000000  0.5359410000000  0.4828690000000 1.0
C      1  0.5679520000000  0.5210690000000  0.4516660000000 1.0
C      1  0.4730680000000  0.5327940000000  0.5817830000000 1.0
C      1  0.5781240000000  0.5261180000000  0.4765380000000 1.0
C      1  0.4341520000000  0.5352790000000  0.4567880000000 1.0
C      1  0.4886740000000  0.4766950000000  0.4149720000000 1.0
C      1  0.5742910000000  0.4700340000000  0.5250070000000 1.0
C      1  0.4363760000000  0.4684740000000  0.5458400000000 1.0
C      1  0.5404040000000  0.5078400000000  0.4485450000000 1.0
C      1  0.4387070000000  0.5253540000000  0.5053060000000 1.0
C      1  0.5165670000000  0.5130440000000  0.5696740000000 1.0
C      1  0.5377250000000  0.4951620000000  0.5540070000000 1.0
C      1  0.4406240000000  0.4712730000000  0.4958490000000 1.0
C      1  0.5348490000000  0.4855680000000  0.4244300000000 1.0
C      1  0.4594150000000  0.4884980000000  0.5505540000000 1.0
C      1  0.5613430000000  0.4726540000000  0.4999440000000 1.0
C      1  0.4767620000000  0.4892660000000  0.4424380000000 1.0
C      1  0.4557230000000  0.5142990000000  0.4500650000000 1.0
C      1  0.5630430000000  0.5256070000000  0.4998470000000 1.0
C      1  0.4842330000000  0.5101660000000  0.5589880000000 1.0
C      1  0.5190510000000  0.5639660000000  0.5189380000000 1.0
C      1  0.5175160000000  0.5587190000000  0.4684070000000 1.0
C      1  0.4780750000000  0.5470170000000  0.4980440000000 1.0
C      1  0.5149440000000  0.4430250000000  0.4825240000000 1.0
C      1  0.5180800000000  0.4399390000000  0.5297930000000 1.0
C      1  0.4759140000000  0.4477050000000  0.5073350000000 1.0
C      1  0.4893530000000  0.4315080000000  0.4880720000000 1.0
C      1  0.4907050000000  0.4464000000000  0.5335140000000 1.0
C      1  0.5279360000000  0.4518960000000  0.5060010000000 1.0
C      1  0.4898150000000  0.5573650000000  0.5227550000000 1.0
C      1  0.4884770000000  0.5532490000000  0.4708870000000 1.0
C      1  0.5313320000000  0.5522880000000  0.4936810000000 1.0
C      1  0.5175940000000  0.4797520000000  0.5326420000000 1.0
C      1  0.5127120000000  0.4643650000000  0.4648680000000 1.0
C      1  0.4730020000000  0.4803840000000  0.4983820000000 1.0
C      1  0.5160290000000  0.5249160000000  0.4649940000000 1.0
C      1  0.5189050000000  0.5304470000000  0.5246430000000 1.0
C      1  0.4696490000000  0.5141790000000  0.5006630000000 1.0
C      1  0.4822570000000  0.5198730000000  0.4690600000000 1.0
C      1  0.4871150000000  0.5241480000000  0.5295420000000 1.0
C      1  0.5302460000000  0.5179550000000  0.4951190000000 1.0
C      1  0.4836230000000  0.4791210000000  0.5311960000000 1.0
C      1  0.4875750000000  0.4773940000000  0.4676780000000 1.0
C      1  0.5331940000000  0.4855050000000  0.5050460000000 1.0
C      1  0.5661010000000  0.5285470000000  0.5279630000000 1.0
C      1  0.4863280000000  0.5154230000000  0.4244580000000 1.0
C      1  0.4453290000000  0.5173520000000  0.5533220000000 1.0
C      1  0.5629380000000  0.4663110000000  0.4734470000000 1.0
C      1  0.4926430000000  0.4815330000000  0.5752940000000 1.0
C      1  0.4375890000000  0.4868630000000  0.4482660000000 1.0
C      1  0.4301570000000  0.4728710000000  0.4702640000000 1.0
C      1  0.5092040000000  0.4673740000000  0.5621020000000 1.0
C      1  0.5391320000000  0.4751040000000  0.4550580000000 1.0
C      1  0.4316850000000  0.5276190000000  0.5321080000000 1.0
C      1  0.5049960000000  0.5299300000000  0.4332210000000 1.0
C      1  0.5429730000000  0.5231230000000  0.5417370000000 1.0
END
