TITL C-27140-5627-122 0.00120992351323912 125000 -364.463679976097 0 0 60 (C1) n - 1
REM
REM in /home/nfs/bkarasulu/CARBON/AIRSS/Generating-Clusters/AIREBO/Higher-Symm/Only-C60
REM
REM
REM
REM
REM
REM ./C.cell (28575a23ae977d3b5fae324c64b13b57)
REM
REM compiler GCC version 9.2.1 20190827 (Red Hat 9.2.1-1)
REM options -cpp -mtune=generic -march=x86-64 -g -O0 -fpre-include=/usr/include/finclude/math-vector-fortran.h
REM seed 2095267446 -1700426125 -318261550 -1253587289 1870787995 -1189260821 1624469576 1931198249 -283459445 1347374417 -1193984976 -1947725588 -340611780 -2020775007 -678992923 435581724 1804965509 2002684056 -86454489 -264947096 427490935 -586635474 1977157103 47875674 1285296806 -789196814 247994705 -1637687435 546416698 1644410720 852759923 -1053506303 -1320827766
REM
CELL 1.54180   50.00000   50.00000   50.00000   90.00000   90.00000   90.00000
LATT -1
SFAC C  
C      1  0.4681790000000  0.5430680000000  0.4969500000000 1.0
C      1  0.4326230000000  0.4031230000000  0.4936780000000 1.0
C      1  0.5585380000000  0.4401460000000  0.4844870000000 1.0
C      1  0.5158030000000  0.4407430000000  0.5480110000000 1.0
C      1  0.5008160000000  0.5250400000000  0.5545040000000 1.0
C      1  0.5851620000000  0.4586650000000  0.5191070000000 1.0
C      1  0.5781880000000  0.4807780000000  0.5007580000000 1.0
C      1  0.4967570000000  0.5573530000000  0.4479360000000 1.0
C      1  0.4692760000000  0.4908140000000  0.5163450000000 1.0
C      1  0.4825830000000  0.4672550000000  0.5685030000000 1.0
C      1  0.4999120000000  0.4842300000000  0.4763460000000 1.0
C      1  0.4796670000000  0.4859440000000  0.4566630000000 1.0
C      1  0.4928260000000  0.4560990000000  0.5449040000000 1.0
C      1  0.4873070000000  0.5674120000000  0.4968080000000 1.0
C      1  0.5695330000000  0.5085590000000  0.4986030000000 1.0
C      1  0.5279870000000  0.5229380000000  0.4777430000000 1.0
C      1  0.4983350000000  0.5133380000000  0.4217110000000 1.0
C      1  0.5808440000000  0.4343820000000  0.5028440000000 1.0
C      1  0.4878800000000  0.4664060000000  0.5196190000000 1.0
C      1  0.4321040000000  0.5449570000000  0.5049700000000 1.0
C      1  0.4469580000000  0.5552150000000  0.5285370000000 1.0
C      1  0.4777630000000  0.5165820000000  0.5372860000000 1.0
C      1  0.5059590000000  0.5091770000000  0.4873330000000 1.0
C      1  0.5295130000000  0.5508870000000  0.4820340000000 1.0
C      1  0.5074390000000  0.4341080000000  0.4743800000000 1.0
C      1  0.5309190000000  0.4372060000000  0.4958200000000 1.0
C      1  0.5672980000000  0.5320280000000  0.5144010000000 1.0
C      1  0.5665400000000  0.4666380000000  0.4765670000000 1.0
C      1  0.4990180000000  0.5718880000000  0.5280230000000 1.0
C      1  0.5570580000000  0.4865650000000  0.4588010000000 1.0
C      1  0.5170520000000  0.5955530000000  0.5756130000000 1.0
C      1  0.4130130000000  0.5229160000000  0.5098330000000 1.0
C      1  0.5411240000000  0.5409830000000  0.5304740000000 1.0
C      1  0.4198350000000  0.4991490000000  0.5043840000000 1.0
C      1  0.4915910000000  0.4876260000000  0.5843460000000 1.0
C      1  0.5062150000000  0.5644480000000  0.4739240000000 1.0
C      1  0.5319670000000  0.4285780000000  0.5238360000000 1.0
C      1  0.4890990000000  0.4874700000000  0.4294490000000 1.0
C      1  0.4836490000000  0.5186150000000  0.5053440000000 1.0
C      1  0.4475160000000  0.5219990000000  0.4573470000000 1.0
C      1  0.4983170000000  0.4269860000000  0.4509240000000 1.0
C      1  0.4574660000000  0.5326800000000  0.4332220000000 1.0
C      1  0.4536560000000  0.5341030000000  0.5460130000000 1.0
C      1  0.4444730000000  0.5407760000000  0.4769850000000 1.0
C      1  0.5526950000000  0.5099610000000  0.4744680000000 1.0
C      1  0.4902930000000  0.4626560000000  0.4163620000000 1.0
C      1  0.5026910000000  0.5117210000000  0.5777210000000 1.0
C      1  0.4355560000000  0.4291660000000  0.4938620000000 1.0
C      1  0.5165940000000  0.5483430000000  0.5442460000000 1.0
C      1  0.5731170000000  0.4561180000000  0.5446990000000 1.0
C      1  0.4663270000000  0.5740400000000  0.5228450000000 1.0
C      1  0.5125760000000  0.5789630000000  0.5570380000000 1.0
C      1  0.4973530000000  0.4380230000000  0.4259810000000 1.0
C      1  0.4550540000000  0.4961070000000  0.4662560000000 1.0
C      1  0.4855270000000  0.5369660000000  0.4312530000000 1.0
C      1  0.5477860000000  0.5560360000000  0.5030550000000 1.0
C      1  0.4408230000000  0.4550140000000  0.4929700000000 1.0
C      1  0.4463260000000  0.4854400000000  0.4948770000000 1.0
C      1  0.5028030000000  0.4599240000000  0.4938620000000 1.0
C      1  0.5467240000000  0.4480950000000  0.5451420000000 1.0
END
