TITL C-27137-4574-29 4.30638122802293e-05 125000 -347.062071483485 0 0 60 (C1) n - 1
REM
REM in /home/nfs/bkarasulu/CARBON/AIRSS/Generating-Clusters/AIREBO/Higher-Symm/Only-C60
REM
REM
REM
REM
REM
REM ./C.cell (28575a23ae977d3b5fae324c64b13b57)
REM
REM compiler GCC version 9.2.1 20190827 (Red Hat 9.2.1-1)
REM options -cpp -mtune=generic -march=x86-64 -g -O0 -fpre-include=/usr/include/finclude/math-vector-fortran.h
REM seed 1022380802 -785699667 1359169247 1035405726 323698906 -2093453661 -1522753067 -172638768 -658257391 361381124 -1532406137 -960626275 1061893136 -281974901 -669308027 867338857 836221584 -301912010 -345574081 446392479 1665457682 -1445891156 -805671764 587026616 720365986 1131790327 3306465 1690754230 -154744269 1667917287 -1245653361 155078632 -1892800937
REM
CELL 1.54180   50.00000   50.00000   50.00000   90.00000   90.00000   90.00000
LATT -1
SFAC C  
C      1  0.4839560000000  0.5259370000000  0.4440300000000 1.0
C      1  0.5109090000000  0.5296250000000  0.4444890000000 1.0
C      1  0.5692870000000  0.5303250000000  0.4934380000000 1.0
C      1  0.4289220000000  0.5419360000000  0.4935140000000 1.0
C      1  0.5403680000000  0.5195290000000  0.5338560000000 1.0
C      1  0.4554810000000  0.5305660000000  0.5344460000000 1.0
C      1  0.5064840000000  0.4953910000000  0.5628170000000 1.0
C      1  0.4792490000000  0.5026090000000  0.5666950000000 1.0
C      1  0.4860700000000  0.4797930000000  0.4274260000000 1.0
C      1  0.5144340000000  0.4833360000000  0.4312330000000 1.0
C      1  0.5281710000000  0.5178390000000  0.4693370000000 1.0
C      1  0.4672910000000  0.5203100000000  0.4709360000000 1.0
C      1  0.5107750000000  0.4754290000000  0.5393700000000 1.0
C      1  0.4792760000000  0.4685850000000  0.5335730000000 1.0
C      1  0.5827130000000  0.5096350000000  0.4792440000000 1.0
C      1  0.4139630000000  0.5199530000000  0.4836210000000 1.0
C      1  0.4620630000000  0.4852960000000  0.5518410000000 1.0
C      1  0.5580450000000  0.5045010000000  0.5684520000000 1.0
C      1  0.4952870000000  0.4417700000000  0.5249240000000 1.0
C      1  0.5167910000000  0.4427610000000  0.5470840000000 1.0
C      1  0.5162650000000  0.5430680000000  0.5548840000000 1.0
C      1  0.4920550000000  0.5490310000000  0.5661890000000 1.0
C      1  0.4668350000000  0.4286110000000  0.4941850000000 1.0
C      1  0.5493270000000  0.4448930000000  0.4980440000000 1.0
C      1  0.5052390000000  0.4432320000000  0.4446380000000 1.0
C      1  0.4798480000000  0.4551320000000  0.4411810000000 1.0
C      1  0.4857150000000  0.4568420000000  0.4959260000000 1.0
C      1  0.5164400000000  0.4644310000000  0.4869110000000 1.0
C      1  0.4718480000000  0.5298670000000  0.5617500000000 1.0
C      1  0.5285880000000  0.5155630000000  0.5647610000000 1.0
C      1  0.5540380000000  0.4911820000000  0.5208890000000 1.0
C      1  0.4368680000000  0.4824430000000  0.5073600000000 1.0
C      1  0.5444060000000  0.4917580000000  0.4562590000000 1.0
C      1  0.4504920000000  0.4928200000000  0.4621910000000 1.0
C      1  0.5115890000000  0.5037970000000  0.4911330000000 1.0
C      1  0.4827840000000  0.5102810000000  0.4965450000000 1.0
C      1  0.4448810000000  0.5001250000000  0.5341710000000 1.0
C      1  0.5687630000000  0.4923560000000  0.5490540000000 1.0
C      1  0.5276170000000  0.5094710000000  0.4304240000000 1.0
C      1  0.4696130000000  0.5008980000000  0.4362970000000 1.0
C      1  0.5686210000000  0.5293510000000  0.5217630000000 1.0
C      1  0.4315430000000  0.5462040000000  0.5216040000000 1.0
C      1  0.4732370000000  0.5587620000000  0.4969650000000 1.0
C      1  0.5289540000000  0.5556390000000  0.4995670000000 1.0
C      1  0.5165610000000  0.5800090000000  0.4935860000000 1.0
C      1  0.4890540000000  0.5815080000000  0.4949890000000 1.0
C      1  0.5602040000000  0.4713850000000  0.4969890000000 1.0
C      1  0.4461460000000  0.4545220000000  0.4923240000000 1.0
C      1  0.5156460000000  0.5403900000000  0.5228520000000 1.0
C      1  0.4835970000000  0.5351900000000  0.5161430000000 1.0
C      1  0.5243700000000  0.4837460000000  0.5124510000000 1.0
C      1  0.4699510000000  0.4844080000000  0.5073580000000 1.0
C      1  0.4660380000000  0.4628840000000  0.4667480000000 1.0
C      1  0.5242600000000  0.4664940000000  0.4575430000000 1.0
C      1  0.4263810000000  0.4958480000000  0.4814370000000 1.0
C      1  0.5676250000000  0.4861290000000  0.4740780000000 1.0
C      1  0.5446400000000  0.5392800000000  0.4828780000000 1.0
C      1  0.4536510000000  0.5459560000000  0.4806510000000 1.0
C      1  0.4962330000000  0.4184500000000  0.4924410000000 1.0
C      1  0.5205390000000  0.4329140000000  0.4945170000000 1.0
END
