TITL C-27136-4842-16 -0.002219513848047 125000 -353.969175040952 0 0 60 (C1) n - 1
REM
REM in /home/nfs/bkarasulu/CARBON/AIRSS/Generating-Clusters/AIREBO/Higher-Symm/Only-C60
REM
REM
REM
REM
REM
REM ./C.cell (28575a23ae977d3b5fae324c64b13b57)
REM
REM compiler GCC version 9.2.1 20190827 (Red Hat 9.2.1-1)
REM options -cpp -mtune=generic -march=x86-64 -g -O0 -fpre-include=/usr/include/finclude/math-vector-fortran.h
REM seed 2129182762 -853781993 -1569020037 -1691573757 -790471682 -266893787 391056476 -1174280180 -1385772694 1628393519 1989433979 -760778841 -472601320 -1875089982 841032456 -1639422238 -1697653740 723232456 249379416 1857658958 897490379 -1338709732 -379182906 1778559536 -567123437 -1098927470 -796248450 737138819 -1047484218 1426657112 1720588356 -1511938368 2091719849
REM
CELL 1.54180   50.00000   50.00000   50.00000   90.00000   90.00000   90.00000
LATT -1
SFAC C  
C      1  0.5516680000000  0.4873800000000  0.4437780000000 1.0
C      1  0.4749080000000  0.5663630000000  0.4374910000000 1.0
C      1  0.4597420000000  0.4592410000000  0.4465960000000 1.0
C      1  0.4397540000000  0.4927200000000  0.5550380000000 1.0
C      1  0.5189180000000  0.5545150000000  0.5546690000000 1.0
C      1  0.5385510000000  0.4578240000000  0.5545230000000 1.0
C      1  0.4261930000000  0.5164050000000  0.5470700000000 1.0
C      1  0.5255770000000  0.4326270000000  0.5514790000000 1.0
C      1  0.5472290000000  0.5559310000000  0.5532520000000 1.0
C      1  0.5676050000000  0.5115440000000  0.4435750000000 1.0
C      1  0.4768790000000  0.4361830000000  0.4466490000000 1.0
C      1  0.4590750000000  0.5443560000000  0.4369300000000 1.0
C      1  0.4508600000000  0.4445650000000  0.5399630000000 1.0
C      1  0.5755410000000  0.4840250000000  0.5399970000000 1.0
C      1  0.4774800000000  0.5671450000000  0.5364260000000 1.0
C      1  0.5510570000000  0.4422220000000  0.4614840000000 1.0
C      1  0.4242650000000  0.4819370000000  0.4690960000000 1.0
C      1  0.5165110000000  0.5636550000000  0.4726840000000 1.0
C      1  0.5373630000000  0.5471540000000  0.4691990000000 1.0
C      1  0.4300430000000  0.5065740000000  0.4599420000000 1.0
C      1  0.5263290000000  0.4303970000000  0.4606370000000 1.0
C      1  0.4651850000000  0.5427260000000  0.5432280000000 1.0
C      1  0.5638160000000  0.5083920000000  0.5466050000000 1.0
C      1  0.4783380000000  0.4419890000000  0.5412460000000 1.0
C      1  0.4374860000000  0.5386210000000  0.4607920000000 1.0
C      1  0.4998490000000  0.4387090000000  0.4632470000000 1.0
C      1  0.5636110000000  0.5286410000000  0.4663230000000 1.0
C      1  0.5572520000000  0.5358120000000  0.5362080000000 1.0
C      1  0.5054730000000  0.4342410000000  0.5313600000000 1.0
C      1  0.4426790000000  0.5318380000000  0.5294140000000 1.0
C      1  0.5572830000000  0.4632680000000  0.5336450000000 1.0
C      1  0.5051410000000  0.5641260000000  0.5312800000000 1.0
C      1  0.4413890000000  0.4703770000000  0.5350550000000 1.0
C      1  0.4462060000000  0.4640420000000  0.4716110000000 1.0
C      1  0.4889790000000  0.5725270000000  0.4607680000000 1.0
C      1  0.5582900000000  0.4693100000000  0.4650570000000 1.0
C      1  0.5112880000000  0.5475650000000  0.5088380000000 1.0
C      1  0.4589030000000  0.4882340000000  0.5137750000000 1.0
C      1  0.5425050000000  0.4655780000000  0.5096340000000 1.0
C      1  0.4881020000000  0.5490580000000  0.4852000000000 1.0
C      1  0.5529160000000  0.4815450000000  0.4899130000000 1.0
C      1  0.4656540000000  0.4693100000000  0.4914970000000 1.0
C      1  0.4957000000000  0.4624700000000  0.4843250000000 1.0
C      1  0.5457270000000  0.5118830000000  0.4901120000000 1.0
C      1  0.4629150000000  0.5307140000000  0.4819370000000 1.0
C      1  0.5115740000000  0.4599240000000  0.5108290000000 1.0
C      1  0.4511720000000  0.5173330000000  0.5063200000000 1.0
C      1  0.5343910000000  0.5251600000000  0.5151240000000 1.0
C      1  0.4951020000000  0.5162620000000  0.4630520000000 1.0
C      1  0.4751670000000  0.4832060000000  0.4422490000000 1.0
C      1  0.5233070000000  0.4926440000000  0.4474730000000 1.0
C      1  0.5095370000000  0.5274650000000  0.5581060000000 1.0
C      1  0.5201250000000  0.4796950000000  0.5532440000000 1.0
C      1  0.4723010000000  0.4937450000000  0.5445440000000 1.0
C      1  0.4943280000000  0.4718410000000  0.5381330000000 1.0
C      1  0.5298420000000  0.5081850000000  0.5450030000000 1.0
C      1  0.4828900000000  0.5219770000000  0.5519020000000 1.0
C      1  0.5009020000000  0.4776900000000  0.4543450000000 1.0
C      1  0.4636290000000  0.5135060000000  0.4526090000000 1.0
C      1  0.5254970000000  0.5176260000000  0.4655200000000 1.0
END
