TITL C-27135-6010-89 -0.000713959287290088 125000 -328.602448034197 0 0 60 (C1) n - 1
REM
REM in /home/nfs/bkarasulu/CARBON/AIRSS/Generating-Clusters/AIREBO/Higher-Symm/Only-C60
REM
REM
REM
REM
REM
REM ./C.cell (28575a23ae977d3b5fae324c64b13b57)
REM
REM compiler GCC version 9.2.1 20190827 (Red Hat 9.2.1-1)
REM options -cpp -mtune=generic -march=x86-64 -g -O0 -fpre-include=/usr/include/finclude/math-vector-fortran.h
REM seed -86400489 2033238371 1329165569 -876510534 -138033879 -1141079133 -1592564 -479325525 1845239409 1443931670 -1190069587 -2063161642 -1491790016 1326147469 1582124180 1279486161 -1969424597 -1822312429 -222193659 1795369064 -2040908346 28045299 -714113638 -441674722 -1844819443 1064711894 -2013255232 -935331978 144959397 744083676 2095054223 796832067 -650785184
REM
CELL 1.54180   50.00000   50.00000   50.00000   90.00000   90.00000   90.00000
LATT -1
SFAC C  
C      1  0.4936000000000  0.4254800000000  0.4885760000000 1.0
C      1  0.5797600000000  0.4931720000000  0.4965440000000 1.0
C      1  0.5070880000000  0.5788700000000  0.4958490000000 1.0
C      1  0.4206270000000  0.5051160000000  0.4917010000000 1.0
C      1  0.5614910000000  0.4475400000000  0.4860150000000 1.0
C      1  0.5580830000000  0.5601060000000  0.4933410000000 1.0
C      1  0.4321710000000  0.5527330000000  0.4861470000000 1.0
C      1  0.4407350000000  0.4286950000000  0.4926670000000 1.0
C      1  0.4999200000000  0.4874560000000  0.5519290000000 1.0
C      1  0.5281090000000  0.5204410000000  0.5611200000000 1.0
C      1  0.5332910000000  0.5167200000000  0.5858340000000 1.0
C      1  0.4705000000000  0.5080080000000  0.5598130000000 1.0
C      1  0.5239090000000  0.5812490000000  0.4696030000000 1.0
C      1  0.4235650000000  0.5270340000000  0.4678430000000 1.0
C      1  0.4630220000000  0.4238820000000  0.4737930000000 1.0
C      1  0.5726900000000  0.4756040000000  0.4703670000000 1.0
C      1  0.5079930000000  0.4829490000000  0.4956250000000 1.0
C      1  0.5230780000000  0.5122380000000  0.4986510000000 1.0
C      1  0.4909330000000  0.5189390000000  0.4975340000000 1.0
C      1  0.4762710000000  0.4897600000000  0.4980430000000 1.0
C      1  0.5045160000000  0.4533900000000  0.5316730000000 1.0
C      1  0.5451630000000  0.5016550000000  0.5304390000000 1.0
C      1  0.4952040000000  0.5456590000000  0.5311990000000 1.0
C      1  0.4516720000000  0.4953200000000  0.5290750000000 1.0
C      1  0.5506210000000  0.4173320000000  0.4781830000000 1.0
C      1  0.5858210000000  0.5524800000000  0.4869430000000 1.0
C      1  0.4480190000000  0.5740070000000  0.4785490000000 1.0
C      1  0.4202760000000  0.4451500000000  0.4835130000000 1.0
C      1  0.5241980000000  0.4337050000000  0.4897350000000 1.0
C      1  0.5728040000000  0.5229480000000  0.4936140000000 1.0
C      1  0.4788720000000  0.5702940000000  0.4897970000000 1.0
C      1  0.4292110000000  0.4762020000000  0.4864570000000 1.0
C      1  0.4416720000000  0.5425790000000  0.5113480000000 1.0
C      1  0.4534230000000  0.4414910000000  0.5153670000000 1.0
C      1  0.5588220000000  0.4555650000000  0.5166850000000 1.0
C      1  0.5447320000000  0.5582270000000  0.5201740000000 1.0
C      1  0.4607240000000  0.4784730000000  0.4742520000000 1.0
C      1  0.5087960000000  0.4595540000000  0.4739010000000 1.0
C      1  0.5445870000000  0.5204620000000  0.4783080000000 1.0
C      1  0.4812210000000  0.5392770000000  0.4776810000000 1.0
C      1  0.5172640000000  0.5650660000000  0.5184800000000 1.0
C      1  0.4333130000000  0.5159660000000  0.5151140000000 1.0
C      1  0.4814290000000  0.4384460000000  0.5153380000000 1.0
C      1  0.5665450000000  0.4821580000000  0.5196940000000 1.0
C      1  0.5314320000000  0.4454780000000  0.5172680000000 1.0
C      1  0.5569260000000  0.5306860000000  0.5204050000000 1.0
C      1  0.4675220000000  0.5527730000000  0.5156520000000 1.0
C      1  0.4430790000000  0.4678290000000  0.5155810000000 1.0
C      1  0.5393180000000  0.4672670000000  0.4712780000000 1.0
C      1  0.5352860000000  0.5496360000000  0.4736940000000 1.0
C      1  0.4570510000000  0.5310940000000  0.4635610000000 1.0
C      1  0.4774970000000  0.4544840000000  0.4664420000000 1.0
C      1  0.5487510000000  0.4971830000000  0.4596260000000 1.0
C      1  0.5044080000000  0.5545710000000  0.4633850000000 1.0
C      1  0.4454850000000  0.5018640000000  0.4605400000000 1.0
C      1  0.4907410000000  0.4256640000000  0.4541840000000 1.0
C      1  0.4800650000000  0.4766670000000  0.5276250000000 1.0
C      1  0.5195180000000  0.4834910000000  0.5262260000000 1.0
C      1  0.5189730000000  0.5233390000000  0.5295640000000 1.0
C      1  0.4782040000000  0.5165760000000  0.5284550000000 1.0
END
