TITL C-27135-6010-207 -0.00111093883379875 125000 -312.505199343213 0 0 60 (C1) n - 1
REM
REM in /home/nfs/bkarasulu/CARBON/AIRSS/Generating-Clusters/AIREBO/Higher-Symm/Only-C60
REM
REM
REM
REM
REM
REM ./C.cell (28575a23ae977d3b5fae324c64b13b57)
REM
REM compiler GCC version 9.2.1 20190827 (Red Hat 9.2.1-1)
REM options -cpp -mtune=generic -march=x86-64 -g -O0 -fpre-include=/usr/include/finclude/math-vector-fortran.h
REM seed -1644439729 790505059 1580697646 -861260070 2089190575 -388265915 -2142324550 -1077027544 -1194110519 780192814 1259979314 286722110 -32739808 1353852295 1189980548 -1497505590 1647920211 -759395906 -1119246681 -499793658 1787188668 -517694546 -320745347 -1405428863 1630599763 -1523324286 1399898947 -647599127 -1721602878 1093873497 963553236 1077630066 -168530038
REM
CELL 1.54180   50.00000   50.00000   50.00000   90.00000   90.00000   90.00000
LATT -1
SFAC C  
C      1  0.4458640000000  0.5134500000000  0.4656010000000 1.0
C      1  0.4438800000000  0.4353080000000  0.5283840000000 1.0
C      1  0.5178580000000  0.4635600000000  0.4371200000000 1.0
C      1  0.5636430000000  0.4718060000000  0.4441250000000 1.0
C      1  0.5638760000000  0.5260370000000  0.5492150000000 1.0
C      1  0.4265250000000  0.4760970000000  0.5437780000000 1.0
C      1  0.5457020000000  0.5667900000000  0.5342010000000 1.0
C      1  0.5420040000000  0.4361430000000  0.4680220000000 1.0
C      1  0.4629760000000  0.5573880000000  0.4834470000000 1.0
C      1  0.4690440000000  0.5468630000000  0.4380550000000 1.0
C      1  0.4710120000000  0.4622560000000  0.5606410000000 1.0
C      1  0.5238290000000  0.5427910000000  0.5688150000000 1.0
C      1  0.5273170000000  0.4370450000000  0.4434200000000 1.0
C      1  0.4342250000000  0.4611470000000  0.5205970000000 1.0
C      1  0.4605330000000  0.5198960000000  0.4405870000000 1.0
C      1  0.4804030000000  0.5571680000000  0.4620100000000 1.0
C      1  0.5208220000000  0.5605590000000  0.5467800000000 1.0
C      1  0.4672900000000  0.4366090000000  0.5445650000000 1.0
C      1  0.5595360000000  0.5429160000000  0.5267010000000 1.0
C      1  0.4436140000000  0.5335380000000  0.4844880000000 1.0
C      1  0.5617770000000  0.4585170000000  0.4691450000000 1.0
C      1  0.5383510000000  0.4825680000000  0.4361780000000 1.0
C      1  0.4481060000000  0.4811740000000  0.5615670000000 1.0
C      1  0.5393720000000  0.5197510000000  0.5626080000000 1.0
C      1  0.5234030000000  0.4972190000000  0.5452400000000 1.0
C      1  0.5452880000000  0.5287880000000  0.5004670000000 1.0
C      1  0.4980420000000  0.5509780000000  0.5241020000000 1.0
C      1  0.4732460000000  0.5004100000000  0.5488500000000 1.0
C      1  0.4815410000000  0.4992600000000  0.4546150000000 1.0
C      1  0.5346250000000  0.5094640000000  0.4495940000000 1.0
C      1  0.4550140000000  0.4767690000000  0.5025550000000 1.0
C      1  0.4442550000000  0.5265930000000  0.5159540000000 1.0
C      1  0.5536590000000  0.4777370000000  0.4959930000000 1.0
C      1  0.4929320000000  0.4507180000000  0.5295280000000 1.0
C      1  0.5077860000000  0.5456580000000  0.4677840000000 1.0
C      1  0.5011730000000  0.4633990000000  0.4826580000000 1.0
C      1  0.4989270000000  0.5204940000000  0.5391890000000 1.0
C      1  0.5159150000000  0.5427060000000  0.4973210000000 1.0
C      1  0.5370060000000  0.4993650000000  0.5162680000000 1.0
C      1  0.4975870000000  0.4766780000000  0.5482920000000 1.0
C      1  0.4935760000000  0.4699410000000  0.4538200000000 1.0
C      1  0.5060170000000  0.5167650000000  0.4568780000000 1.0
C      1  0.4786610000000  0.4557730000000  0.5014310000000 1.0
C      1  0.5291220000000  0.4540630000000  0.4924410000000 1.0
C      1  0.4678370000000  0.5485040000000  0.5120640000000 1.0
C      1  0.4595340000000  0.5012330000000  0.5202230000000 1.0
C      1  0.5488440000000  0.5050750000000  0.4763580000000 1.0
C      1  0.4521970000000  0.4859350000000  0.4733160000000 1.0
C      1  0.4685440000000  0.5201660000000  0.5728290000000 1.0
C      1  0.5461500000000  0.5307630000000  0.4345110000000 1.0
C      1  0.5423500000000  0.4756640000000  0.5583060000000 1.0
C      1  0.5205410000000  0.4396370000000  0.5192240000000 1.0
C      1  0.4950310000000  0.5828580000000  0.5209640000000 1.0
C      1  0.5635540000000  0.5472120000000  0.4822000000000 1.0
C      1  0.5278720000000  0.5600420000000  0.4532360000000 1.0
C      1  0.4667200000000  0.4287420000000  0.4919240000000 1.0
C      1  0.4686520000000  0.4535810000000  0.4445030000000 1.0
C      1  0.4468600000000  0.4635460000000  0.4545550000000 1.0
C      1  0.4214460000000  0.5310970000000  0.5310030000000 1.0
C      1  0.5785320000000  0.4737870000000  0.5117530000000 1.0
END
