TITL C-27144-3922-126 -0.165596201179461 125000 -323.222276705115 0 0 60 (C1) n - 1
REM
REM in /home/nfs/bkarasulu/CARBON/AIRSS/Generating-Clusters/AIREBO/Higher-Symm/Only-C60
REM
REM
REM
REM
REM
REM ./C.cell (28575a23ae977d3b5fae324c64b13b57)
REM
REM compiler GCC version 9.2.1 20190827 (Red Hat 9.2.1-1)
REM options -cpp -mtune=generic -march=x86-64 -g -O0 -fpre-include=/usr/include/finclude/math-vector-fortran.h
REM seed -2129734071 -1938872350 423301939 -1307628359 -400729353 -1442761863 685475443 -143909390 -447778854 -990330217 1032842816 -1791301421 2594687 1001615594 -492282609 -1101923619 -416538037 1326867463 1312638845 -1348207216 1010876114 1209990002 -289761759 -1085241888 1769955281 1759152059 -528999237 1353563625 977548589 -1967425093 153083770 203316249 -619423237
REM
CELL 1.54180   50.00000   50.00000   50.00000   90.00000   90.00000   90.00000
LATT -1
SFAC C  
C      1  0.4368050000000  0.5082880000000  0.5151930000000 1.0
C      1  0.4488680000000  0.4983580000000  0.4567440000000 1.0
C      1  0.5275930000000  0.5099570000000  0.4386820000000 1.0
C      1  0.5755400000000  0.4942030000000  0.4857570000000 1.0
C      1  0.5476560000000  0.5110670000000  0.5469010000000 1.0
C      1  0.4787150000000  0.5034840000000  0.5658960000000 1.0
C      1  0.5645410000000  0.4871550000000  0.5171560000000 1.0
C      1  0.5534630000000  0.5027900000000  0.4538750000000 1.0
C      1  0.4733530000000  0.4944310000000  0.4386490000000 1.0
C      1  0.4280680000000  0.5043520000000  0.4841410000000 1.0
C      1  0.4510830000000  0.5001000000000  0.5512550000000 1.0
C      1  0.5181610000000  0.5004120000000  0.5603950000000 1.0
C      1  0.5533860000000  0.5385240000000  0.4972950000000 1.0
C      1  0.5260460000000  0.5373340000000  0.5474330000000 1.0
C      1  0.4746740000000  0.5321740000000  0.5480780000000 1.0
C      1  0.4447730000000  0.5371550000000  0.4990610000000 1.0
C      1  0.4714740000000  0.5359740000000  0.4578950000000 1.0
C      1  0.5193130000000  0.5414440000000  0.4484970000000 1.0
C      1  0.4453300000000  0.4577490000000  0.4996550000000 1.0
C      1  0.4698380000000  0.4604530000000  0.5438480000000 1.0
C      1  0.5228070000000  0.4694680000000  0.5470580000000 1.0
C      1  0.5564570000000  0.4613320000000  0.4965640000000 1.0
C      1  0.5232100000000  0.4566280000000  0.4504550000000 1.0
C      1  0.4838770000000  0.4635850000000  0.4483570000000 1.0
C      1  0.4412660000000  0.5287600000000  0.5419830000000 1.0
C      1  0.4404730000000  0.5300720000000  0.4656840000000 1.0
C      1  0.4946570000000  0.5209820000000  0.4370990000000 1.0
C      1  0.5663570000000  0.5216170000000  0.4737410000000 1.0
C      1  0.5651430000000  0.5208450000000  0.5212670000000 1.0
C      1  0.5018880000000  0.5292340000000  0.5682680000000 1.0
C      1  0.5557930000000  0.4776910000000  0.5476160000000 1.0
C      1  0.5569860000000  0.4743270000000  0.4651240000000 1.0
C      1  0.5081810000000  0.4834140000000  0.4352230000000 1.0
C      1  0.4339360000000  0.4734540000000  0.4746720000000 1.0
C      1  0.4445890000000  0.4770710000000  0.5276670000000 1.0
C      1  0.4930110000000  0.4753520000000  0.5623580000000 1.0
C      1  0.5300320000000  0.4427830000000  0.5009080000000 1.0
C      1  0.5150330000000  0.4448160000000  0.5248500000000 1.0
C      1  0.4867100000000  0.4413470000000  0.5227140000000 1.0
C      1  0.4725130000000  0.4374050000000  0.4974790000000 1.0
C      1  0.4882510000000  0.4421420000000  0.4739000000000 1.0
C      1  0.5172370000000  0.4348280000000  0.4758550000000 1.0
C      1  0.4693470000000  0.5596190000000  0.5025040000000 1.0
C      1  0.4845420000000  0.5566340000000  0.5264090000000 1.0
C      1  0.5132300000000  0.5581820000000  0.5244610000000 1.0
C      1  0.5264560000000  0.5573880000000  0.4990020000000 1.0
C      1  0.5112030000000  0.5610790000000  0.4750550000000 1.0
C      1  0.4829840000000  0.5592380000000  0.4772490000000 1.0
C      1  0.5137700000000  0.5214870000000  0.4740050000000 1.0
C      1  0.5314820000000  0.5144430000000  0.4965480000000 1.0
C      1  0.5159940000000  0.5184760000000  0.5238960000000 1.0
C      1  0.4852760000000  0.5122850000000  0.5246630000000 1.0
C      1  0.4718230000000  0.5200600000000  0.5001190000000 1.0
C      1  0.4857750000000  0.5129480000000  0.4750640000000 1.0
C      1  0.4853840000000  0.4840820000000  0.4750460000000 1.0
C      1  0.4707310000000  0.4769370000000  0.4978890000000 1.0
C      1  0.4841030000000  0.4812430000000  0.5238100000000 1.0
C      1  0.5156100000000  0.4868360000000  0.5205560000000 1.0
C      1  0.5316470000000  0.4822800000000  0.4949330000000 1.0
C      1  0.5135550000000  0.4742250000000  0.4735440000000 1.0
END
