TITL C-27137-4574-118 0.00227087587202092 125000 -357.388571440908 0 0 60 (C1) n - 1
REM
REM in /home/nfs/bkarasulu/CARBON/AIRSS/Generating-Clusters/AIREBO/Higher-Symm/Only-C60
REM
REM
REM
REM
REM
REM ./C.cell (28575a23ae977d3b5fae324c64b13b57)
REM
REM compiler GCC version 9.2.1 20190827 (Red Hat 9.2.1-1)
REM options -cpp -mtune=generic -march=x86-64 -g -O0 -fpre-include=/usr/include/finclude/math-vector-fortran.h
REM seed 1903520047 -492748212 384697976 -1663830699 420230657 -1056658242 -1535665092 -885391928 -287075264 603694290 254239323 -1690712866 2032243416 702475092 -839046551 -6028357 -142359998 1412060378 -1371085820 1999945575 932429865 945210309 -1567760307 -895549371 1063748260 -399677781 1572494765 16277343 -221966419 -1439604777 857015401 -1958540254 -2049575500
REM
CELL 1.54180   50.00000   50.00000   50.00000   90.00000   90.00000   90.00000
LATT -1
SFAC C  
C      1  0.5467900000000  0.5310740000000  0.5593790000000 1.0
C      1  0.5685290000000  0.5145570000000  0.4840950000000 1.0
C      1  0.4981670000000  0.5176100000000  0.4286630000000 1.0
C      1  0.4258410000000  0.5178040000000  0.4835720000000 1.0
C      1  0.4594210000000  0.5096860000000  0.5608770000000 1.0
C      1  0.5436990000000  0.4771180000000  0.4472200000000 1.0
C      1  0.5726170000000  0.4827440000000  0.5352210000000 1.0
C      1  0.5100140000000  0.4898350000000  0.5721740000000 1.0
C      1  0.4288840000000  0.4777750000000  0.5174610000000 1.0
C      1  0.4553020000000  0.4894790000000  0.4350190000000 1.0
C      1  0.5474810000000  0.4732000000000  0.5446690000000 1.0
C      1  0.5525680000000  0.4510410000000  0.4533800000000 1.0
C      1  0.4764550000000  0.4756500000000  0.4208250000000 1.0
C      1  0.4225790000000  0.4707530000000  0.4900960000000 1.0
C      1  0.4878450000000  0.4726880000000  0.5663760000000 1.0
C      1  0.5583760000000  0.5209670000000  0.4593080000000 1.0
C      1  0.5646820000000  0.5346440000000  0.5353500000000 1.0
C      1  0.4773190000000  0.5293940000000  0.5702990000000 1.0
C      1  0.4224890000000  0.5246140000000  0.5114790000000 1.0
C      1  0.4739060000000  0.5328290000000  0.4320960000000 1.0
C      1  0.5158120000000  0.4444830000000  0.4833780000000 1.0
C      1  0.4989970000000  0.4602110000000  0.4628930000000 1.0
C      1  0.4735050000000  0.4672350000000  0.4789840000000 1.0
C      1  0.4805600000000  0.4668490000000  0.5096070000000 1.0
C      1  0.5099170000000  0.4529790000000  0.5092100000000 1.0
C      1  0.5235960000000  0.5426100000000  0.5038040000000 1.0
C      1  0.5040400000000  0.5434800000000  0.5277550000000 1.0
C      1  0.4745540000000  0.5332170000000  0.5172620000000 1.0
C      1  0.4764510000000  0.5331510000000  0.4862600000000 1.0
C      1  0.5078020000000  0.5321530000000  0.4770010000000 1.0
C      1  0.4875190000000  0.4531400000000  0.4343550000000 1.0
C      1  0.4428840000000  0.4560630000000  0.4766810000000 1.0
C      1  0.4872570000000  0.4588670000000  0.5416110000000 1.0
C      1  0.5291040000000  0.4595740000000  0.5283010000000 1.0
C      1  0.5399920000000  0.4353170000000  0.4724490000000 1.0
C      1  0.4816310000000  0.5517330000000  0.5519700000000 1.0
C      1  0.4429360000000  0.5410520000000  0.5224920000000 1.0
C      1  0.4725540000000  0.5475870000000  0.4563480000000 1.0
C      1  0.5366400000000  0.5394390000000  0.4605060000000 1.0
C      1  0.5520320000000  0.5584370000000  0.5143890000000 1.0
C      1  0.5530340000000  0.5259650000000  0.5057560000000 1.0
C      1  0.5102480000000  0.5105260000000  0.4531490000000 1.0
C      1  0.4527180000000  0.5150880000000  0.4752540000000 1.0
C      1  0.4619120000000  0.5074300000000  0.5329030000000 1.0
C      1  0.5200230000000  0.5338580000000  0.5548150000000 1.0
C      1  0.5835050000000  0.4747000000000  0.5104210000000 1.0
C      1  0.5380930000000  0.4853380000000  0.5687240000000 1.0
C      1  0.4563770000000  0.4821290000000  0.5224370000000 1.0
C      1  0.4584150000000  0.4903470000000  0.4631640000000 1.0
C      1  0.5180390000000  0.4838660000000  0.4561830000000 1.0
C      1  0.4111200000000  0.4937450000000  0.4768300000000 1.0
C      1  0.4628560000000  0.4844990000000  0.5739800000000 1.0
C      1  0.5529770000000  0.5088220000000  0.5759050000000 1.0
C      1  0.5853650000000  0.4932740000000  0.4901940000000 1.0
C      1  0.4949040000000  0.4953450000000  0.4105910000000 1.0
C      1  0.4137910000000  0.5010960000000  0.5259130000000 1.0
C      1  0.4513890000000  0.5163100000000  0.4249030000000 1.0
C      1  0.5590960000000  0.4997980000000  0.4406400000000 1.0
C      1  0.5817130000000  0.5087150000000  0.5436200000000 1.0
C      1  0.5036790000000  0.5181100000000  0.5718020000000 1.0
END
