TITL C-27140-5627-62 0.00153150259482215 125000 -314.53168694455 0 0 60 (C1) n - 1
REM
REM in /home/nfs/bkarasulu/CARBON/AIRSS/Generating-Clusters/AIREBO/Higher-Symm/Only-C60
REM
REM
REM
REM
REM
REM ./C.cell (28575a23ae977d3b5fae324c64b13b57)
REM
REM compiler GCC version 9.2.1 20190827 (Red Hat 9.2.1-1)
REM options -cpp -mtune=generic -march=x86-64 -g -O0 -fpre-include=/usr/include/finclude/math-vector-fortran.h
REM seed 53669512 -1044128721 -1087120299 -108829910 -340093321 -1925407652 1088275960 -889084039 1642816129 -560666765 517868259 1640959846 313541413 495861579 -1939787979 -629109726 -1723913079 6981907 705500484 626685232 2017498827 -1304959620 578611744 -880459661 -1834667665 1630078737 -1866459093 308076056 -557685446 -116066353 750950626 2104710165 1555691492
REM
CELL 1.54180   50.00000   50.00000   50.00000   90.00000   90.00000   90.00000
LATT -1
SFAC C  
C      1  0.4826800000000  0.4848990000000  0.4485220000000 1.0
C      1  0.4473040000000  0.4861680000000  0.5190810000000 1.0
C      1  0.5186620000000  0.4837880000000  0.5525340000000 1.0
C      1  0.5489140000000  0.4885990000000  0.4838960000000 1.0
C      1  0.4755670000000  0.4451250000000  0.4718700000000 1.0
C      1  0.4663870000000  0.4454100000000  0.5323540000000 1.0
C      1  0.5242770000000  0.4452950000000  0.5269760000000 1.0
C      1  0.5307110000000  0.4480550000000  0.4705020000000 1.0
C      1  0.5711690000000  0.4810220000000  0.5368030000000 1.0
C      1  0.5415350000000  0.4853010000000  0.4279580000000 1.0
C      1  0.4282290000000  0.4812850000000  0.4600640000000 1.0
C      1  0.4570550000000  0.4856620000000  0.5746970000000 1.0
C      1  0.5534320000000  0.4616550000000  0.4808080000000 1.0
C      1  0.4809710000000  0.4576800000000  0.4471260000000 1.0
C      1  0.4431190000000  0.4592580000000  0.5235130000000 1.0
C      1  0.5218310000000  0.4564750000000  0.5528550000000 1.0
C      1  0.5474080000000  0.4991660000000  0.5428020000000 1.0
C      1  0.5425760000000  0.5023500000000  0.4534420000000 1.0
C      1  0.4533750000000  0.4989620000000  0.4584960000000 1.0
C      1  0.4569560000000  0.5013770000000  0.5479660000000 1.0
C      1  0.5554910000000  0.5314470000000  0.5386350000000 1.0
C      1  0.5396830000000  0.5337850000000  0.4456450000000 1.0
C      1  0.4471990000000  0.5316380000000  0.4614490000000 1.0
C      1  0.4641260000000  0.5338430000000  0.5507430000000 1.0
C      1  0.4872390000000  0.5376640000000  0.5660020000000 1.0
C      1  0.5701510000000  0.5388350000000  0.5155940000000 1.0
C      1  0.5171240000000  0.5393060000000  0.4289730000000 1.0
C      1  0.4325440000000  0.5355080000000  0.4849950000000 1.0
C      1  0.5110090000000  0.5562390000000  0.5208480000000 1.0
C      1  0.5125280000000  0.5551300000000  0.4750130000000 1.0
C      1  0.4832790000000  0.5615760000000  0.4826550000000 1.0
C      1  0.4848500000000  0.5611760000000  0.5122530000000 1.0
C      1  0.4621300000000  0.4937420000000  0.4911330000000 1.0
C      1  0.4891610000000  0.4925850000000  0.5412150000000 1.0
C      1  0.5339650000000  0.4975390000000  0.5116050000000 1.0
C      1  0.5096220000000  0.4981620000000  0.4609300000000 1.0
C      1  0.4799160000000  0.4675200000000  0.4938880000000 1.0
C      1  0.4893900000000  0.4645460000000  0.5246800000000 1.0
C      1  0.5176910000000  0.4695170000000  0.5064880000000 1.0
C      1  0.5074060000000  0.4689760000000  0.4756090000000 1.0
C      1  0.4928610000000  0.5391170000000  0.4429850000000 1.0
C      1  0.4495400000000  0.5314350000000  0.5063050000000 1.0
C      1  0.5092940000000  0.5301610000000  0.5507750000000 1.0
C      1  0.5527170000000  0.5409420000000  0.4928050000000 1.0
C      1  0.5337910000000  0.4204490000000  0.5212250000000 1.0
C      1  0.5297100000000  0.4245920000000  0.4568670000000 1.0
C      1  0.4649330000000  0.4204510000000  0.4761470000000 1.0
C      1  0.4683620000000  0.4223080000000  0.5464950000000 1.0
C      1  0.4689500000000  0.5495260000000  0.4588940000000 1.0
C      1  0.4636770000000  0.5472020000000  0.5259010000000 1.0
C      1  0.5326300000000  0.5472260000000  0.5439050000000 1.0
C      1  0.5395470000000  0.5499970000000  0.4689130000000 1.0
C      1  0.4260290000000  0.5094230000000  0.5524580000000 1.0
C      1  0.5536300000000  0.5020170000000  0.5740860000000 1.0
C      1  0.5746130000000  0.5058740000000  0.4523260000000 1.0
C      1  0.4493250000000  0.5037440000000  0.4265580000000 1.0
C      1  0.5271050000000  0.5298120000000  0.5083060000000 1.0
C      1  0.4967310000000  0.5250390000000  0.4736970000000 1.0
C      1  0.4801340000000  0.5189740000000  0.4982060000000 1.0
C      1  0.4997600000000  0.5154440000000  0.5225250000000 1.0
END
