TITL C-27134-4977-51 -0.00183807954521016 125000 -313.789403417162 0 0 60 (C1) n - 1
REM
REM in /home/nfs/bkarasulu/CARBON/AIRSS/Generating-Clusters/AIREBO/Higher-Symm/Only-C60
REM
REM
REM
REM
REM
REM ./C.cell (28575a23ae977d3b5fae324c64b13b57)
REM
REM compiler GCC version 9.2.1 20190827 (Red Hat 9.2.1-1)
REM options -cpp -mtune=generic -march=x86-64 -g -O0 -fpre-include=/usr/include/finclude/math-vector-fortran.h
REM seed 1719732392 443142465 -1965388899 -2041607350 470824748 -590461200 107496600 2100553697 -1290246188 -1569114659 1943891593 -940190494 -2077303343 -1481060240 1950612405 1795517605 1326901115 1237049555 -1094614234 -161181834 2107125520 1802803305 -2017865875 83922699 1053634552 191470732 -1365026747 -1110509894 129729174 -71934456 -457333648 -1258620369 -1089420583
REM
CELL 1.54180   50.00000   50.00000   50.00000   90.00000   90.00000   90.00000
LATT -1
SFAC C  
C      1  0.4939350000000  0.5418600000000  0.5192640000000 1.0
C      1  0.5253290000000  0.5460160000000  0.5068020000000 1.0
C      1  0.5061100000000  0.5421180000000  0.4813260000000 1.0
C      1  0.4746280000000  0.5456900000000  0.4936920000000 1.0
C      1  0.4919470000000  0.4618720000000  0.5215630000000 1.0
C      1  0.5232030000000  0.4648650000000  0.5085040000000 1.0
C      1  0.5061590000000  0.4606550000000  0.4793800000000 1.0
C      1  0.4745650000000  0.4639850000000  0.4924070000000 1.0
C      1  0.5050980000000  0.4527930000000  0.5582100000000 1.0
C      1  0.5633210000000  0.4515180000000  0.4863350000000 1.0
C      1  0.4967250000000  0.4524890000000  0.4414940000000 1.0
C      1  0.4413210000000  0.4519800000000  0.5111240000000 1.0
C      1  0.5088400000000  0.5440030000000  0.5559100000000 1.0
C      1  0.5622720000000  0.5449210000000  0.4922630000000 1.0
C      1  0.4914310000000  0.5435940000000  0.4444410000000 1.0
C      1  0.4375270000000  0.5443720000000  0.5077760000000 1.0
C      1  0.5281250000000  0.5172450000000  0.4244120000000 1.0
C      1  0.4232460000000  0.5136190000000  0.4707490000000 1.0
C      1  0.4714880000000  0.5175550000000  0.5760360000000 1.0
C      1  0.5766860000000  0.5130740000000  0.5282940000000 1.0
C      1  0.5253460000000  0.4862380000000  0.4241850000000 1.0
C      1  0.4205220000000  0.4822280000000  0.4749020000000 1.0
C      1  0.4736390000000  0.4865260000000  0.5771170000000 1.0
C      1  0.5779480000000  0.4817160000000  0.5238900000000 1.0
C      1  0.4551990000000  0.5131390000000  0.5399460000000 1.0
C      1  0.5385090000000  0.5106890000000  0.5394450000000 1.0
C      1  0.5460010000000  0.5131910000000  0.4596580000000 1.0
C      1  0.4618160000000  0.5101890000000  0.4609370000000 1.0
C      1  0.4535580000000  0.4861480000000  0.5426440000000 1.0
C      1  0.5324030000000  0.4836760000000  0.5353060000000 1.0
C      1  0.5479140000000  0.4861470000000  0.4570230000000 1.0
C      1  0.4687880000000  0.4831740000000  0.4649200000000 1.0
C      1  0.5681260000000  0.4677040000000  0.4640500000000 1.0
C      1  0.4734330000000  0.4666500000000  0.4412060000000 1.0
C      1  0.4346770000000  0.4672630000000  0.5335080000000 1.0
C      1  0.5283300000000  0.4665270000000  0.5585720000000 1.0
C      1  0.5659890000000  0.5304320000000  0.4689500000000 1.0
C      1  0.4703070000000  0.5259650000000  0.4400640000000 1.0
C      1  0.4345720000000  0.5298870000000  0.5311840000000 1.0
C      1  0.5300170000000  0.5264700000000  0.5603090000000 1.0
C      1  0.4786540000000  0.4697430000000  0.5518580000000 1.0
C      1  0.5569300000000  0.4675850000000  0.5119790000000 1.0
C      1  0.5218280000000  0.4700890000000  0.4507110000000 1.0
C      1  0.4414820000000  0.4679250000000  0.4855440000000 1.0
C      1  0.4817520000000  0.5292210000000  0.5491480000000 1.0
C      1  0.5521480000000  0.5276220000000  0.5167550000000 1.0
C      1  0.5181890000000  0.5290080000000  0.4519040000000 1.0
C      1  0.4478600000000  0.5270590000000  0.4833810000000 1.0
C      1  0.5041680000000  0.4312330000000  0.4618860000000 1.0
C      1  0.4632850000000  0.4324240000000  0.5012700000000 1.0
C      1  0.4905710000000  0.4330470000000  0.5399510000000 1.0
C      1  0.5380840000000  0.4356190000000  0.4977660000000 1.0
C      1  0.4902730000000  0.5662660000000  0.4633570000000 1.0
C      1  0.4522340000000  0.5697410000000  0.5024420000000 1.0
C      1  0.5092530000000  0.5665990000000  0.5368760000000 1.0
C      1  0.5476830000000  0.5703290000000  0.4976970000000 1.0
C      1  0.4661970000000  0.5019790000000  0.6042570000000 1.0
C      1  0.5312360000000  0.5008040000000  0.3962560000000 1.0
C      1  0.3962640000000  0.4984180000000  0.4615310000000 1.0
C      1  0.6028600000000  0.4968640000000  0.5376310000000 1.0
END
