TITL C-27130-3996-183 0.00643873663905821 125000 -328.130503093431 0 0 60 (C1) n - 1
REM
REM in /home/nfs/bkarasulu/CARBON/AIRSS/Generating-Clusters/AIREBO/Higher-Symm/Only-C60
REM
REM
REM
REM
REM
REM ./C.cell (28575a23ae977d3b5fae324c64b13b57)
REM
REM compiler GCC version 9.2.1 20190827 (Red Hat 9.2.1-1)
REM options -cpp -mtune=generic -march=x86-64 -g -O0 -fpre-include=/usr/include/finclude/math-vector-fortran.h
REM seed -1475977154 -387663640 1044433935 -1154527546 617184915 -1095405276 526141844 1270600206 -89936814 748718708 194852680 2045965667 -2135353109 -577189390 1646073902 -206275799 -990840898 1409264520 287717743 -876406936 1727479129 -1586873052 -222772822 -2105668817 212129074 2104421621 -657330068 -1264183563 -1468526098 1179085749 1731938597 -1492632499 -1314883487
REM
CELL 1.54180   50.00000   50.00000   50.00000   90.00000   90.00000   90.00000
LATT -1
SFAC C  
C      1  0.5202940000000  0.5379940000000  0.4202260000000 1.0
C      1  0.4114610000000  0.5277360000000  0.5259800000000 1.0
C      1  0.5681680000000  0.5310650000000  0.5581020000000 1.0
C      1  0.5012350000000  0.4231520000000  0.4536600000000 1.0
C      1  0.4675420000000  0.4218960000000  0.5109250000000 1.0
C      1  0.5172540000000  0.4214680000000  0.5366040000000 1.0
C      1  0.5055730000000  0.4955410000000  0.4826220000000 1.0
C      1  0.4713150000000  0.4967290000000  0.5026540000000 1.0
C      1  0.5085200000000  0.4956900000000  0.5165060000000 1.0
C      1  0.4456520000000  0.4988570000000  0.5567620000000 1.0
C      1  0.5721110000000  0.4932570000000  0.5193060000000 1.0
C      1  0.4789390000000  0.5034130000000  0.4268690000000 1.0
C      1  0.4118610000000  0.4624280000000  0.4875860000000 1.0
C      1  0.5426810000000  0.4664330000000  0.5861450000000 1.0
C      1  0.5509060000000  0.4648610000000  0.4234300000000 1.0
C      1  0.5358570000000  0.5924360000000  0.4936580000000 1.0
C      1  0.4816740000000  0.5950550000000  0.4813820000000 1.0
C      1  0.4888160000000  0.5950270000000  0.5241590000000 1.0
C      1  0.3963910000000  0.5420960000000  0.5100560000000 1.0
C      1  0.5647330000000  0.5496060000000  0.5763040000000 1.0
C      1  0.5403430000000  0.5548120000000  0.4187970000000 1.0
C      1  0.3642530000000  0.4819320000000  0.4740290000000 1.0
C      1  0.5684630000000  0.4888780000000  0.6269170000000 1.0
C      1  0.5876520000000  0.4861800000000  0.3913990000000 1.0
C      1  0.4646610000000  0.5039900000000  0.4506410000000 1.0
C      1  0.4728860000000  0.5036930000000  0.5545990000000 1.0
C      1  0.5578450000000  0.4968010000000  0.4957480000000 1.0
C      1  0.4363140000000  0.4804420000000  0.5741830000000 1.0
C      1  0.5881990000000  0.4717940000000  0.5225180000000 1.0
C      1  0.4719900000000  0.4863340000000  0.4071170000000 1.0
C      1  0.6058180000000  0.4982290000000  0.3768440000000 1.0
C      1  0.3417370000000  0.4932500000000  0.4668230000000 1.0
C      1  0.5802680000000  0.5016840000000  0.6465040000000 1.0
C      1  0.5172090000000  0.4479770000000  0.5418710000000 1.0
C      1  0.5113170000000  0.4480450000000  0.4566020000000 1.0
C      1  0.4614540000000  0.4474930000000  0.5031520000000 1.0
C      1  0.5012680000000  0.4652890000000  0.4744080000000 1.0
C      1  0.4834680000000  0.4678410000000  0.5013830000000 1.0
C      1  0.5052590000000  0.4654580000000  0.5253800000000 1.0
C      1  0.5332720000000  0.5663620000000  0.4942490000000 1.0
C      1  0.4807500000000  0.5688660000000  0.4808590000000 1.0
C      1  0.4880900000000  0.5688250000000  0.5243710000000 1.0
C      1  0.4898240000000  0.5030750000000  0.5761800000000 1.0
C      1  0.5682820000000  0.4906840000000  0.4711170000000 1.0
C      1  0.4375540000000  0.4997600000000  0.4516070000000 1.0
C      1  0.5008880000000  0.5201400000000  0.4239750000000 1.0
C      1  0.4282850000000  0.5126540000000  0.5400900000000 1.0
C      1  0.5690770000000  0.5118700000000  0.5396570000000 1.0
C      1  0.4787170000000  0.5124650000000  0.4754700000000 1.0
C      1  0.4833730000000  0.5124620000000  0.5281680000000 1.0
C      1  0.5313330000000  0.5098890000000  0.4972740000000 1.0
C      1  0.5320480000000  0.5401440000000  0.4970190000000 1.0
C      1  0.4811910000000  0.5426140000000  0.4781540000000 1.0
C      1  0.4848640000000  0.5426400000000  0.5251900000000 1.0
C      1  0.5324460000000  0.4561640000000  0.4405400000000 1.0
C      1  0.4365310000000  0.4547040000000  0.4939830000000 1.0
C      1  0.5290710000000  0.4572520000000  0.5651770000000 1.0
C      1  0.5544930000000  0.4775360000000  0.6072770000000 1.0
C      1  0.5702240000000  0.4751410000000  0.4082490000000 1.0
C      1  0.3883000000000  0.4718920000000  0.4795450000000 1.0
END
