TITL C-27135-6010-180 884.666246405184 125000 -323.538876951509 0 0 60 (C1) n - 1
REM
REM in /home/nfs/bkarasulu/CARBON/AIRSS/Generating-Clusters/AIREBO/Higher-Symm/Only-C60
REM
REM
REM
REM
REM
REM ./C.cell (28575a23ae977d3b5fae324c64b13b57)
REM
REM compiler GCC version 9.2.1 20190827 (Red Hat 9.2.1-1)
REM options -cpp -mtune=generic -march=x86-64 -g -O0 -fpre-include=/usr/include/finclude/math-vector-fortran.h
REM seed -1689890660 531597151 -767830687 283674915 2095756616 -1624108969 799630856 -1124467969 1758782950 1375599114 -1788575677 302630640 -462714926 13995795 1906544156 1282977260 1257267065 -1166838981 873923904 429030458 -416260426 575479338 847799081 -1402472390 -1577188783 -2117952034 -1187367706 -1918080561 362617693 -73289732 -732843659 1462301212 -1097871009
REM
CELL 1.54180   50.00000   50.00000   50.00000   90.00000   90.00000   90.00000
LATT -1
SFAC C  
C      1  0.5139980000000  0.5068540000000  0.5037050000000 1.0
C      1  0.4775940000000  0.4957830000000  0.4929560000000 1.0
C      1  0.5439950000000  0.5260840000000  0.5351000000000 1.0
C      1  0.4593880000000  0.4722340000000  0.4584890000000 1.0
C      1  0.4848160000000  0.4916580000000  0.5707330000000 1.0
C      1  0.5133990000000  0.5071750000000  0.4351640000000 1.0
C      1  0.5386520000000  0.5080560000000  0.5607310000000 1.0
C      1  0.4704260000000  0.4912030000000  0.4349090000000 1.0
C      1  0.5439960000000  0.4435220000000  0.4669970000000 1.0
C      1  0.4677220000000  0.5447180000000  0.5185770000000 1.0
C      1  0.5661840000000  0.5080170000000  0.5169130000000 1.0
C      1  0.4449280000000  0.4904770000000  0.4832790000000 1.0
C      1  0.5132770000000  0.4521220000000  0.4639530000000 1.0
C      1  0.4938250000000  0.5470310000000  0.5386730000000 1.0
C      1  0.5096230000000  0.5319120000000  0.4480010000000 1.0
C      1  0.5030180000000  0.4716740000000  0.5671120000000 1.0
C      1  0.4749920000000  0.5783870000000  0.4860650000000 1.0
C      1  0.4854650000000  0.4221210000000  0.5192270000000 1.0
C      1  0.4860420000000  0.5158690000000  0.5498390000000 1.0
C      1  0.5126820000000  0.4840370000000  0.4520570000000 1.0
C      1  0.4449930000000  0.5150490000000  0.5043450000000 1.0
C      1  0.5567830000000  0.4851310000000  0.4991360000000 1.0
C      1  0.4750700000000  0.5175130000000  0.4400550000000 1.0
C      1  0.5292210000000  0.4824140000000  0.5506130000000 1.0
C      1  0.4322050000000  0.5060060000000  0.5342210000000 1.0
C      1  0.5652490000000  0.4975780000000  0.4686410000000 1.0
C      1  0.4706530000000  0.5056450000000  0.5246130000000 1.0
C      1  0.5282040000000  0.4906800000000  0.4814330000000 1.0
C      1  0.4881560000000  0.5279230000000  0.4968810000000 1.0
C      1  0.5053150000000  0.4828280000000  0.5263050000000 1.0
C      1  0.4533270000000  0.5647150000000  0.4982960000000 1.0
C      1  0.5551970000000  0.4363540000000  0.4922110000000 1.0
C      1  0.4985670000000  0.5818990000000  0.5038780000000 1.0
C      1  0.4879560000000  0.4107170000000  0.4922950000000 1.0
C      1  0.4462550000000  0.4510730000000  0.4805480000000 1.0
C      1  0.5562070000000  0.5459150000000  0.5121000000000 1.0
C      1  0.5415790000000  0.4556450000000  0.5356310000000 1.0
C      1  0.4547210000000  0.5352400000000  0.4597700000000 1.0
C      1  0.5163480000000  0.5307460000000  0.5546830000000 1.0
C      1  0.4882030000000  0.4636540000000  0.4441700000000 1.0
C      1  0.5582280000000  0.5229190000000  0.4624710000000 1.0
C      1  0.4435240000000  0.4813080000000  0.5411010000000 1.0
C      1  0.4817910000000  0.5496180000000  0.4460390000000 1.0
C      1  0.5138040000000  0.4462320000000  0.5516910000000 1.0
C      1  0.4701740000000  0.4398470000000  0.5364330000000 1.0
C      1  0.5253590000000  0.5699400000000  0.4767960000000 1.0
C      1  0.4453990000000  0.5325170000000  0.5400390000000 1.0
C      1  0.5490280000000  0.4716930000000  0.4624050000000 1.0
C      1  0.4730910000000  0.4719260000000  0.5271460000000 1.0
C      1  0.5316670000000  0.5384180000000  0.4681500000000 1.0
C      1  0.4955380000000  0.5536190000000  0.4758210000000 1.0
C      1  0.5052960000000  0.4493870000000  0.5200690000000 1.0
C      1  0.5814420000000  0.5315440000000  0.5042950000000 1.0
C      1  0.4215440000000  0.4664290000000  0.4900220000000 1.0
C      1  0.4974930000000  0.4432120000000  0.4877320000000 1.0
C      1  0.5081380000000  0.5588850000000  0.5142230000000 1.0
C      1  0.5264600000000  0.5384160000000  0.5012990000000 1.0
C      1  0.4730960000000  0.4621750000000  0.4945400000000 1.0
C      1  0.5548340000000  0.4571720000000  0.5118290000000 1.0
C      1  0.4458600000000  0.5390850000000  0.4855930000000 1.0
END
