TITL C-27141-4733-87 16.2308805011023 125000 -302.73856118042 0 0 60 (C1) n - 1
REM
REM in /home/nfs/bkarasulu/CARBON/AIRSS/Generating-Clusters/AIREBO/Higher-Symm/Only-C60
REM
REM
REM
REM
REM
REM ./C.cell (28575a23ae977d3b5fae324c64b13b57)
REM
REM compiler GCC version 9.2.1 20190827 (Red Hat 9.2.1-1)
REM options -cpp -mtune=generic -march=x86-64 -g -O0 -fpre-include=/usr/include/finclude/math-vector-fortran.h
REM seed 1131869538 -188224483 -364812398 1533266564 -1691372701 1745682218 164546522 -1504711530 -689656843 -1082029548 1914003650 89422802 875143567 1270158186 -1929136870 1303265020 583410624 1858127521 -59114530 -1304737309 787124026 -136963577 -720116482 -2093086323 -1363670653 -404009826 -1796175025 -1108943825 -1775113942 -839202789 -1130723861 765951564 1129318651
REM
CELL 1.54180   50.00000   50.00000   50.00000   90.00000   90.00000   90.00000
LATT -1
SFAC C  
C      1  0.5752900000000  0.5116850000000  0.5254460000000 1.0
C      1  0.5746680000000  0.5142570000000  0.4708330000000 1.0
C      1  0.5518950000000  0.5077610000000  0.4386110000000 1.0
C      1  0.5043130000000  0.5076630000000  0.4207820000000 1.0
C      1  0.4643200000000  0.5093880000000  0.4319560000000 1.0
C      1  0.4326910000000  0.5104170000000  0.4559300000000 1.0
C      1  0.4133640000000  0.5121470000000  0.5082980000000 1.0
C      1  0.4304780000000  0.5090040000000  0.5486800000000 1.0
C      1  0.4824000000000  0.5101860000000  0.5713650000000 1.0
C      1  0.5148850000000  0.5093030000000  0.5795670000000 1.0
C      1  0.5554810000000  0.5119720000000  0.5598860000000 1.0
C      1  0.5334400000000  0.5317350000000  0.4541270000000 1.0
C      1  0.5043780000000  0.5294690000000  0.4448110000000 1.0
C      1  0.4735850000000  0.5326260000000  0.4540920000000 1.0
C      1  0.4498310000000  0.5317320000000  0.4761480000000 1.0
C      1  0.4391510000000  0.5340850000000  0.5051560000000 1.0
C      1  0.4509140000000  0.5326870000000  0.5353410000000 1.0
C      1  0.4771470000000  0.5358620000000  0.5496980000000 1.0
C      1  0.5106130000000  0.5324270000000  0.5547520000000 1.0
C      1  0.5383500000000  0.5334330000000  0.5417750000000 1.0
C      1  0.5522770000000  0.5332380000000  0.5127190000000 1.0
C      1  0.5517050000000  0.5356370000000  0.4823210000000 1.0
C      1  0.4937350000000  0.4785140000000  0.5664030000000 1.0
C      1  0.5239500000000  0.4746510000000  0.5766640000000 1.0
C      1  0.5635660000000  0.4810030000000  0.5483470000000 1.0
C      1  0.5802500000000  0.4811680000000  0.5114360000000 1.0
C      1  0.5708290000000  0.4816720000000  0.4615660000000 1.0
C      1  0.5431210000000  0.4750940000000  0.4339500000000 1.0
C      1  0.4898440000000  0.4771130000000  0.4244610000000 1.0
C      1  0.4529510000000  0.4785200000000  0.4389190000000 1.0
C      1  0.4231010000000  0.4796600000000  0.4668120000000 1.0
C      1  0.4163410000000  0.4798380000000  0.5191760000000 1.0
C      1  0.4425250000000  0.4782630000000  0.5568250000000 1.0
C      1  0.4863560000000  0.4948300000000  0.4533840000000 1.0
C      1  0.4597930000000  0.4939490000000  0.4684350000000 1.0
C      1  0.4387270000000  0.4966720000000  0.4917630000000 1.0
C      1  0.4464080000000  0.4955260000000  0.5217300000000 1.0
C      1  0.4675540000000  0.4975100000000  0.5442070000000 1.0
C      1  0.4979090000000  0.4938760000000  0.5361240000000 1.0
C      1  0.5268220000000  0.4962300000000  0.5505330000000 1.0
C      1  0.5453570000000  0.4955130000000  0.5235610000000 1.0
C      1  0.5561830000000  0.4979650000000  0.4942690000000 1.0
C      1  0.5402620000000  0.4951400000000  0.4679700000000 1.0
C      1  0.5170990000000  0.4918450000000  0.4480320000000 1.0
C      1  0.4979740000000  0.4568260000000  0.4505140000000 1.0
C      1  0.4675640000000  0.4560100000000  0.4587490000000 1.0
C      1  0.4445480000000  0.4589810000000  0.4800990000000 1.0
C      1  0.4406930000000  0.4580760000000  0.5096600000000 1.0
C      1  0.4586770000000  0.4597320000000  0.5346570000000 1.0
C      1  0.4870820000000  0.4559100000000  0.5422250000000 1.0
C      1  0.5207240000000  0.4567940000000  0.5478580000000 1.0
C      1  0.5457830000000  0.4571100000000  0.5339070000000 1.0
C      1  0.5570730000000  0.4596550000000  0.5055270000000 1.0
C      1  0.5521470000000  0.4581940000000  0.4764200000000 1.0
C      1  0.5274100000000  0.4541440000000  0.4555960000000 1.0
C      1  0.4953060000000  0.5321960000000  0.4972220000000 1.0
C      1  0.5028650000000  0.5850570000000  0.5012220000000 1.0
C      1  0.5074820000000  0.6106990000000  0.5040420000000 1.0
C      1  0.5003090000000  0.5585870000000  0.4997820000000 1.0
C      1  0.4988050000000  0.5075450000000  0.5081160000000 1.0
END
