TITL C-27131-4585-76 -0.00148591439409543 125000 -334.330414207612 0 0 60 (C1) n - 1
REM
REM in /home/nfs/bkarasulu/CARBON/AIRSS/Generating-Clusters/AIREBO/Higher-Symm/Only-C60
REM
REM
REM
REM
REM
REM ./C.cell (28575a23ae977d3b5fae324c64b13b57)
REM
REM compiler GCC version 9.2.1 20190827 (Red Hat 9.2.1-1)
REM options -cpp -mtune=generic -march=x86-64 -g -O0 -fpre-include=/usr/include/finclude/math-vector-fortran.h
REM seed 75867834 -477387969 -983544006 -641292498 -930412630 -1968951400 438320853 -921692277 -251922852 1890735945 -1793915134 -1658160155 425862730 -1798369487 1518010082 -463270665 910336625 533184733 102589727 -476461622 1664904793 -1480041137 1616083174 -3009071 1695524200 -1566687742 1966900109 1914015329 -543411928 1091457075 1144975250 -1346607831 839985852
REM
CELL 1.54180   50.00000   50.00000   50.00000   90.00000   90.00000   90.00000
LATT -1
SFAC C  
C      1  0.4838920000000  0.4378420000000  0.4642580000000 1.0
C      1  0.4652810000000  0.4857050000000  0.4382440000000 1.0
C      1  0.4369460000000  0.4645750000000  0.4852730000000 1.0
C      1  0.5093230000000  0.4434690000000  0.5352590000000 1.0
C      1  0.4854480000000  0.5587270000000  0.5381880000000 1.0
C      1  0.5103550000000  0.5552010000000  0.4624790000000 1.0
C      1  0.5394310000000  0.4868030000000  0.5599470000000 1.0
C      1  0.4663050000000  0.5106800000000  0.5553760000000 1.0
C      1  0.5392010000000  0.5145120000000  0.4375450000000 1.0
C      1  0.5555290000000  0.4628560000000  0.5109440000000 1.0
C      1  0.4376060000000  0.5352090000000  0.5164270000000 1.0
C      1  0.5585490000000  0.5385370000000  0.4857150000000 1.0
C      1  0.4638920000000  0.4446510000000  0.4900480000000 1.0
C      1  0.4436130000000  0.4877660000000  0.4622440000000 1.0
C      1  0.4878670000000  0.4650990000000  0.4456130000000 1.0
C      1  0.5350650000000  0.4363440000000  0.5153350000000 1.0
C      1  0.5359190000000  0.5629560000000  0.4822500000000 1.0
C      1  0.4653720000000  0.5541880000000  0.5114030000000 1.0
C      1  0.5633860000000  0.4828400000000  0.5368370000000 1.0
C      1  0.5562010000000  0.5118560000000  0.4660370000000 1.0
C      1  0.4378470000000  0.5128830000000  0.5386750000000 1.0
C      1  0.5128100000000  0.4669570000000  0.5572120000000 1.0
C      1  0.5152290000000  0.5347490000000  0.4360840000000 1.0
C      1  0.4845110000000  0.5356480000000  0.5624170000000 1.0
C      1  0.4603900000000  0.5624570000000  0.4797340000000 1.0
C      1  0.4824030000000  0.4578350000000  0.5609010000000 1.0
C      1  0.5642530000000  0.4795760000000  0.4605570000000 1.0
C      1  0.5372200000000  0.5556470000000  0.5146860000000 1.0
C      1  0.4589370000000  0.4379930000000  0.5219460000000 1.0
C      1  0.5377030000000  0.4421820000000  0.4819380000000 1.0
C      1  0.5211500000000  0.4651710000000  0.4411590000000 1.0
C      1  0.4817210000000  0.5377050000000  0.4410410000000 1.0
C      1  0.5144350000000  0.5377180000000  0.5558450000000 1.0
C      1  0.4435440000000  0.4827880000000  0.5383370000000 1.0
C      1  0.5559050000000  0.5156230000000  0.5379910000000 1.0
C      1  0.4395930000000  0.5211570000000  0.4627160000000 1.0
C      1  0.4783290000000  0.5619050000000  0.4589870000000 1.0
C      1  0.5625080000000  0.4592750000000  0.4789080000000 1.0
C      1  0.4628520000000  0.4774480000000  0.5617580000000 1.0
C      1  0.5193080000000  0.5595630000000  0.5350290000000 1.0
C      1  0.5170620000000  0.4453160000000  0.4640290000000 1.0
C      1  0.4783050000000  0.4353100000000  0.5411600000000 1.0
C      1  0.4433560000000  0.4637320000000  0.5182550000000 1.0
C      1  0.4417670000000  0.5391310000000  0.4831750000000 1.0
C      1  0.5591820000000  0.5355270000000  0.5195850000000 1.0
C      1  0.5408550000000  0.4844870000000  0.4415470000000 1.0
C      1  0.5362090000000  0.5206680000000  0.5605350000000 1.0
C      1  0.4636740000000  0.5165120000000  0.4434090000000 1.0
C      1  0.4557710000000  0.4919470000000  0.4927730000000 1.0
C      1  0.5391160000000  0.4909780000000  0.5113560000000 1.0
C      1  0.4616610000000  0.5136490000000  0.5066890000000 1.0
C      1  0.5392690000000  0.5118690000000  0.4942820000000 1.0
C      1  0.5122650000000  0.4602370000000  0.5068550000000 1.0
C      1  0.4939970000000  0.5384320000000  0.5124530000000 1.0
C      1  0.5101890000000  0.5387230000000  0.4905670000000 1.0
C      1  0.4963790000000  0.4910840000000  0.4627440000000 1.0
C      1  0.4914830000000  0.4624910000000  0.4895360000000 1.0
C      1  0.5127560000000  0.4950610000000  0.5409170000000 1.0
C      1  0.4903610000000  0.5076810000000  0.5345070000000 1.0
C      1  0.5065160000000  0.5130700000000  0.4602830000000 1.0
END
