TITL C-27132-7279-59 -0.00173399251866247 125000 -327.551907751344 0 0 60 (C1) n - 1
REM
REM in /home/nfs/bkarasulu/CARBON/AIRSS/Generating-Clusters/AIREBO/Higher-Symm/Only-C60
REM
REM
REM
REM
REM
REM ./C.cell (28575a23ae977d3b5fae324c64b13b57)
REM
REM compiler GCC version 9.2.1 20190827 (Red Hat 9.2.1-1)
REM options -cpp -mtune=generic -march=x86-64 -g -O0 -fpre-include=/usr/include/finclude/math-vector-fortran.h
REM seed -611249409 -363181290 1239693223 -375180023 1472986921 -1008164684 -1605606005 -1174005681 1726937741 351156075 360191923 1768885349 -1493505140 313125266 1415206116 -2040863852 -1068353485 -1701691990 -226358707 -671135782 -2040433261 -735043811 -1155384488 -2138557750 -198258411 418586309 2087821603 -469155104 -1936490569 -222160866 1698474899 -246544586 -408604947
REM
CELL 1.54180   50.00000   50.00000   50.00000   90.00000   90.00000   90.00000
LATT -1
SFAC C  
C      1  0.5056160000000  0.4993780000000  0.5653030000000 1.0
C      1  0.5615270000000  0.4887900000000  0.5201060000000 1.0
C      1  0.5394040000000  0.4871520000000  0.4435070000000 1.0
C      1  0.4621610000000  0.4904880000000  0.4478930000000 1.0
C      1  0.4396690000000  0.4882800000000  0.5268100000000 1.0
C      1  0.4755510000000  0.4348810000000  0.4874470000000 1.0
C      1  0.4817300000000  0.4357090000000  0.5175400000000 1.0
C      1  0.5102030000000  0.4238820000000  0.5181640000000 1.0
C      1  0.5257390000000  0.4378570000000  0.4955000000000 1.0
C      1  0.5043230000000  0.4414770000000  0.4735130000000 1.0
C      1  0.4902480000000  0.5827240000000  0.4778400000000 1.0
C      1  0.4720300000000  0.5829220000000  0.5064790000000 1.0
C      1  0.4977460000000  0.5910230000000  0.5264950000000 1.0
C      1  0.5202340000000  0.5968450000000  0.5112300000000 1.0
C      1  0.5186490000000  0.5824960000000  0.4862800000000 1.0
C      1  0.4319040000000  0.4827650000000  0.4995790000000 1.0
C      1  0.4766190000000  0.4964060000000  0.5607600000000 1.0
C      1  0.5526910000000  0.4826190000000  0.5461900000000 1.0
C      1  0.5592030000000  0.4803090000000  0.4620480000000 1.0
C      1  0.4882410000000  0.4956530000000  0.4351540000000 1.0
C      1  0.5076400000000  0.5102370000000  0.5187100000000 1.0
C      1  0.5300140000000  0.4988130000000  0.4976960000000 1.0
C      1  0.5046780000000  0.5046990000000  0.4792610000000 1.0
C      1  0.4747510000000  0.4956170000000  0.4853220000000 1.0
C      1  0.4792300000000  0.4966210000000  0.5154560000000 1.0
C      1  0.5205840000000  0.4099610000000  0.5375110000000 1.0
C      1  0.5496240000000  0.4213390000000  0.4860390000000 1.0
C      1  0.5089780000000  0.4241340000000  0.4487540000000 1.0
C      1  0.4609070000000  0.4106870000000  0.4770310000000 1.0
C      1  0.4616640000000  0.4197630000000  0.5340910000000 1.0
C      1  0.5297320000000  0.5347970000000  0.5411740000000 1.0
C      1  0.5473830000000  0.5358120000000  0.4782750000000 1.0
C      1  0.4943070000000  0.5328540000000  0.4482570000000 1.0
C      1  0.4495590000000  0.5372960000000  0.4896790000000 1.0
C      1  0.4733630000000  0.5435380000000  0.5469750000000 1.0
C      1  0.4418640000000  0.4778590000000  0.4724480000000 1.0
C      1  0.4614320000000  0.4756260000000  0.5443040000000 1.0
C      1  0.5243890000000  0.4820220000000  0.5526270000000 1.0
C      1  0.5615680000000  0.4760310000000  0.4897820000000 1.0
C      1  0.5124340000000  0.4740580000000  0.4353060000000 1.0
C      1  0.5107600000000  0.5418550000000  0.5164610000000 1.0
C      1  0.5245430000000  0.5525420000000  0.4887590000000 1.0
C      1  0.4982890000000  0.5380980000000  0.4786830000000 1.0
C      1  0.4731000000000  0.5549730000000  0.4880700000000 1.0
C      1  0.4868560000000  0.5588350000000  0.5254150000000 1.0
C      1  0.4899620000000  0.5426360000000  0.5688950000000 1.0
C      1  0.5548650000000  0.5282710000000  0.5315280000000 1.0
C      1  0.5454090000000  0.5281390000000  0.4509180000000 1.0
C      1  0.4674100000000  0.5295560000000  0.4425290000000 1.0
C      1  0.4396240000000  0.5318540000000  0.5146620000000 1.0
C      1  0.5014170000000  0.4736340000000  0.4656060000000 1.0
C      1  0.4711200000000  0.4632980000000  0.4753840000000 1.0
C      1  0.4834360000000  0.4643260000000  0.5254630000000 1.0
C      1  0.5122460000000  0.4768640000000  0.5255050000000 1.0
C      1  0.5331630000000  0.4655930000000  0.5042260000000 1.0
C      1  0.5572670000000  0.5159380000000  0.5000790000000 1.0
C      1  0.5170150000000  0.5127340000000  0.4421600000000 1.0
C      1  0.4532880000000  0.5159090000000  0.4686610000000 1.0
C      1  0.4591220000000  0.5145500000000  0.5362060000000 1.0
C      1  0.5135180000000  0.5269780000000  0.5642530000000 1.0
END
