TITL C-27141-4733-44 -597.969599915686 125000 -310.764265101016 0 0 60 (C2) n - 1
REM
REM in /home/nfs/bkarasulu/CARBON/AIRSS/Generating-Clusters/AIREBO/Higher-Symm/Only-C60
REM
REM
REM
REM
REM
REM ./C.cell (28575a23ae977d3b5fae324c64b13b57)
REM
REM compiler GCC version 9.2.1 20190827 (Red Hat 9.2.1-1)
REM options -cpp -mtune=generic -march=x86-64 -g -O0 -fpre-include=/usr/include/finclude/math-vector-fortran.h
REM seed -269364614 1858959613 1816578637 -440908370 -937378985 -1435500526 892505995 -1173577382 -1019423265 1809020240 -355233977 -1046264179 -1032708806 -1582353890 230648339 -278190338 960408609 -478694364 1688760574 965778779 1453206172 -96118321 -352334305 337404196 -617349590 -1841921955 -988602186 1779757006 166938893 1199658812 1934670249 -1389507412 -1448037674
REM
CELL 1.54180   50.00000   50.00000   50.00000   90.00000   90.00000   90.00000
LATT -1
SFAC C  
C      1  0.5488900000000  0.5071230000000  0.4691340000000 1.0
C      1  0.4479280000000  0.5123170000000  0.5268040000000 1.0
C      1  0.5488890000000  0.4928740000000  0.5308680000000 1.0
C      1  0.4479250000000  0.4876840000000  0.4731890000000 1.0
C      1  0.4743220000000  0.5078120000000  0.5474360000000 1.0
C      1  0.5265950000000  0.5122260000000  0.4443810000000 1.0
C      1  0.5265930000000  0.4877730000000  0.5556200000000 1.0
C      1  0.4743220000000  0.4921900000000  0.4525620000000 1.0
C      1  0.5105810000000  0.4504440000000  0.4455270000000 1.0
C      1  0.4901880000000  0.4507740000000  0.5538770000000 1.0
C      1  0.5105830000000  0.5495560000000  0.5544730000000 1.0
C      1  0.4901930000000  0.5492270000000  0.4461230000000 1.0
C      1  0.4471120000000  0.4515720000000  0.5128750000000 1.0
C      1  0.5585480000000  0.4562590000000  0.4835890000000 1.0
C      1  0.5585510000000  0.5437380000000  0.5164120000000 1.0
C      1  0.4471160000000  0.5484290000000  0.4871230000000 1.0
C      1  0.5148040000000  0.5085830000000  0.5781000000000 1.0
C      1  0.4793040000000  0.5094660000000  0.4249980000000 1.0
C      1  0.5148060000000  0.4914160000000  0.4219000000000 1.0
C      1  0.4793020000000  0.4905350000000  0.5750020000000 1.0
C      1  0.5713890000000  0.5138650000000  0.5203370000000 1.0
C      1  0.4239290000000  0.5079050000000  0.4816550000000 1.0
C      1  0.4239300000000  0.4920980000000  0.5183430000000 1.0
C      1  0.5713890000000  0.4861310000000  0.4796650000000 1.0
C      1  0.5104590000000  0.4558920000000  0.5282730000000 1.0
C      1  0.4946930000000  0.4640230000000  0.4719670000000 1.0
C      1  0.5104620000000  0.5441080000000  0.4717280000000 1.0
C      1  0.4946950000000  0.5359790000000  0.5280340000000 1.0
C      1  0.5322800000000  0.4568310000000  0.5043660000000 1.0
C      1  0.4746960000000  0.4599990000000  0.4955890000000 1.0
C      1  0.4746980000000  0.5400020000000  0.5044110000000 1.0
C      1  0.5322830000000  0.5431680000000  0.4956350000000 1.0
C      1  0.5330750000000  0.5136700000000  0.5091060000000 1.0
C      1  0.4682060000000  0.5112480000000  0.4874460000000 1.0
C      1  0.5330740000000  0.4863280000000  0.4908950000000 1.0
C      1  0.4682050000000  0.4887520000000  0.5125570000000 1.0
C      1  0.5130090000000  0.5100300000000  0.5336030000000 1.0
C      1  0.4932960000000  0.5158590000000  0.4679370000000 1.0
C      1  0.4932960000000  0.4841410000000  0.5320630000000 1.0
C      1  0.5130080000000  0.4899700000000  0.4663970000000 1.0
C      1  0.4962780000000  0.5255990000000  0.5664170000000 1.0
C      1  0.4996750000000  0.5274310000000  0.4302200000000 1.0
C      1  0.4962780000000  0.4744020000000  0.4335830000000 1.0
C      1  0.4996710000000  0.4725690000000  0.5697810000000 1.0
C      1  0.5669500000000  0.5245400000000  0.4892630000000 1.0
C      1  0.4330510000000  0.5263200000000  0.4998160000000 1.0
C      1  0.4330480000000  0.4736820000000  0.5001810000000 1.0
C      1  0.5669490000000  0.4754560000000  0.5107390000000 1.0
C      1  0.5168520000000  0.4290050000000  0.4998020000000 1.0
C      1  0.4774770000000  0.4272810000000  0.5044290000000 1.0
C      1  0.5168560000000  0.5709950000000  0.5001990000000 1.0
C      1  0.4774810000000  0.5727210000000  0.4955700000000 1.0
C      1  0.4995110000000  0.4237360000000  0.5263000000000 1.0
C      1  0.4962360000000  0.4317030000000  0.4776620000000 1.0
C      1  0.4962400000000  0.5682980000000  0.5223380000000 1.0
C      1  0.4995160000000  0.5762640000000  0.4737000000000 1.0
C      1  0.5323680000000  0.4531180000000  0.4646360000000 1.0
C      1  0.4682870000000  0.5476300000000  0.4658210000000 1.0
C      1  0.5323700000000  0.5468810000000  0.5353650000000 1.0
C      1  0.4682820000000  0.4523710000000  0.5341780000000 1.0
END
