TITL C-27132-7279-201 0.000789188803761485 125000 -341.768797680568 0 0 60 (C1) n - 1
REM
REM in /home/nfs/bkarasulu/CARBON/AIRSS/Generating-Clusters/AIREBO/Higher-Symm/Only-C60
REM
REM
REM
REM
REM
REM ./C.cell (28575a23ae977d3b5fae324c64b13b57)
REM
REM compiler GCC version 9.2.1 20190827 (Red Hat 9.2.1-1)
REM options -cpp -mtune=generic -march=x86-64 -g -O0 -fpre-include=/usr/include/finclude/math-vector-fortran.h
REM seed 845659484 551962221 2014663719 -1428908681 1409778680 -1761984740 1611966762 543008681 1361905198 1964783714 -2098796314 2042250682 1504080217 -1179145734 691778333 1437617902 1347270353 137000314 1530541046 541903835 2077393273 -1325822521 2031807797 -1249297481 -1936549119 -239395210 -1469118072 -381186783 846850784 -441969140 -571397982 1758053412 -1522553624
REM
CELL 1.54180   50.00000   50.00000   50.00000   90.00000   90.00000   90.00000
LATT -1
SFAC C  
C      1  0.5260610000000  0.5353370000000  0.4248640000000 1.0
C      1  0.5221420000000  0.4573740000000  0.4318460000000 1.0
C      1  0.5057180000000  0.4289610000000  0.5170700000000 1.0
C      1  0.5044990000000  0.4647760000000  0.5719530000000 1.0
C      1  0.5142530000000  0.5569270000000  0.5539300000000 1.0
C      1  0.5225050000000  0.5826870000000  0.4852280000000 1.0
C      1  0.5654780000000  0.4513380000000  0.5253170000000 1.0
C      1  0.5677450000000  0.4943360000000  0.5536070000000 1.0
C      1  0.5738980000000  0.5409450000000  0.5308660000000 1.0
C      1  0.5773390000000  0.5453420000000  0.4794890000000 1.0
C      1  0.5763380000000  0.5021170000000  0.4511480000000 1.0
C      1  0.5710180000000  0.4556660000000  0.4738910000000 1.0
C      1  0.4818660000000  0.4850650000000  0.4365350000000 1.0
C      1  0.4863660000000  0.4347980000000  0.4733850000000 1.0
C      1  0.4878140000000  0.4471600000000  0.5518530000000 1.0
C      1  0.4941550000000  0.5175310000000  0.5728460000000 1.0
C      1  0.4853030000000  0.5671260000000  0.5155360000000 1.0
C      1  0.4846280000000  0.5471960000000  0.4493900000000 1.0
C      1  0.5042630000000  0.4475770000000  0.4957980000000 1.0
C      1  0.5024550000000  0.4754180000000  0.5397250000000 1.0
C      1  0.5090270000000  0.5296810000000  0.5483660000000 1.0
C      1  0.5130940000000  0.5605580000000  0.4990560000000 1.0
C      1  0.5145190000000  0.5332240000000  0.4502510000000 1.0
C      1  0.5115780000000  0.4776870000000  0.4479940000000 1.0
C      1  0.4911120000000  0.4770270000000  0.4967300000000 1.0
C      1  0.4822010000000  0.4918800000000  0.5227990000000 1.0
C      1  0.4929210000000  0.5200710000000  0.5223870000000 1.0
C      1  0.4955240000000  0.5327930000000  0.4981470000000 1.0
C      1  0.4963970000000  0.5189540000000  0.4747810000000 1.0
C      1  0.4943410000000  0.4919000000000  0.4736250000000 1.0
C      1  0.4493370000000  0.5052750000000  0.5558190000000 1.0
C      1  0.4359560000000  0.5517230000000  0.5201040000000 1.0
C      1  0.4354040000000  0.5358170000000  0.4621660000000 1.0
C      1  0.4321770000000  0.4864670000000  0.4506950000000 1.0
C      1  0.4370250000000  0.4460110000000  0.4814560000000 1.0
C      1  0.4389980000000  0.4468540000000  0.5376290000000 1.0
C      1  0.5301310000000  0.4686450000000  0.4968650000000 1.0
C      1  0.5287560000000  0.4835510000000  0.5261980000000 1.0
C      1  0.5321210000000  0.5163810000000  0.5289650000000 1.0
C      1  0.5352080000000  0.5350420000000  0.5012650000000 1.0
C      1  0.5361600000000  0.5197730000000  0.4720680000000 1.0
C      1  0.5337880000000  0.4870970000000  0.4704760000000 1.0
C      1  0.4302250000000  0.4700010000000  0.4948700000000 1.0
C      1  0.4373500000000  0.4705820000000  0.5222290000000 1.0
C      1  0.4537390000000  0.4910860000000  0.5321410000000 1.0
C      1  0.4199210000000  0.5342370000000  0.5066330000000 1.0
C      1  0.4247140000000  0.5199040000000  0.4829730000000 1.0
C      1  0.4258390000000  0.4921690000000  0.4777960000000 1.0
C      1  0.4586400000000  0.5663770000000  0.5179860000000 1.0
C      1  0.4583640000000  0.5421530000000  0.4495190000000 1.0
C      1  0.4554530000000  0.4814690000000  0.4377940000000 1.0
C      1  0.4593740000000  0.4323820000000  0.4742520000000 1.0
C      1  0.4627610000000  0.4370780000000  0.5474130000000 1.0
C      1  0.4673950000000  0.5129490000000  0.5749300000000 1.0
C      1  0.5660270000000  0.5256250000000  0.4628140000000 1.0
C      1  0.5629980000000  0.4790750000000  0.4603390000000 1.0
C      1  0.5573060000000  0.4524580000000  0.4983240000000 1.0
C      1  0.5550950000000  0.4728640000000  0.5403710000000 1.0
C      1  0.5604160000000  0.5192710000000  0.5427570000000 1.0
C      1  0.5647620000000  0.5462300000000  0.5047370000000 1.0
END
