TITL C-27139-4854-129 -0.0015842236010755 125000 -333.30745519633 0 0 60 (C1) n - 1
REM
REM in /home/nfs/bkarasulu/CARBON/AIRSS/Generating-Clusters/AIREBO/Higher-Symm/Only-C60
REM
REM
REM
REM
REM
REM ./C.cell (28575a23ae977d3b5fae324c64b13b57)
REM
REM compiler GCC version 9.2.1 20190827 (Red Hat 9.2.1-1)
REM options -cpp -mtune=generic -march=x86-64 -g -O0 -fpre-include=/usr/include/finclude/math-vector-fortran.h
REM seed 1113077000 -252458176 -1875710953 -480498810 -608526627 601036593 -1339272719 1864970505 -1751348559 1127296030 -636574517 -183125326 -673666043 -625108863 -1718830547 1269633219 1360257583 1503378501 -1017335660 -1296775047 -1548456935 1490640167 1432489400 2066105500 182514228 -2075927735 294264977 1222187337 -928122812 1944085494 1510961129 1552612905 -1748762581
REM
CELL 1.54180   50.00000   50.00000   50.00000   90.00000   90.00000   90.00000
LATT -1
SFAC C  
C      1  0.4716040000000  0.4976630000000  0.5765020000000 1.0
C      1  0.5312390000000  0.4872220000000  0.5753530000000 1.0
C      1  0.4362730000000  0.5198810000000  0.4576480000000 1.0
C      1  0.5610110000000  0.5194030000000  0.4593300000000 1.0
C      1  0.4919950000000  0.5200600000000  0.5764670000000 1.0
C      1  0.5176090000000  0.5135660000000  0.5700830000000 1.0
C      1  0.4854190000000  0.4887410000000  0.4313230000000 1.0
C      1  0.5148400000000  0.4934840000000  0.4238600000000 1.0
C      1  0.4681510000000  0.4514910000000  0.4585340000000 1.0
C      1  0.5329360000000  0.4607300000000  0.4548490000000 1.0
C      1  0.4842810000000  0.5487980000000  0.5264090000000 1.0
C      1  0.5181360000000  0.5506390000000  0.5304300000000 1.0
C      1  0.5555870000000  0.5347040000000  0.4829640000000 1.0
C      1  0.4412570000000  0.5348120000000  0.4820810000000 1.0
C      1  0.4713450000000  0.4359430000000  0.5068410000000 1.0
C      1  0.5347050000000  0.4405060000000  0.5045390000000 1.0
C      1  0.4613210000000  0.4722120000000  0.5389180000000 1.0
C      1  0.5404710000000  0.4747040000000  0.5374330000000 1.0
C      1  0.4818260000000  0.4590650000000  0.4349960000000 1.0
C      1  0.5145540000000  0.4618020000000  0.4305120000000 1.0
C      1  0.5611590000000  0.4652990000000  0.4732520000000 1.0
C      1  0.4487530000000  0.4699440000000  0.4696840000000 1.0
C      1  0.5699690000000  0.4577250000000  0.4973390000000 1.0
C      1  0.4385280000000  0.4711920000000  0.4960440000000 1.0
C      1  0.5248770000000  0.5204210000000  0.5402820000000 1.0
C      1  0.4746550000000  0.5263880000000  0.5490900000000 1.0
C      1  0.4509000000000  0.4548710000000  0.5178700000000 1.0
C      1  0.5544320000000  0.4533580000000  0.5238290000000 1.0
C      1  0.5088600000000  0.4999840000000  0.5224600000000 1.0
C      1  0.4765200000000  0.5080770000000  0.5213020000000 1.0
C      1  0.4883100000000  0.4374730000000  0.4784040000000 1.0
C      1  0.5170810000000  0.4494670000000  0.4799130000000 1.0
C      1  0.4825840000000  0.5058880000000  0.4595160000000 1.0
C      1  0.5163640000000  0.5073000000000  0.4558290000000 1.0
C      1  0.4658810000000  0.5508070000000  0.4768630000000 1.0
C      1  0.5300390000000  0.5503430000000  0.4790730000000 1.0
C      1  0.4804660000000  0.4659630000000  0.4936840000000 1.0
C      1  0.5314320000000  0.4740460000000  0.4985200000000 1.0
C      1  0.5562970000000  0.5104770000000  0.5457420000000 1.0
C      1  0.4292250000000  0.5035070000000  0.5485540000000 1.0
C      1  0.4799060000000  0.4773910000000  0.5583680000000 1.0
C      1  0.5098220000000  0.4799100000000  0.5499450000000 1.0
C      1  0.4476940000000  0.5141040000000  0.5659350000000 1.0
C      1  0.5583880000000  0.4937300000000  0.5676440000000 1.0
C      1  0.4839800000000  0.4949540000000  0.4916920000000 1.0
C      1  0.5151470000000  0.4997570000000  0.4890320000000 1.0
C      1  0.5590280000000  0.5271880000000  0.5095450000000 1.0
C      1  0.4395090000000  0.5268820000000  0.5087790000000 1.0
C      1  0.4507690000000  0.4952590000000  0.4583760000000 1.0
C      1  0.5465050000000  0.4917420000000  0.4583360000000 1.0
C      1  0.5260690000000  0.5374350000000  0.4525580000000 1.0
C      1  0.4722110000000  0.5364590000000  0.4521570000000 1.0
C      1  0.5521500000000  0.5368190000000  0.4351380000000 1.0
C      1  0.4470760000000  0.5362190000000  0.4333720000000 1.0
C      1  0.5121110000000  0.5571040000000  0.4990450000000 1.0
C      1  0.4831510000000  0.5605910000000  0.4953840000000 1.0
C      1  0.5487500000000  0.4976940000000  0.5158340000000 1.0
C      1  0.4450940000000  0.4951650000000  0.5197550000000 1.0
C      1  0.5514200000000  0.5470030000000  0.5272650000000 1.0
C      1  0.4503270000000  0.5466360000000  0.5255150000000 1.0
END
