TITL C-27134-4977-34 0.00603002666722758 125000 -306.402945309373 0 0 60 (C1) n - 1
REM
REM in /home/nfs/bkarasulu/CARBON/AIRSS/Generating-Clusters/AIREBO/Higher-Symm/Only-C60
REM
REM
REM
REM
REM
REM ./C.cell (28575a23ae977d3b5fae324c64b13b57)
REM
REM compiler GCC version 9.2.1 20190827 (Red Hat 9.2.1-1)
REM options -cpp -mtune=generic -march=x86-64 -g -O0 -fpre-include=/usr/include/finclude/math-vector-fortran.h
REM seed -576779382 -813249647 965472854 1654654445 -1915391259 -547995369 1142817378 2130725055 -503065051 -734442902 -2019967839 1061818979 843648682 -797961694 -924185764 827807360 754792502 1129347244 -184308815 -766537719 1508770365 1663313146 1765418224 59603240 1964459801 592359255 630048062 -570113149 -1940010014 -1133154844 696788847 -1637001728 -14831874
REM
CELL 1.54180   50.00000   50.00000   50.00000   90.00000   90.00000   90.00000
LATT -1
SFAC C  
C      1  0.5665430000000  0.5118280000000  0.5256810000000 1.0
C      1  0.4611910000000  0.5003830000000  0.4717910000000 1.0
C      1  0.5213100000000  0.4425740000000  0.5163170000000 1.0
C      1  0.5591390000000  0.4378610000000  0.5514020000000 1.0
C      1  0.4521520000000  0.4146120000000  0.4932070000000 1.0
C      1  0.5099770000000  0.5348020000000  0.5615930000000 1.0
C      1  0.4514060000000  0.5734830000000  0.4771500000000 1.0
C      1  0.5357250000000  0.4889990000000  0.5602820000000 1.0
C      1  0.4162270000000  0.4769160000000  0.5318070000000 1.0
C      1  0.5266330000000  0.5669000000000  0.5149810000000 1.0
C      1  0.5153450000000  0.5580510000000  0.4672660000000 1.0
C      1  0.5028580000000  0.4360420000000  0.5794310000000 1.0
C      1  0.5379920000000  0.5612760000000  0.4895700000000 1.0
C      1  0.5080410000000  0.4486050000000  0.5530340000000 1.0
C      1  0.5396780000000  0.4494720000000  0.4546430000000 1.0
C      1  0.5351940000000  0.4641270000000  0.4350410000000 1.0
C      1  0.4982780000000  0.5560540000000  0.5157030000000 1.0
C      1  0.4865030000000  0.5140840000000  0.5075750000000 1.0
C      1  0.4434870000000  0.4863510000000  0.5233260000000 1.0
C      1  0.4257060000000  0.5737050000000  0.4777320000000 1.0
C      1  0.5589670000000  0.4902260000000  0.4536520000000 1.0
C      1  0.5045940000000  0.5066570000000  0.4472620000000 1.0
C      1  0.4376990000000  0.4765730000000  0.4656420000000 1.0
C      1  0.4826960000000  0.5663670000000  0.4723180000000 1.0
C      1  0.4729580000000  0.4713680000000  0.5301820000000 1.0
C      1  0.5191890000000  0.4914460000000  0.5077780000000 1.0
C      1  0.4536260000000  0.5137700000000  0.5362300000000 1.0
C      1  0.5133230000000  0.5058880000000  0.5648890000000 1.0
C      1  0.5127800000000  0.5200860000000  0.5250500000000 1.0
C      1  0.5516350000000  0.4857210000000  0.5304110000000 1.0
C      1  0.5333130000000  0.4965670000000  0.4340280000000 1.0
C      1  0.4885460000000  0.5471500000000  0.5416750000000 1.0
C      1  0.5299400000000  0.5437840000000  0.5368140000000 1.0
C      1  0.4612720000000  0.5384220000000  0.5452000000000 1.0
C      1  0.5313250000000  0.4457810000000  0.4839790000000 1.0
C      1  0.5428000000000  0.4721370000000  0.5006640000000 1.0
C      1  0.5587470000000  0.5326720000000  0.5420190000000 1.0
C      1  0.4560670000000  0.4739890000000  0.4941460000000 1.0
C      1  0.4802920000000  0.5214280000000  0.4615420000000 1.0
C      1  0.4955650000000  0.5383860000000  0.4867590000000 1.0
C      1  0.4317340000000  0.3976050000000  0.4934980000000 1.0
C      1  0.5315110000000  0.5279750000000  0.4268950000000 1.0
C      1  0.5390540000000  0.4582450000000  0.5459970000000 1.0
C      1  0.4670820000000  0.5400150000000  0.4445770000000 1.0
C      1  0.5085380000000  0.4224600000000  0.4844560000000 1.0
C      1  0.4714250000000  0.6213010000000  0.4562370000000 1.0
C      1  0.5235940000000  0.5474960000000  0.4398830000000 1.0
C      1  0.5057210000000  0.4781200000000  0.5362780000000 1.0
C      1  0.5464030000000  0.5331750000000  0.4879140000000 1.0
C      1  0.4907560000000  0.4432100000000  0.5242550000000 1.0
C      1  0.5689900000000  0.5200800000000  0.4987210000000 1.0
C      1  0.4108500000000  0.4834670000000  0.4686650000000 1.0
C      1  0.4824730000000  0.4205470000000  0.4861400000000 1.0
C      1  0.5613300000000  0.4803620000000  0.4762780000000 1.0
C      1  0.4438620000000  0.4585000000000  0.4452230000000 1.0
C      1  0.4647510000000  0.4438540000000  0.5023370000000 1.0
C      1  0.4875320000000  0.4905110000000  0.5622010000000 1.0
C      1  0.5225850000000  0.5177290000000  0.4864620000000 1.0
C      1  0.4867720000000  0.4833280000000  0.5015060000000 1.0
C      1  0.4763150000000  0.5974750000000  0.4647070000000 1.0
END
