TITL C-27142-7278-73 0.000565938005659278 125000 -292.535399481903 0 0 60 (C1) n - 1
REM
REM in /home/nfs/bkarasulu/CARBON/AIRSS/Generating-Clusters/AIREBO/Higher-Symm/Only-C60
REM
REM
REM
REM
REM
REM ./C.cell (28575a23ae977d3b5fae324c64b13b57)
REM
REM compiler GCC version 9.2.1 20190827 (Red Hat 9.2.1-1)
REM options -cpp -mtune=generic -march=x86-64 -g -O0 -fpre-include=/usr/include/finclude/math-vector-fortran.h
REM seed 982719856 447532522 118992977 -1362489333 541649809 710469140 1088638253 -315935514 156782560 -607118166 455226445 -1852974420 -1468707955 -1422101059 947506828 652707955 -649745914 -821238238 1718381429 -1181813429 -27576056 -24264578 1846812226 886957515 815872224 412466414 699967637 -152099988 -1259061710 -239848185 1167853779 -67734756 1405039247
REM
CELL 1.54180   50.00000   50.00000   50.00000   90.00000   90.00000   90.00000
LATT -1
SFAC C  
C      1  0.5314700000000  0.4362610000000  0.5042140000000 1.0
C      1  0.5190020000000  0.5521820000000  0.5023000000000 1.0
C      1  0.4860330000000  0.4367640000000  0.4833490000000 1.0
C      1  0.4785010000000  0.5517710000000  0.4774650000000 1.0
C      1  0.4332530000000  0.5154620000000  0.5434130000000 1.0
C      1  0.4295690000000  0.4825260000000  0.5359570000000 1.0
C      1  0.4899860000000  0.4299670000000  0.5302220000000 1.0
C      1  0.4954620000000  0.5707320000000  0.5286600000000 1.0
C      1  0.5692550000000  0.5187460000000  0.4910000000000 1.0
C      1  0.5725380000000  0.4851360000000  0.4875450000000 1.0
C      1  0.4879540000000  0.5094140000000  0.4911750000000 1.0
C      1  0.4886390000000  0.4759030000000  0.4911210000000 1.0
C      1  0.5458410000000  0.5066130000000  0.4075540000000 1.0
C      1  0.5325870000000  0.4941020000000  0.4271590000000 1.0
C      1  0.4290860000000  0.5092360000000  0.4907690000000 1.0
C      1  0.4176670000000  0.4991240000000  0.5105010000000 1.0
C      1  0.5417890000000  0.4641080000000  0.5259210000000 1.0
C      1  0.5459610000000  0.5255020000000  0.5353100000000 1.0
C      1  0.4622640000000  0.4486150000000  0.5278850000000 1.0
C      1  0.4739260000000  0.5483920000000  0.5249520000000 1.0
C      1  0.4475180000000  0.4726000000000  0.5088180000000 1.0
C      1  0.4490780000000  0.5310290000000  0.5176540000000 1.0
C      1  0.4935310000000  0.5721720000000  0.4946610000000 1.0
C      1  0.5044250000000  0.4294750000000  0.5026690000000 1.0
C      1  0.5501430000000  0.4605210000000  0.4945880000000 1.0
C      1  0.5456260000000  0.5380360000000  0.5060240000000 1.0
C      1  0.4487360000000  0.5178550000000  0.4544480000000 1.0
C      1  0.4575990000000  0.4724070000000  0.4518890000000 1.0
C      1  0.4585060000000  0.5254470000000  0.4854520000000 1.0
C      1  0.4626260000000  0.4612620000000  0.4805100000000 1.0
C      1  0.4199870000000  0.4612410000000  0.4979710000000 1.0
C      1  0.4268550000000  0.5510850000000  0.5133410000000 1.0
C      1  0.5264880000000  0.5366500000000  0.5527630000000 1.0
C      1  0.5155550000000  0.4588370000000  0.5403490000000 1.0
C      1  0.5192690000000  0.4694240000000  0.4344930000000 1.0
C      1  0.4939470000000  0.5199350000000  0.4101870000000 1.0
C      1  0.5163000000000  0.5629430000000  0.5468300000000 1.0
C      1  0.5113260000000  0.4312140000000  0.5550350000000 1.0
C      1  0.5175900000000  0.5493750000000  0.4471360000000 1.0
C      1  0.5094120000000  0.4431270000000  0.4475980000000 1.0
C      1  0.4911360000000  0.4635090000000  0.5185860000000 1.0
C      1  0.4953480000000  0.5355230000000  0.5098620000000 1.0
C      1  0.5058250000000  0.5168720000000  0.5591170000000 1.0
C      1  0.5074460000000  0.4830500000000  0.5560290000000 1.0
C      1  0.5044490000000  0.4722280000000  0.4649660000000 1.0
C      1  0.4987920000000  0.5280130000000  0.4640310000000 1.0
C      1  0.5444830000000  0.4813770000000  0.4688500000000 1.0
C      1  0.5392600000000  0.5229290000000  0.4757570000000 1.0
C      1  0.4629630000000  0.4999250000000  0.5219290000000 1.0
C      1  0.5178260000000  0.5028530000000  0.5060490000000 1.0
C      1  0.4944570000000  0.5014640000000  0.5305670000000 1.0
C      1  0.4634870000000  0.4976300000000  0.4437750000000 1.0
C      1  0.5468200000000  0.4983020000000  0.5063270000000 1.0
C      1  0.4908090000000  0.5079880000000  0.4377280000000 1.0
C      1  0.4810260000000  0.4967430000000  0.5708920000000 1.0
C      1  0.5590300000000  0.5073740000000  0.4540690000000 1.0
C      1  0.5763940000000  0.4886930000000  0.5554000000000 1.0
C      1  0.5558610000000  0.4929320000000  0.5372940000000 1.0
C      1  0.4574840000000  0.4966030000000  0.5553230000000 1.0
C      1  0.5196330000000  0.5018920000000  0.4576230000000 1.0
END
