TITL C-27133-8107-103 0.00123900804601089 125000 -319.811611374373 0 0 60 (C1) n - 1
REM
REM in /home/nfs/bkarasulu/CARBON/AIRSS/Generating-Clusters/AIREBO/Higher-Symm/Only-C60
REM
REM
REM
REM
REM
REM ./C.cell (28575a23ae977d3b5fae324c64b13b57)
REM
REM compiler GCC version 9.2.1 20190827 (Red Hat 9.2.1-1)
REM options -cpp -mtune=generic -march=x86-64 -g -O0 -fpre-include=/usr/include/finclude/math-vector-fortran.h
REM seed 2001512177 -1725836115 -1875538016 667437415 -2026610969 1379628243 -1423403469 1631415763 -1842793828 -938542189 -1381256444 986769997 97377603 1259540548 -1933257564 -2056755076 328703026 631340740 -1028675088 1270338182 1333176270 1170788424 -1910463326 -953536166 1200638786 -361600657 -2051148217 1816802897 -873501862 2035785656 161498363 -1774227590 1092522977
REM
CELL 1.54180   50.00000   50.00000   50.00000   90.00000   90.00000   90.00000
LATT -1
SFAC C  
C      1  0.4397630000000  0.4957010000000  0.4550790000000 1.0
C      1  0.4461700000000  0.4539280000000  0.4871510000000 1.0
C      1  0.4541050000000  0.4762480000000  0.5437040000000 1.0
C      1  0.4416410000000  0.5273720000000  0.5285820000000 1.0
C      1  0.4517970000000  0.5478860000000  0.4791760000000 1.0
C      1  0.4721430000000  0.4393490000000  0.4805380000000 1.0
C      1  0.4754490000000  0.4536360000000  0.5510310000000 1.0
C      1  0.4632700000000  0.5293960000000  0.5457340000000 1.0
C      1  0.4734300000000  0.5693080000000  0.4896130000000 1.0
C      1  0.4657860000000  0.5067880000000  0.4465720000000 1.0
C      1  0.4864690000000  0.5471450000000  0.5343000000000 1.0
C      1  0.4911890000000  0.5484170000000  0.4729240000000 1.0
C      1  0.4869840000000  0.4831930000000  0.4486090000000 1.0
C      1  0.4913850000000  0.4394230000000  0.5046680000000 1.0
C      1  0.4917650000000  0.4814910000000  0.5559560000000 1.0
C      1  0.5513780000000  0.4563450000000  0.5394200000000 1.0
C      1  0.5456340000000  0.5225600000000  0.5488950000000 1.0
C      1  0.5500090000000  0.5477000000000  0.5019950000000 1.0
C      1  0.5512440000000  0.5161200000000  0.4566900000000 1.0
C      1  0.5479420000000  0.4578160000000  0.4612210000000 1.0
C      1  0.4365520000000  0.4984860000000  0.5249560000000 1.0
C      1  0.4343760000000  0.5422020000000  0.5070410000000 1.0
C      1  0.4446580000000  0.5146500000000  0.4799580000000 1.0
C      1  0.4406530000000  0.4678320000000  0.4595220000000 1.0
C      1  0.4494370000000  0.4718380000000  0.5100920000000 1.0
C      1  0.5425370000000  0.4595480000000  0.4935590000000 1.0
C      1  0.5421770000000  0.4940950000000  0.5306930000000 1.0
C      1  0.5519510000000  0.5516990000000  0.5356620000000 1.0
C      1  0.5502520000000  0.5463530000000  0.4714020000000 1.0
C      1  0.5392520000000  0.4899920000000  0.4679410000000 1.0
C      1  0.4693550000000  0.5042330000000  0.5571750000000 1.0
C      1  0.4782590000000  0.5710890000000  0.5165740000000 1.0
C      1  0.4704650000000  0.5324150000000  0.4551710000000 1.0
C      1  0.4706160000000  0.4582310000000  0.4561900000000 1.0
C      1  0.4800760000000  0.4340430000000  0.5326780000000 1.0
C      1  0.5684990000000  0.5258070000000  0.5202940000000 1.0
C      1  0.5747560000000  0.5226650000000  0.4784770000000 1.0
C      1  0.5873250000000  0.4948130000000  0.4673970000000 1.0
C      1  0.5717610000000  0.4718870000000  0.4823090000000 1.0
C      1  0.5696440000000  0.4764720000000  0.5279750000000 1.0
C      1  0.4983690000000  0.5158770000000  0.5322720000000 1.0
C      1  0.5021810000000  0.5317520000000  0.4963360000000 1.0
C      1  0.5014840000000  0.5028920000000  0.4693820000000 1.0
C      1  0.4989870000000  0.4678940000000  0.4885370000000 1.0
C      1  0.5037730000000  0.4756980000000  0.5271120000000 1.0
C      1  0.5246140000000  0.4555590000000  0.5289180000000 1.0
C      1  0.5160360000000  0.5130680000000  0.5537850000000 1.0
C      1  0.5203860000000  0.5460850000000  0.5120370000000 1.0
C      1  0.5195230000000  0.5235530000000  0.4597850000000 1.0
C      1  0.5141460000000  0.4593040000000  0.4656450000000 1.0
C      1  0.5232190000000  0.4373630000000  0.5047870000000 1.0
C      1  0.5255480000000  0.4841320000000  0.5589920000000 1.0
C      1  0.5186080000000  0.5513090000000  0.5424620000000 1.0
C      1  0.5196730000000  0.5550620000000  0.4593060000000 1.0
C      1  0.5194290000000  0.4798430000000  0.4422440000000 1.0
C      1  0.5302100000000  0.4902340000000  0.5008570000000 1.0
C      1  0.4633920000000  0.4999850000000  0.5005310000000 1.0
C      1  0.4973310000000  0.4987110000000  0.5028950000000 1.0
C      1  0.5702760000000  0.4992890000000  0.5027650000000 1.0
C      1  0.4156620000000  0.5319950000000  0.4851830000000 1.0
END
