TITL C-27136-4842-77 -0.00126933401466756 125000 -343.307231443148 0 0 60 (C1) n - 1
REM
REM in /home/nfs/bkarasulu/CARBON/AIRSS/Generating-Clusters/AIREBO/Higher-Symm/Only-C60
REM
REM
REM
REM
REM
REM ./C.cell (28575a23ae977d3b5fae324c64b13b57)
REM
REM compiler GCC version 9.2.1 20190827 (Red Hat 9.2.1-1)
REM options -cpp -mtune=generic -march=x86-64 -g -O0 -fpre-include=/usr/include/finclude/math-vector-fortran.h
REM seed 953395269 1529427030 -667851923 1337044695 810933101 -1181054020 879204855 364910490 54464934 -346706194 659679913 -1928560979 -431879961 1478374808 -334870055 -1650955479 329275098 259906871 690982162 1147789125 -1494265626 190324364 317237761 -415315069 1068208614 58670878 -1253225193 -384466696 2061428942 -543228274 -19785184 1225613896 634824523
REM
CELL 1.54180   50.00000   50.00000   50.00000   90.00000   90.00000   90.00000
LATT -1
SFAC C  
C      1  0.5172030000000  0.5170670000000  0.5404510000000 1.0
C      1  0.4764920000000  0.4713760000000  0.4653880000000 1.0
C      1  0.5525570000000  0.4421450000000  0.5092460000000 1.0
C      1  0.4436010000000  0.5574610000000  0.4921840000000 1.0
C      1  0.4733660000000  0.5151630000000  0.4295870000000 1.0
C      1  0.5279440000000  0.4900470000000  0.5678230000000 1.0
C      1  0.4722610000000  0.5637370000000  0.4894620000000 1.0
C      1  0.5219120000000  0.4412970000000  0.5034910000000 1.0
C      1  0.4878420000000  0.4916550000000  0.4196210000000 1.0
C      1  0.5103990000000  0.5161710000000  0.5737600000000 1.0
C      1  0.5655110000000  0.5257240000000  0.4956170000000 1.0
C      1  0.4380130000000  0.4721810000000  0.5051470000000 1.0
C      1  0.4404610000000  0.4576160000000  0.4750780000000 1.0
C      1  0.5606270000000  0.5425830000000  0.5234800000000 1.0
C      1  0.5156630000000  0.4944130000000  0.4286180000000 1.0
C      1  0.4818280000000  0.5076810000000  0.5786990000000 1.0
C      1  0.4588450000000  0.5351780000000  0.5459160000000 1.0
C      1  0.5486160000000  0.4554990000000  0.4543450000000 1.0
C      1  0.4230670000000  0.4361650000000  0.4708680000000 1.0
C      1  0.5735240000000  0.5669860000000  0.5255350000000 1.0
C      1  0.4492950000000  0.5065710000000  0.4431260000000 1.0
C      1  0.5518050000000  0.4990610000000  0.5537210000000 1.0
C      1  0.5268070000000  0.4945090000000  0.5229700000000 1.0
C      1  0.4731030000000  0.5012830000000  0.4747370000000 1.0
C      1  0.4471950000000  0.5155640000000  0.4715080000000 1.0
C      1  0.5540840000000  0.4847820000000  0.5272090000000 1.0
C      1  0.4703660000000  0.4541240000000  0.4909210000000 1.0
C      1  0.5307410000000  0.5331360000000  0.5139400000000 1.0
C      1  0.4912460000000  0.5136070000000  0.4951070000000 1.0
C      1  0.5071840000000  0.4878830000000  0.5022210000000 1.0
C      1  0.5212860000000  0.5221390000000  0.4335540000000 1.0
C      1  0.4798590000000  0.4808060000000  0.5695600000000 1.0
C      1  0.5526810000000  0.4793180000000  0.4788660000000 1.0
C      1  0.4486790000000  0.5175560000000  0.5215190000000 1.0
C      1  0.5331360000000  0.5419390000000  0.5666510000000 1.0
C      1  0.4739010000000  0.4666040000000  0.4262980000000 1.0
C      1  0.4389790000000  0.5296980000000  0.4938640000000 1.0
C      1  0.5619110000000  0.4679810000000  0.5064570000000 1.0
C      1  0.5175760000000  0.4416170000000  0.4578450000000 1.0
C      1  0.4819110000000  0.5521300000000  0.5378670000000 1.0
C      1  0.5152430000000  0.5337100000000  0.4926460000000 1.0
C      1  0.4937700000000  0.4596570000000  0.5086900000000 1.0
C      1  0.5539950000000  0.5113470000000  0.4755890000000 1.0
C      1  0.4480350000000  0.4873280000000  0.5253290000000 1.0
C      1  0.5083750000000  0.4688860000000  0.5657900000000 1.0
C      1  0.4936410000000  0.5352050000000  0.4362590000000 1.0
C      1  0.4897430000000  0.4551290000000  0.5408410000000 1.0
C      1  0.5111680000000  0.5466620000000  0.4631860000000 1.0
C      1  0.5210620000000  0.4668580000000  0.4803750000000 1.0
C      1  0.4747730000000  0.5382050000000  0.5094980000000 1.0
C      1  0.4632630000000  0.4754820000000  0.5447920000000 1.0
C      1  0.5376250000000  0.5257440000000  0.4587400000000 1.0
C      1  0.5260760000000  0.4793430000000  0.4491260000000 1.0
C      1  0.4606760000000  0.5250870000000  0.5721470000000 1.0
C      1  0.4485700000000  0.4743910000000  0.4465360000000 1.0
C      1  0.5539180000000  0.5282300000000  0.5515800000000 1.0
C      1  0.5033180000000  0.4267030000000  0.5279410000000 1.0
C      1  0.4938880000000  0.5703740000000  0.4751030000000 1.0
C      1  0.5054590000000  0.5474590000000  0.5501670000000 1.0
C      1  0.4959270000000  0.4537460000000  0.4434070000000 1.0
END
