TITL C-27143-4867-36 0.00409363630641718 125000 -354.335829076497 0 0 60 (C1) n - 1
REM
REM in /home/nfs/bkarasulu/CARBON/AIRSS/Generating-Clusters/AIREBO/Higher-Symm/Only-C60
REM
REM
REM
REM
REM
REM ./C.cell (28575a23ae977d3b5fae324c64b13b57)
REM
REM compiler GCC version 9.2.1 20190827 (Red Hat 9.2.1-1)
REM options -cpp -mtune=generic -march=x86-64 -g -O0 -fpre-include=/usr/include/finclude/math-vector-fortran.h
REM seed 946873151 -233463657 767852760 1375137877 1888268796 1728255031 -208885362 -1780652218 1397844778 -184436079 -30617720 723201693 -2109541295 791811828 930409555 1610935262 1418586404 1819037186 -2075565307 1938022454 815299198 538713583 1294789322 -1815086991 1814221350 -1723928095 1414866136 -2141415008 -1400209352 -2128568401 715248656 251806880 875831621
REM
CELL 1.54180   50.00000   50.00000   50.00000   90.00000   90.00000   90.00000
LATT -1
SFAC C  
C      1  0.4958630000000  0.4744280000000  0.4670680000000 1.0
C      1  0.4875940000000  0.5207590000000  0.4678500000000 1.0
C      1  0.5025720000000  0.5445410000000  0.5113080000000 1.0
C      1  0.4962770000000  0.4999730000000  0.5401940000000 1.0
C      1  0.4846960000000  0.4541730000000  0.5157530000000 1.0
C      1  0.4786020000000  0.4783810000000  0.5340340000000 1.0
C      1  0.4901430000000  0.5298830000000  0.5352070000000 1.0
C      1  0.4973440000000  0.5444500000000  0.4811010000000 1.0
C      1  0.5030000000000  0.4994130000000  0.4622700000000 1.0
C      1  0.4974020000000  0.4524500000000  0.4894120000000 1.0
C      1  0.5217690000000  0.4931480000000  0.5564860000000 1.0
C      1  0.5243000000000  0.4388230000000  0.5252610000000 1.0
C      1  0.5335140000000  0.4756200000000  0.4436190000000 1.0
C      1  0.5377880000000  0.5329180000000  0.4457850000000 1.0
C      1  0.5263650000000  0.5644260000000  0.5227370000000 1.0
C      1  0.5207580000000  0.5042540000000  0.4381160000000 1.0
C      1  0.5245190000000  0.4382180000000  0.4911820000000 1.0
C      1  0.5334780000000  0.4643170000000  0.5456570000000 1.0
C      1  0.5123660000000  0.5505810000000  0.5486770000000 1.0
C      1  0.5236450000000  0.5548600000000  0.4676380000000 1.0
C      1  0.4871760000000  0.4527450000000  0.4450640000000 1.0
C      1  0.4645370000000  0.5242660000000  0.4520600000000 1.0
C      1  0.4826630000000  0.5835810000000  0.5043850000000 1.0
C      1  0.4806280000000  0.5139340000000  0.5789230000000 1.0
C      1  0.4699170000000  0.4274690000000  0.5233700000000 1.0
C      1  0.4690810000000  0.4559230000000  0.5570870000000 1.0
C      1  0.4670120000000  0.5228220000000  0.5549950000000 1.0
C      1  0.4714950000000  0.5602680000000  0.4918640000000 1.0
C      1  0.4719300000000  0.5220460000000  0.4244950000000 1.0
C      1  0.4691020000000  0.4458500000000  0.4716780000000 1.0
C      1  0.5475150000000  0.5440560000000  0.5107270000000 1.0
C      1  0.5504170000000  0.4997930000000  0.5411140000000 1.0
C      1  0.5535390000000  0.4531570000000  0.5136720000000 1.0
C      1  0.5540890000000  0.4754630000000  0.4634290000000 1.0
C      1  0.5627180000000  0.5241270000000  0.4646990000000 1.0
C      1  0.5480690000000  0.5411820000000  0.4834410000000 1.0
C      1  0.5712640000000  0.4978130000000  0.4634100000000 1.0
C      1  0.5513730000000  0.4579780000000  0.4844890000000 1.0
C      1  0.5631640000000  0.4727400000000  0.5348160000000 1.0
C      1  0.5551760000000  0.5240690000000  0.5286950000000 1.0
C      1  0.4481430000000  0.5435920000000  0.4931450000000 1.0
C      1  0.4427470000000  0.5190490000000  0.5412250000000 1.0
C      1  0.4464480000000  0.4684480000000  0.5356520000000 1.0
C      1  0.4459760000000  0.4532110000000  0.4861020000000 1.0
C      1  0.4279600000000  0.5023420000000  0.4741720000000 1.0
C      1  0.4386960000000  0.5356660000000  0.5186630000000 1.0
C      1  0.4424700000000  0.5263690000000  0.4704320000000 1.0
C      1  0.4311990000000  0.4754390000000  0.4770810000000 1.0
C      1  0.4457650000000  0.4458790000000  0.5135510000000 1.0
C      1  0.4303020000000  0.4935430000000  0.5430870000000 1.0
C      1  0.5287880000000  0.4308560000000  0.4599830000000 1.0
C      1  0.4992530000000  0.5199750000000  0.4169490000000 1.0
C      1  0.5222890000000  0.5844450000000  0.4782850000000 1.0
C      1  0.5198800000000  0.5403560000000  0.5728480000000 1.0
C      1  0.4842420000000  0.4340020000000  0.5601210000000 1.0
C      1  0.5003310000000  0.4240320000000  0.5365420000000 1.0
C      1  0.5095940000000  0.5139880000000  0.5772950000000 1.0
C      1  0.5113520000000  0.5850780000000  0.5037760000000 1.0
C      1  0.5235280000000  0.5372320000000  0.4162940000000 1.0
C      1  0.5181800000000  0.4515970000000  0.4430290000000 1.0
END
