TITL C-27134-4977-122 0.00287107509545478 125000 -324.87768917049 0 0 60 (C1) n - 1
REM
REM in /home/nfs/bkarasulu/CARBON/AIRSS/Generating-Clusters/AIREBO/Higher-Symm/Only-C60
REM
REM
REM
REM
REM
REM ./C.cell (28575a23ae977d3b5fae324c64b13b57)
REM
REM compiler GCC version 9.2.1 20190827 (Red Hat 9.2.1-1)
REM options -cpp -mtune=generic -march=x86-64 -g -O0 -fpre-include=/usr/include/finclude/math-vector-fortran.h
REM seed 1623263039 571289835 324207650 -632835342 201861960 -1112850522 147581919 -356264376 -1026230476 -434645066 -740160698 973649894 1747269152 -580643650 -1637596051 196496795 -551919415 -1604109779 -1794587170 1777757470 -1065725214 -559507543 822060932 1021042149 565445714 -777321693 1216323696 -2128727638 -239761102 27908447 -457169258 -1404213271 -310695711
REM
CELL 1.54180   50.00000   50.00000   50.00000   90.00000   90.00000   90.00000
LATT -1
SFAC C  
C      1  0.4530300000000  0.4738380000000  0.5163920000000 1.0
C      1  0.4768520000000  0.5261320000000  0.4484360000000 1.0
C      1  0.5227340000000  0.4494560000000  0.4773420000000 1.0
C      1  0.5591960000000  0.4651090000000  0.4725770000000 1.0
C      1  0.5535550000000  0.5203750000000  0.5135370000000 1.0
C      1  0.4411220000000  0.5220580000000  0.4847660000000 1.0
C      1  0.5198700000000  0.5170690000000  0.5550600000000 1.0
C      1  0.5155050000000  0.4849500000000  0.4473750000000 1.0
C      1  0.4689650000000  0.4702030000000  0.5523810000000 1.0
C      1  0.4829080000000  0.4474510000000  0.5171730000000 1.0
C      1  0.4771490000000  0.5552410000000  0.4711600000000 1.0
C      1  0.5132090000000  0.5535460000000  0.5184950000000 1.0
C      1  0.4517310000000  0.5194030000000  0.5151300000000 1.0
C      1  0.4727760000000  0.4786390000000  0.4505360000000 1.0
C      1  0.5322390000000  0.5528640000000  0.4658380000000 1.0
C      1  0.5527490000000  0.5190420000000  0.4806210000000 1.0
C      1  0.5501330000000  0.4679820000000  0.5300420000000 1.0
C      1  0.4440440000000  0.4777540000000  0.4735350000000 1.0
C      1  0.5181240000000  0.4845680000000  0.5557030000000 1.0
C      1  0.5256740000000  0.5163790000000  0.4513330000000 1.0
C      1  0.4659330000000  0.5248860000000  0.5517770000000 1.0
C      1  0.4810810000000  0.5578760000000  0.5223900000000 1.0
C      1  0.4723070000000  0.4406840000000  0.4623840000000 1.0
C      1  0.5161060000000  0.4519060000000  0.5165550000000 1.0
C      1  0.4646900000000  0.4175840000000  0.4825290000000 1.0
C      1  0.4155320000000  0.4844440000000  0.4753540000000 1.0
C      1  0.4799600000000  0.4528440000000  0.4315510000000 1.0
C      1  0.5462910000000  0.4365940000000  0.5175410000000 1.0
C      1  0.5402000000000  0.5770160000000  0.4850040000000 1.0
C      1  0.4667870000000  0.5826790000000  0.5085110000000 1.0
C      1  0.5762720000000  0.4848200000000  0.5380690000000 1.0
C      1  0.5788370000000  0.5085120000000  0.4656770000000 1.0
C      1  0.4359320000000  0.5112140000000  0.5434390000000 1.0
C      1  0.5060190000000  0.4719810000000  0.5817930000000 1.0
C      1  0.5217370000000  0.5450400000000  0.4344460000000 1.0
C      1  0.4810490000000  0.5362320000000  0.5773830000000 1.0
C      1  0.4667760000000  0.5813250000000  0.4828460000000 1.0
C      1  0.4128940000000  0.5098220000000  0.4802530000000 1.0
C      1  0.4934980000000  0.5474690000000  0.4308840000000 1.0
C      1  0.5318320000000  0.5773780000000  0.5088730000000 1.0
C      1  0.5484960000000  0.4338510000000  0.4878900000000 1.0
C      1  0.4680700000000  0.4212210000000  0.5072580000000 1.0
C      1  0.5782310000000  0.5087890000000  0.5300540000000 1.0
C      1  0.5825890000000  0.4834920000000  0.4642470000000 1.0
C      1  0.4359630000000  0.4823300000000  0.5418310000000 1.0
C      1  0.5062070000000  0.5334920000000  0.5786090000000 1.0
C      1  0.5069900000000  0.4616250000000  0.4264270000000 1.0
C      1  0.4811050000000  0.4661140000000  0.5800650000000 1.0
C      1  0.4714840000000  0.4975490000000  0.5323220000000 1.0
C      1  0.5029840000000  0.5356710000000  0.4679850000000 1.0
C      1  0.5383170000000  0.4707150000000  0.4988200000000 1.0
C      1  0.5426510000000  0.4914920000000  0.4649530000000 1.0
C      1  0.4984930000000  0.4621550000000  0.4654930000000 1.0
C      1  0.4987110000000  0.4688440000000  0.5374830000000 1.0
C      1  0.4633480000000  0.5443320000000  0.4978450000000 1.0
C      1  0.4965980000000  0.5335130000000  0.5398260000000 1.0
C      1  0.5394850000000  0.5000350000000  0.5342080000000 1.0
C      1  0.4596300000000  0.5057870000000  0.4622130000000 1.0
C      1  0.4638950000000  0.4574140000000  0.4907960000000 1.0
C      1  0.5314540000000  0.5392130000000  0.4969860000000 1.0
END
