TITL C-27140-5627-151 -4.16013531907093e-05 125000 -340.412541820145 0 0 60 (C1) n - 1
REM
REM in /home/nfs/bkarasulu/CARBON/AIRSS/Generating-Clusters/AIREBO/Higher-Symm/Only-C60
REM
REM
REM
REM
REM
REM ./C.cell (28575a23ae977d3b5fae324c64b13b57)
REM
REM compiler GCC version 9.2.1 20190827 (Red Hat 9.2.1-1)
REM options -cpp -mtune=generic -march=x86-64 -g -O0 -fpre-include=/usr/include/finclude/math-vector-fortran.h
REM seed 2123201504 -1016019445 -109141187 -669647625 1481301547 -1775703155 9804217 1600593817 -325037812 637152517 1587128777 1725316733 1695894160 -868830208 1910851687 504495282 1441218712 1794894379 1239326861 -720744508 -144513493 -1864367042 -99508271 1936377595 174765500 -313022187 513554481 -2129426127 754147165 -1682071525 -1008999784 -489854940 527345196
REM
CELL 1.54180   50.00000   50.00000   50.00000   90.00000   90.00000   90.00000
LATT -1
SFAC C  
C      1  0.5607310000000  0.4767550000000  0.4903960000000 1.0
C      1  0.4209130000000  0.4972870000000  0.4928520000000 1.0
C      1  0.5761190000000  0.4465740000000  0.4943220000000 1.0
C      1  0.5996030000000  0.4364310000000  0.5021600000000 1.0
C      1  0.3972460000000  0.5748620000000  0.4835370000000 1.0
C      1  0.4589290000000  0.5338190000000  0.5470960000000 1.0
C      1  0.5581490000000  0.5108720000000  0.4227020000000 1.0
C      1  0.5187600000000  0.5006670000000  0.5179540000000 1.0
C      1  0.5520740000000  0.4568020000000  0.4568830000000 1.0
C      1  0.5732520000000  0.4784890000000  0.4588820000000 1.0
C      1  0.4610870000000  0.4857030000000  0.5586490000000 1.0
C      1  0.5755980000000  0.4964270000000  0.4379700000000 1.0
C      1  0.4194840000000  0.5680080000000  0.4964950000000 1.0
C      1  0.4964120000000  0.5863550000000  0.5300690000000 1.0
C      1  0.5094260000000  0.4505770000000  0.5505490000000 1.0
C      1  0.4848600000000  0.4999260000000  0.4756430000000 1.0
C      1  0.4649420000000  0.5128240000000  0.5646870000000 1.0
C      1  0.5564070000000  0.4728480000000  0.5393310000000 1.0
C      1  0.4409900000000  0.4780860000000  0.5411900000000 1.0
C      1  0.4887600000000  0.4626380000000  0.5607590000000 1.0
C      1  0.5157410000000  0.5076800000000  0.4848030000000 1.0
C      1  0.4860370000000  0.5187610000000  0.5821210000000 1.0
C      1  0.5466340000000  0.4882120000000  0.5608780000000 1.0
C      1  0.5619540000000  0.4898510000000  0.5170930000000 1.0
C      1  0.5549060000000  0.5173790000000  0.5213620000000 1.0
C      1  0.4355300000000  0.4833630000000  0.5150070000000 1.0
C      1  0.4883870000000  0.5621180000000  0.5193470000000 1.0
C      1  0.5031620000000  0.6108020000000  0.5382020000000 1.0
C      1  0.5582680000000  0.5249480000000  0.5506180000000 1.0
C      1  0.5098600000000  0.5237750000000  0.5705980000000 1.0
C      1  0.4600950000000  0.4598890000000  0.4574080000000 1.0
C      1  0.3761100000000  0.5800210000000  0.4689210000000 1.0
C      1  0.5075680000000  0.5017450000000  0.4174210000000 1.0
C      1  0.5300860000000  0.4787280000000  0.4820780000000 1.0
C      1  0.4600120000000  0.5203060000000  0.4252980000000 1.0
C      1  0.4723340000000  0.4394720000000  0.5248930000000 1.0
C      1  0.4837150000000  0.5156850000000  0.4127580000000 1.0
C      1  0.5213680000000  0.4342700000000  0.5231090000000 1.0
C      1  0.5060850000000  0.5464740000000  0.5034920000000 1.0
C      1  0.4605300000000  0.4933000000000  0.4942100000000 1.0
C      1  0.4481190000000  0.5208780000000  0.4495990000000 1.0
C      1  0.5264780000000  0.4689080000000  0.4504010000000 1.0
C      1  0.5257230000000  0.4386880000000  0.4930160000000 1.0
C      1  0.4946900000000  0.5323060000000  0.4800810000000 1.0
C      1  0.5272730000000  0.5110070000000  0.5493960000000 1.0
C      1  0.5029130000000  0.4747260000000  0.5021640000000 1.0
C      1  0.5058100000000  0.4796520000000  0.4338690000000 1.0
C      1  0.4622230000000  0.5514120000000  0.5255920000000 1.0
C      1  0.5292920000000  0.5325540000000  0.5126130000000 1.0
C      1  0.4503890000000  0.4570520000000  0.4807480000000 1.0
C      1  0.4913930000000  0.4232550000000  0.5277290000000 1.0
C      1  0.5337810000000  0.5092000000000  0.4105380000000 1.0
C      1  0.4876860000000  0.4740970000000  0.4582250000000 1.0
C      1  0.4395440000000  0.5095150000000  0.4727940000000 1.0
C      1  0.4402320000000  0.5609000000000  0.5116080000000 1.0
C      1  0.5022120000000  0.4506720000000  0.4781400000000 1.0
C      1  0.5506440000000  0.4395920000000  0.4799000000000 1.0
C      1  0.5111600000000  0.6337330000000  0.5480590000000 1.0
C      1  0.4711160000000  0.4629100000000  0.5052020000000 1.0
C      1  0.5472000000000  0.4462130000000  0.5385850000000 1.0
END
