TITL C-27140-5627-78 0.00135424277769058 125000 -322.665289927652 0 0 60 (C1) n - 1
REM
REM in /home/nfs/bkarasulu/CARBON/AIRSS/Generating-Clusters/AIREBO/Higher-Symm/Only-C60
REM
REM
REM
REM
REM
REM ./C.cell (28575a23ae977d3b5fae324c64b13b57)
REM
REM compiler GCC version 9.2.1 20190827 (Red Hat 9.2.1-1)
REM options -cpp -mtune=generic -march=x86-64 -g -O0 -fpre-include=/usr/include/finclude/math-vector-fortran.h
REM seed 1193969143 -2029587347 -55102234 517708723 -740266951 -1633778199 -1441256282 -763049598 737903397 -2047765085 -750264408 1763216119 374482376 -1958362233 790398450 670901422 -253207371 1807620049 -1608458215 1521258033 1323845521 -942727433 -1230644433 -1392743974 -1600915811 1234750926 943848635 -489127084 -1502108510 296922843 -1484239829 -630658627 634284910
REM
CELL 1.54180   50.00000   50.00000   50.00000   90.00000   90.00000   90.00000
LATT -1
SFAC C  
C      1  0.4724660000000  0.4415350000000  0.5540260000000 1.0
C      1  0.5314430000000  0.4394410000000  0.5349080000000 1.0
C      1  0.5352760000000  0.4489000000000  0.4887840000000 1.0
C      1  0.5024090000000  0.4466390000000  0.4465790000000 1.0
C      1  0.4573280000000  0.4397520000000  0.4649210000000 1.0
C      1  0.5369240000000  0.4801700000000  0.4495270000000 1.0
C      1  0.4635130000000  0.4756780000000  0.4332920000000 1.0
C      1  0.4349600000000  0.4777900000000  0.5342040000000 1.0
C      1  0.5135410000000  0.4692030000000  0.5745760000000 1.0
C      1  0.5580510000000  0.4768820000000  0.5233230000000 1.0
C      1  0.4897570000000  0.5046710000000  0.4411600000000 1.0
C      1  0.4362530000000  0.4970650000000  0.5014590000000 1.0
C      1  0.4793520000000  0.4976550000000  0.5532740000000 1.0
C      1  0.5552370000000  0.5007850000000  0.5473990000000 1.0
C      1  0.5531670000000  0.5022890000000  0.4696060000000 1.0
C      1  0.4924250000000  0.4638090000000  0.4735130000000 1.0
C      1  0.4675150000000  0.4502470000000  0.4890230000000 1.0
C      1  0.4757400000000  0.4566560000000  0.5172140000000 1.0
C      1  0.4996810000000  0.4387220000000  0.5248690000000 1.0
C      1  0.5069790000000  0.4463910000000  0.4946320000000 1.0
C      1  0.4751830000000  0.5537380000000  0.5120660000000 1.0
C      1  0.5050950000000  0.5532290000000  0.5269700000000 1.0
C      1  0.5286400000000  0.5534830000000  0.5027910000000 1.0
C      1  0.5153590000000  0.5547660000000  0.4726750000000 1.0
C      1  0.4821030000000  0.5518200000000  0.4791240000000 1.0
C      1  0.5449330000000  0.5115850000000  0.4379450000000 1.0
C      1  0.4573410000000  0.5017110000000  0.4509840000000 1.0
C      1  0.4326550000000  0.5115590000000  0.5309700000000 1.0
C      1  0.5089760000000  0.4940710000000  0.5646880000000 1.0
C      1  0.5634490000000  0.5088930000000  0.5168170000000 1.0
C      1  0.5410000000000  0.5262740000000  0.4997670000000 1.0
C      1  0.5288770000000  0.5353860000000  0.4562180000000 1.0
C      1  0.4695780000000  0.5261610000000  0.4718320000000 1.0
C      1  0.4561540000000  0.5334910000000  0.5197820000000 1.0
C      1  0.5154590000000  0.5240820000000  0.5304620000000 1.0
C      1  0.4824990000000  0.4872590000000  0.5216230000000 1.0
C      1  0.5060800000000  0.5056670000000  0.5106970000000 1.0
C      1  0.5220310000000  0.5057430000000  0.4830650000000 1.0
C      1  0.4933050000000  0.4939970000000  0.4719740000000 1.0
C      1  0.4693860000000  0.5012470000000  0.4950360000000 1.0
C      1  0.4379680000000  0.5139010000000  0.4744020000000 1.0
C      1  0.4590930000000  0.5192980000000  0.5486880000000 1.0
C      1  0.5269490000000  0.5102880000000  0.5518780000000 1.0
C      1  0.5722730000000  0.5234590000000  0.4881210000000 1.0
C      1  0.5133130000000  0.5200900000000  0.4333380000000 1.0
C      1  0.4796250000000  0.4888960000000  0.4123670000000 1.0
C      1  0.4162090000000  0.4752610000000  0.4982380000000 1.0
C      1  0.4732120000000  0.4862830000000  0.5805570000000 1.0
C      1  0.5726700000000  0.5009460000000  0.5688680000000 1.0
C      1  0.5779220000000  0.4827590000000  0.4660770000000 1.0
C      1  0.4948820000000  0.5860650000000  0.5241550000000 1.0
C      1  0.5230510000000  0.5856420000000  0.5123250000000 1.0
C      1  0.5202220000000  0.5864530000000  0.4818830000000 1.0
C      1  0.4900700000000  0.5853090000000  0.4746020000000 1.0
C      1  0.4747200000000  0.5847880000000  0.5005200000000 1.0
C      1  0.5297660000000  0.4556710000000  0.4587940000000 1.0
C      1  0.4715440000000  0.4502430000000  0.4423190000000 1.0
C      1  0.4529210000000  0.4580110000000  0.5387050000000 1.0
C      1  0.5061720000000  0.4450710000000  0.5570490000000 1.0
C      1  0.5472990000000  0.4531250000000  0.5153410000000 1.0
END
