TITL C-27135-6010-30 0.000886015903273721 125000 -320.240354986076 0 0 60 (C1) n - 1
REM
REM in /home/nfs/bkarasulu/CARBON/AIRSS/Generating-Clusters/AIREBO/Higher-Symm/Only-C60
REM
REM
REM
REM
REM
REM ./C.cell (28575a23ae977d3b5fae324c64b13b57)
REM
REM compiler GCC version 9.2.1 20190827 (Red Hat 9.2.1-1)
REM options -cpp -mtune=generic -march=x86-64 -g -O0 -fpre-include=/usr/include/finclude/math-vector-fortran.h
REM seed -330245213 1117249656 599594255 1942130456 760389884 -796491683 -706749303 -315066675 -1230880928 438955385 720531252 131089395 -1226404795 -391695283 -512856962 -389318720 -1430037660 122054421 -1681008331 -1531005625 321579382 -753855298 -1384123839 -68696993 -1781187181 562658849 -962372882 1850926974 533810450 1625015375 1165173312 550160007 152212829
REM
CELL 1.54180   50.00000   50.00000   50.00000   90.00000   90.00000   90.00000
LATT -1
SFAC C  
C      1  0.5252940000000  0.5023840000000  0.5318280000000 1.0
C      1  0.4725370000000  0.4975690000000  0.5317030000000 1.0
C      1  0.4780680000000  0.4823080000000  0.5018230000000 1.0
C      1  0.5191570000000  0.5170600000000  0.5017660000000 1.0
C      1  0.5581840000000  0.4932840000000  0.5272100000000 1.0
C      1  0.4419970000000  0.5054620000000  0.5377330000000 1.0
C      1  0.4601580000000  0.4700290000000  0.4409330000000 1.0
C      1  0.5434900000000  0.5347690000000  0.4397630000000 1.0
C      1  0.4539230000000  0.4485270000000  0.5357250000000 1.0
C      1  0.5467760000000  0.5527670000000  0.5311250000000 1.0
C      1  0.5340280000000  0.4636110000000  0.4822550000000 1.0
C      1  0.4642080000000  0.5290320000000  0.4841130000000 1.0
C      1  0.4696110000000  0.5236950000000  0.4330680000000 1.0
C      1  0.5354650000000  0.4798770000000  0.4448020000000 1.0
C      1  0.5630900000000  0.4614460000000  0.5207680000000 1.0
C      1  0.4378220000000  0.5335400000000  0.5256840000000 1.0
C      1  0.4373600000000  0.5351500000000  0.4985960000000 1.0
C      1  0.5629050000000  0.4574670000000  0.4937800000000 1.0
C      1  0.4988400000000  0.5156770000000  0.4411700000000 1.0
C      1  0.5049820000000  0.4886580000000  0.4450000000000 1.0
C      1  0.4878090000000  0.4451520000000  0.5126120000000 1.0
C      1  0.5107140000000  0.5549520000000  0.5112450000000 1.0
C      1  0.5758550000000  0.5197500000000  0.5170030000000 1.0
C      1  0.4248790000000  0.4824290000000  0.5238080000000 1.0
C      1  0.5207470000000  0.5354320000000  0.5372160000000 1.0
C      1  0.4804600000000  0.4662230000000  0.5383340000000 1.0
C      1  0.4830540000000  0.5488400000000  0.5300530000000 1.0
C      1  0.5163360000000  0.4514920000000  0.5299950000000 1.0
C      1  0.4535560000000  0.5530700000000  0.5369500000000 1.0
C      1  0.5460240000000  0.4448350000000  0.5344970000000 1.0
C      1  0.4499660000000  0.5072830000000  0.4501980000000 1.0
C      1  0.5519270000000  0.4953140000000  0.4661910000000 1.0
C      1  0.4890290000000  0.5628610000000  0.4611700000000 1.0
C      1  0.5038200000000  0.4349100000000  0.4592560000000 1.0
C      1  0.5477240000000  0.4788710000000  0.4195430000000 1.0
C      1  0.4632620000000  0.5294710000000  0.4068940000000 1.0
C      1  0.4393060000000  0.4784760000000  0.4647810000000 1.0
C      1  0.5557350000000  0.5233340000000  0.4627740000000 1.0
C      1  0.5423190000000  0.4926010000000  0.4971350000000 1.0
C      1  0.4623790000000  0.4987500000000  0.4798160000000 1.0
C      1  0.5677680000000  0.4925690000000  0.5559730000000 1.0
C      1  0.4370550000000  0.5059390000000  0.5657820000000 1.0
C      1  0.5102930000000  0.4792870000000  0.5462490000000 1.0
C      1  0.4916220000000  0.5199870000000  0.5457930000000 1.0
C      1  0.5428460000000  0.5364980000000  0.4873370000000 1.0
C      1  0.4534130000000  0.4617020000000  0.4906680000000 1.0
C      1  0.4855950000000  0.4696660000000  0.4521620000000 1.0
C      1  0.5160990000000  0.5366330000000  0.4480420000000 1.0
C      1  0.4889080000000  0.5301020000000  0.5022900000000 1.0
C      1  0.5093560000000  0.4690020000000  0.5015240000000 1.0
C      1  0.5142080000000  0.5112830000000  0.5696910000000 1.0
C      1  0.4865100000000  0.4933600000000  0.5918180000000 1.0
C      1  0.5259840000000  0.4508030000000  0.4561310000000 1.0
C      1  0.4697990000000  0.5432500000000  0.4584470000000 1.0
C      1  0.4828340000000  0.4491930000000  0.4791760000000 1.0
C      1  0.5148340000000  0.5532210000000  0.4777150000000 1.0
C      1  0.4800770000000  0.5192500000000  0.5777810000000 1.0
C      1  0.5112470000000  0.4807340000000  0.5784680000000 1.0
C      1  0.4376730000000  0.4592620000000  0.5162300000000 1.0
C      1  0.5610800000000  0.5419010000000  0.5104110000000 1.0
END
