TITL C-27140-5627-3 0.000628241353084571 125000 -292.739092230983 0 0 60 (C1) n - 1
REM
REM in /home/nfs/bkarasulu/CARBON/AIRSS/Generating-Clusters/AIREBO/Higher-Symm/Only-C60
REM
REM
REM
REM
REM
REM ./C.cell (28575a23ae977d3b5fae324c64b13b57)
REM
REM compiler GCC version 9.2.1 20190827 (Red Hat 9.2.1-1)
REM options -cpp -mtune=generic -march=x86-64 -g -O0 -fpre-include=/usr/include/finclude/math-vector-fortran.h
REM seed -1956888430 2137153645 847212954 492815654 -1657428710 -154444051 732935506 -1827803261 608927898 781068841 -738559948 -1624885530 1640659917 -466812201 -996564240 850789577 -1475450836 2028539425 -1083484425 267149995 1007705982 88277943 935741887 1107145600 -2008143821 198067786 -554448489 -1726969486 -1353783916 -603015697 -145684261 -581462944 -763568492
REM
CELL 1.54180   50.00000   50.00000   50.00000   90.00000   90.00000   90.00000
LATT -1
SFAC C  
C      1  0.5589180000000  0.4752200000000  0.4762410000000 1.0
C      1  0.5540710000000  0.5079620000000  0.4728340000000 1.0
C      1  0.5527660000000  0.5262850000000  0.5014110000000 1.0
C      1  0.5517970000000  0.5109890000000  0.5294400000000 1.0
C      1  0.5535380000000  0.4775430000000  0.5282290000000 1.0
C      1  0.5257530000000  0.4827470000000  0.4492200000000 1.0
C      1  0.5218210000000  0.5445080000000  0.4678840000000 1.0
C      1  0.5218420000000  0.5368930000000  0.5244120000000 1.0
C      1  0.5204060000000  0.4878440000000  0.5480980000000 1.0
C      1  0.5235770000000  0.4471590000000  0.5006080000000 1.0
C      1  0.5826270000000  0.5224290000000  0.4856070000000 1.0
C      1  0.5995330000000  0.5148950000000  0.5129660000000 1.0
C      1  0.5821950000000  0.4959750000000  0.5268850000000 1.0
C      1  0.5765360000000  0.4703930000000  0.5049570000000 1.0
C      1  0.5888660000000  0.4903010000000  0.4803030000000 1.0
C      1  0.4745920000000  0.5003800000000  0.4409210000000 1.0
C      1  0.4743650000000  0.5587520000000  0.4773750000000 1.0
C      1  0.4768530000000  0.5450150000000  0.5521810000000 1.0
C      1  0.4754940000000  0.4576600000000  0.5525060000000 1.0
C      1  0.4755490000000  0.4394690000000  0.4799920000000 1.0
C      1  0.5014290000000  0.4548530000000  0.4641800000000 1.0
C      1  0.4990960000000  0.5239000000000  0.4426810000000 1.0
C      1  0.5007800000000  0.5588760000000  0.4988140000000 1.0
C      1  0.4954030000000  0.5171470000000  0.5582620000000 1.0
C      1  0.4984650000000  0.4442450000000  0.5313160000000 1.0
C      1  0.4956420000000  0.5539450000000  0.4531570000000 1.0
C      1  0.4976540000000  0.5584710000000  0.5303570000000 1.0
C      1  0.4902520000000  0.4866680000000  0.5605640000000 1.0
C      1  0.4970000000000  0.4305320000000  0.5030890000000 1.0
C      1  0.4947520000000  0.4746050000000  0.4416690000000 1.0
C      1  0.4487020000000  0.5575090000000  0.5524230000000 1.0
C      1  0.4459460000000  0.4556940000000  0.5571010000000 1.0
C      1  0.4511900000000  0.4278480000000  0.4961930000000 1.0
C      1  0.4412040000000  0.4987200000000  0.4471600000000 1.0
C      1  0.4495540000000  0.5556610000000  0.4580090000000 1.0
C      1  0.5341160000000  0.5519860000000  0.4973950000000 1.0
C      1  0.5289120000000  0.5201430000000  0.5513310000000 1.0
C      1  0.5286680000000  0.4596770000000  0.5320380000000 1.0
C      1  0.5347040000000  0.4572010000000  0.4707600000000 1.0
C      1  0.5311810000000  0.5159460000000  0.4519890000000 1.0
C      1  0.4418820000000  0.5140960000000  0.5169880000000 1.0
C      1  0.4432320000000  0.4860520000000  0.5176740000000 1.0
C      1  0.4342050000000  0.4760250000000  0.4897390000000 1.0
C      1  0.4286470000000  0.4988390000000  0.4726310000000 1.0
C      1  0.4338740000000  0.5223190000000  0.4887320000000 1.0
C      1  0.4766520000000  0.4989780000000  0.4748390000000 1.0
C      1  0.4671690000000  0.5278360000000  0.4895770000000 1.0
C      1  0.4688710000000  0.5285410000000  0.5235820000000 1.0
C      1  0.4730910000000  0.4739450000000  0.5227520000000 1.0
C      1  0.4665430000000  0.4708580000000  0.4894420000000 1.0
C      1  0.4712200000000  0.4211740000000  0.4557930000000 1.0
C      1  0.4697720000000  0.5018640000000  0.4105500000000 1.0
C      1  0.4672750000000  0.5876150000000  0.4849530000000 1.0
C      1  0.4848490000000  0.5572340000000  0.5792750000000 1.0
C      1  0.4850440000000  0.4400460000000  0.5756960000000 1.0
C      1  0.5151730000000  0.4774340000000  0.4989910000000 1.0
C      1  0.5080440000000  0.4928050000000  0.4747050000000 1.0
C      1  0.5112720000000  0.5210470000000  0.4868570000000 1.0
C      1  0.4968910000000  0.5184120000000  0.5146000000000 1.0
C      1  0.5005450000000  0.4888330000000  0.5220610000000 1.0
END
