TITL C-27143-4867-145 -0.000569790639058472 125000 -325.19362651857 0 0 60 (C1) n - 1
REM
REM in /home/nfs/bkarasulu/CARBON/AIRSS/Generating-Clusters/AIREBO/Higher-Symm/Only-C60
REM
REM
REM
REM
REM
REM ./C.cell (28575a23ae977d3b5fae324c64b13b57)
REM
REM compiler GCC version 9.2.1 20190827 (Red Hat 9.2.1-1)
REM options -cpp -mtune=generic -march=x86-64 -g -O0 -fpre-include=/usr/include/finclude/math-vector-fortran.h
REM seed -718799656 1994624657 1107620436 -156406911 1737003650 -1227522520 -185415916 262379273 -637516633 -1709447544 -1252108577 -86218582 -1325608659 -1849377574 341005409 2044595925 1477148788 -2031973100 -997744656 -1833875756 1225204696 -1346810879 244834449 946420977 -2080883079 -2110928258 1987240166 228389689 1304043275 1134123322 1233391760 613229963 38066840
REM
CELL 1.54180   50.00000   50.00000   50.00000   90.00000   90.00000   90.00000
LATT -1
SFAC C  
C      1  0.5485050000000  0.5672750000000  0.5236510000000 1.0
C      1  0.4573880000000  0.4350290000000  0.5237800000000 1.0
C      1  0.5426850000000  0.4348700000000  0.4712400000000 1.0
C      1  0.4603370000000  0.5647010000000  0.4695250000000 1.0
C      1  0.5031410000000  0.5612640000000  0.5082300000000 1.0
C      1  0.4970800000000  0.4339280000000  0.5020420000000 1.0
C      1  0.4948390000000  0.4120410000000  0.4799090000000 1.0
C      1  0.5073730000000  0.5730540000000  0.4828640000000 1.0
C      1  0.4855410000000  0.5187830000000  0.4583140000000 1.0
C      1  0.5075110000000  0.4866220000000  0.4523310000000 1.0
C      1  0.4900420000000  0.4834950000000  0.5553910000000 1.0
C      1  0.5071880000000  0.5189010000000  0.5559180000000 1.0
C      1  0.4406390000000  0.5281780000000  0.5180660000000 1.0
C      1  0.5539110000000  0.4715150000000  0.5269050000000 1.0
C      1  0.4445670000000  0.4726040000000  0.4972950000000 1.0
C      1  0.5549560000000  0.5277910000000  0.4973890000000 1.0
C      1  0.4535680000000  0.4447620000000  0.4956270000000 1.0
C      1  0.5525260000000  0.5569480000000  0.4951100000000 1.0
C      1  0.4620840000000  0.5426670000000  0.4960010000000 1.0
C      1  0.5431040000000  0.4543320000000  0.4999310000000 1.0
C      1  0.5590240000000  0.5451920000000  0.5399440000000 1.0
C      1  0.4429010000000  0.4547340000000  0.5399340000000 1.0
C      1  0.5601620000000  0.4582130000000  0.4640820000000 1.0
C      1  0.4379290000000  0.5449270000000  0.4643470000000 1.0
C      1  0.4493670000000  0.5061640000000  0.5321450000000 1.0
C      1  0.5427970000000  0.4959580000000  0.5315830000000 1.0
C      1  0.4547180000000  0.4930070000000  0.4811240000000 1.0
C      1  0.5442390000000  0.5081060000000  0.4809420000000 1.0
C      1  0.5134870000000  0.4743670000000  0.4304530000000 1.0
C      1  0.4803940000000  0.5243910000000  0.4297120000000 1.0
C      1  0.5254100000000  0.4959760000000  0.5691470000000 1.0
C      1  0.4664990000000  0.4937950000000  0.5756640000000 1.0
C      1  0.5145440000000  0.4201330000000  0.5350960000000 1.0
C      1  0.4926190000000  0.5857130000000  0.5372430000000 1.0
C      1  0.5157380000000  0.5770690000000  0.4507110000000 1.0
C      1  0.4888410000000  0.4269930000000  0.4504520000000 1.0
C      1  0.5068170000000  0.5442350000000  0.5719650000000 1.0
C      1  0.5008350000000  0.4590630000000  0.5700350000000 1.0
C      1  0.5181280000000  0.4636950000000  0.4069590000000 1.0
C      1  0.4735170000000  0.5294330000000  0.4056520000000 1.0
C      1  0.5202670000000  0.4236970000000  0.4615990000000 1.0
C      1  0.4835050000000  0.5760640000000  0.4615070000000 1.0
C      1  0.5222290000000  0.5759310000000  0.5293750000000 1.0
C      1  0.4848040000000  0.4275160000000  0.5287240000000 1.0
C      1  0.5165850000000  0.5134660000000  0.4711280000000 1.0
C      1  0.4849820000000  0.4903630000000  0.4775220000000 1.0
C      1  0.5115630000000  0.4954470000000  0.5316750000000 1.0
C      1  0.4770310000000  0.5118630000000  0.5418630000000 1.0
C      1  0.4919450000000  0.5274800000000  0.4900870000000 1.0
C      1  0.5111490000000  0.4572670000000  0.5003720000000 1.0
C      1  0.5008270000000  0.4832680000000  0.5036650000000 1.0
C      1  0.4899300000000  0.5336950000000  0.5231160000000 1.0
C      1  0.5558000000000  0.5203770000000  0.5254100000000 1.0
C      1  0.4413330000000  0.4799330000000  0.5253690000000 1.0
C      1  0.5521800000000  0.4814780000000  0.4815560000000 1.0
C      1  0.4454890000000  0.5188430000000  0.4782830000000 1.0
C      1  0.5383960000000  0.5700700000000  0.4744730000000 1.0
C      1  0.4672770000000  0.4319680000000  0.4754530000000 1.0
C      1  0.5372360000000  0.4282680000000  0.5209780000000 1.0
C      1  0.4725180000000  0.5630840000000  0.5211350000000 1.0
END
