TITL C-27138-9601-61 -0.00146504507295803 125000 -314.364087855433 0 0 60 (C1) n - 1
REM
REM in /home/nfs/bkarasulu/CARBON/AIRSS/Generating-Clusters/AIREBO/Higher-Symm/Only-C60
REM
REM
REM
REM
REM
REM ./C.cell (28575a23ae977d3b5fae324c64b13b57)
REM
REM compiler GCC version 9.2.1 20190827 (Red Hat 9.2.1-1)
REM options -cpp -mtune=generic -march=x86-64 -g -O0 -fpre-include=/usr/include/finclude/math-vector-fortran.h
REM seed 274747388 61499351 1637481012 -1224374816 1991999688 -1120074257 -1825353540 -2103875928 -65192653 -739665719 1905742246 -1025310633 663681969 552292908 922837792 1118526768 -226650201 1787839194 -753982882 592644099 818997792 1188065147 641328114 -1403356097 -1556323545 -761859505 417304732 1719942411 -2004035441 428954915 340405159 -2085986466 -1289771760
REM
CELL 1.54180   50.00000   50.00000   50.00000   90.00000   90.00000   90.00000
LATT -1
SFAC C  
C      1  0.4792040000000  0.4627850000000  0.4450570000000 1.0
C      1  0.4832800000000  0.4257500000000  0.5065230000000 1.0
C      1  0.4827870000000  0.4588800000000  0.5552120000000 1.0
C      1  0.4894920000000  0.5191270000000  0.5700650000000 1.0
C      1  0.4862260000000  0.5691170000000  0.5174550000000 1.0
C      1  0.4785230000000  0.5548610000000  0.4589080000000 1.0
C      1  0.4919830000000  0.5051910000000  0.4277530000000 1.0
C      1  0.5495520000000  0.4805980000000  0.5334840000000 1.0
C      1  0.5503340000000  0.5145150000000  0.5410550000000 1.0
C      1  0.5482020000000  0.5438210000000  0.5239150000000 1.0
C      1  0.5555750000000  0.5571550000000  0.4930880000000 1.0
C      1  0.5535220000000  0.4852060000000  0.4496140000000 1.0
C      1  0.5584670000000  0.4733280000000  0.4810860000000 1.0
C      1  0.5537500000000  0.4561890000000  0.5100750000000 1.0
C      1  0.4510630000000  0.4607600000000  0.4392840000000 1.0
C      1  0.4541660000000  0.4274640000000  0.5152900000000 1.0
C      1  0.4573270000000  0.4690110000000  0.5443620000000 1.0
C      1  0.4629740000000  0.5089170000000  0.5734670000000 1.0
C      1  0.4577910000000  0.5695420000000  0.5181960000000 1.0
C      1  0.4550760000000  0.5430910000000  0.4788110000000 1.0
C      1  0.4645170000000  0.5002290000000  0.4385030000000 1.0
C      1  0.4445040000000  0.4547960000000  0.5205450000000 1.0
C      1  0.4535730000000  0.4972060000000  0.5487810000000 1.0
C      1  0.4628530000000  0.5198320000000  0.5251500000000 1.0
C      1  0.4516620000000  0.5441190000000  0.5064910000000 1.0
C      1  0.4593010000000  0.5145430000000  0.4667730000000 1.0
C      1  0.4506360000000  0.4829490000000  0.4644050000000 1.0
C      1  0.4595070000000  0.4721140000000  0.4953960000000 1.0
C      1  0.5367490000000  0.5710790000000  0.4735400000000 1.0
C      1  0.5415930000000  0.5055450000000  0.4253060000000 1.0
C      1  0.5334020000000  0.4670460000000  0.4322010000000 1.0
C      1  0.5327880000000  0.4391110000000  0.4889970000000 1.0
C      1  0.5350810000000  0.4500600000000  0.5373470000000 1.0
C      1  0.5380630000000  0.5118000000000  0.5721920000000 1.0
C      1  0.5272210000000  0.5622420000000  0.5412180000000 1.0
C      1  0.4980450000000  0.4949290000000  0.4596010000000 1.0
C      1  0.4869160000000  0.4659040000000  0.4762320000000 1.0
C      1  0.4834930000000  0.4585800000000  0.5153610000000 1.0
C      1  0.5054440000000  0.4785110000000  0.5598920000000 1.0
C      1  0.4921470000000  0.5281080000000  0.5406760000000 1.0
C      1  0.4952200000000  0.5522820000000  0.4940580000000 1.0
C      1  0.4901860000000  0.5250460000000  0.4741060000000 1.0
C      1  0.5014620000000  0.4389690000000  0.4857570000000 1.0
C      1  0.5070210000000  0.4461420000000  0.5365420000000 1.0
C      1  0.5110930000000  0.5015370000000  0.5760390000000 1.0
C      1  0.5003130000000  0.5577990000000  0.5389070000000 1.0
C      1  0.5097280000000  0.5644080000000  0.4680560000000 1.0
C      1  0.5164000000000  0.5091480000000  0.4147160000000 1.0
C      1  0.5077480000000  0.4700690000000  0.4385100000000 1.0
C      1  0.5212080000000  0.5405400000000  0.5035010000000 1.0
C      1  0.5393630000000  0.5314670000000  0.4780130000000 1.0
C      1  0.5302500000000  0.4991650000000  0.4696610000000 1.0
C      1  0.5250450000000  0.4711140000000  0.4870240000000 1.0
C      1  0.5071400000000  0.4752970000000  0.5094350000000 1.0
C      1  0.5179200000000  0.4858320000000  0.5340620000000 1.0
C      1  0.5200210000000  0.5156690000000  0.5254610000000 1.0
C      1  0.5700640000000  0.4940620000000  0.5020410000000 1.0
C      1  0.4445210000000  0.4980920000000  0.5099540000000 1.0
C      1  0.4183070000000  0.4998890000000  0.5101390000000 1.0
C      1  0.5417440000000  0.5063870000000  0.5008460000000 1.0
END
