TITL C-27142-7278-150 0.00215104437257896 125000 -309.837911724589 0 0 60 (C1) n - 1
REM
REM in /home/nfs/bkarasulu/CARBON/AIRSS/Generating-Clusters/AIREBO/Higher-Symm/Only-C60
REM
REM
REM
REM
REM
REM ./C.cell (28575a23ae977d3b5fae324c64b13b57)
REM
REM compiler GCC version 9.2.1 20190827 (Red Hat 9.2.1-1)
REM options -cpp -mtune=generic -march=x86-64 -g -O0 -fpre-include=/usr/include/finclude/math-vector-fortran.h
REM seed 785337610 -1411864656 1964583435 1135818163 316844290 1248430730 -1681843286 -259544897 1273950064 30545000 1210226270 -1804987165 801505638 1984253641 219054845 -1999532765 -1721600047 -464908556 -776534375 170221999 1790592449 781258035 1037178526 -880077800 -519494210 1614928025 -2042604981 -212389121 1771560031 -148392468 -1280646178 -1067924592 -1573748563
REM
CELL 1.54180   50.00000   50.00000   50.00000   90.00000   90.00000   90.00000
LATT -1
SFAC C  
C      1  0.4723350000000  0.5372940000000  0.4344550000000 1.0
C      1  0.5204980000000  0.4610320000000  0.5495540000000 1.0
C      1  0.5336750000000  0.5291370000000  0.5665700000000 1.0
C      1  0.4700420000000  0.4724810000000  0.4362950000000 1.0
C      1  0.4532180000000  0.4884000000000  0.4610560000000 1.0
C      1  0.5489150000000  0.5151060000000  0.5394070000000 1.0
C      1  0.5664920000000  0.5282130000000  0.4790890000000 1.0
C      1  0.4324540000000  0.4747140000000  0.5194400000000 1.0
C      1  0.5462680000000  0.5026500000000  0.4815090000000 1.0
C      1  0.4537650000000  0.4985270000000  0.5194520000000 1.0
C      1  0.5143540000000  0.4789440000000  0.4800390000000 1.0
C      1  0.4872340000000  0.5194440000000  0.5237660000000 1.0
C      1  0.5256270000000  0.5512820000000  0.4652730000000 1.0
C      1  0.4679160000000  0.4446620000000  0.5358180000000 1.0
C      1  0.4556340000000  0.5318890000000  0.5257550000000 1.0
C      1  0.5465170000000  0.4693730000000  0.4745170000000 1.0
C      1  0.5086190000000  0.5120040000000  0.5731320000000 1.0
C      1  0.4960390000000  0.4865740000000  0.4307960000000 1.0
C      1  0.4949370000000  0.4387100000000  0.5523610000000 1.0
C      1  0.4967070000000  0.5433670000000  0.4578060000000 1.0
C      1  0.4275510000000  0.5260730000000  0.5075820000000 1.0
C      1  0.5751690000000  0.4768540000000  0.4909000000000 1.0
C      1  0.4196650000000  0.5051070000000  0.4963380000000 1.0
C      1  0.5814860000000  0.4982640000000  0.5024510000000 1.0
C      1  0.4640020000000  0.4766220000000  0.5770380000000 1.0
C      1  0.5308080000000  0.5241740000000  0.4233150000000 1.0
C      1  0.5678420000000  0.5223790000000  0.5153190000000 1.0
C      1  0.4318820000000  0.4803740000000  0.4831820000000 1.0
C      1  0.5269670000000  0.4698930000000  0.5181100000000 1.0
C      1  0.4783930000000  0.5306750000000  0.4834950000000 1.0
C      1  0.5437040000000  0.5749690000000  0.4824410000000 1.0
C      1  0.4518300000000  0.4246430000000  0.5129340000000 1.0
C      1  0.4510280000000  0.4692660000000  0.5464520000000 1.0
C      1  0.5462730000000  0.5304050000000  0.4528710000000 1.0
C      1  0.5445440000000  0.4967930000000  0.4480200000000 1.0
C      1  0.4587810000000  0.5036000000000  0.5526960000000 1.0
C      1  0.5250020000000  0.4944240000000  0.5504000000000 1.0
C      1  0.4791300000000  0.5081640000000  0.4506510000000 1.0
C      1  0.5226320000000  0.4930890000000  0.4263230000000 1.0
C      1  0.4822770000000  0.5052880000000  0.5760510000000 1.0
C      1  0.4567060000000  0.5616630000000  0.5328360000000 1.0
C      1  0.5439970000000  0.4395810000000  0.4669990000000 1.0
C      1  0.4662050000000  0.4996400000000  0.4897900000000 1.0
C      1  0.5344370000000  0.5008570000000  0.5121320000000 1.0
C      1  0.5293270000000  0.4248280000000  0.4855950000000 1.0
C      1  0.4704830000000  0.5769850000000  0.5140760000000 1.0
C      1  0.4893560000000  0.4713480000000  0.5564460000000 1.0
C      1  0.5032790000000  0.5306480000000  0.4281230000000 1.0
C      1  0.5240230000000  0.5528700000000  0.4992040000000 1.0
C      1  0.4758550000000  0.4464800000000  0.5027990000000 1.0
C      1  0.4999710000000  0.4881620000000  0.5282580000000 1.0
C      1  0.5021340000000  0.5078610000000  0.4749990000000 1.0
C      1  0.4430590000000  0.4538030000000  0.4975740000000 1.0
C      1  0.5578550000000  0.5500320000000  0.5012510000000 1.0
C      1  0.5120320000000  0.5221420000000  0.5031870000000 1.0
C      1  0.4874420000000  0.4768610000000  0.4997770000000 1.0
C      1  0.5269280000000  0.4388260000000  0.5143370000000 1.0
C      1  0.4758150000000  0.5618300000000  0.4864550000000 1.0
C      1  0.5007160000000  0.4292330000000  0.4984860000000 1.0
C      1  0.5001680000000  0.5714900000000  0.5050150000000 1.0
END
