TITL C-27143-4867-166 -0.00125167071884093 125000 -317.436888151907 0 0 60 (C1) n - 1
REM
REM in /home/nfs/bkarasulu/CARBON/AIRSS/Generating-Clusters/AIREBO/Higher-Symm/Only-C60
REM
REM
REM
REM
REM
REM ./C.cell (28575a23ae977d3b5fae324c64b13b57)
REM
REM compiler GCC version 9.2.1 20190827 (Red Hat 9.2.1-1)
REM options -cpp -mtune=generic -march=x86-64 -g -O0 -fpre-include=/usr/include/finclude/math-vector-fortran.h
REM seed -919668864 -515532744 1858919352 -1594536061 -720727508 -358666002 -1949594410 -235805424 -1887654107 580533056 115734363 1482076876 -1113794694 -238204874 -641102843 -2097699307 -1730883531 635258821 1047635247 98008781 -1085341594 1494292810 2101856965 1696171925 168000388 -915934817 687416002 697900757 806003357 -845528065 311973399 -815186593 2092180896
REM
CELL 1.54180   50.00000   50.00000   50.00000   90.00000   90.00000   90.00000
LATT -1
SFAC C  
C      1  0.5265040000000  0.5253440000000  0.4943410000000 1.0
C      1  0.5036110000000  0.5228530000000  0.5379990000000 1.0
C      1  0.4686650000000  0.5228610000000  0.5168640000000 1.0
C      1  0.4813450000000  0.5199450000000  0.4764220000000 1.0
C      1  0.5040530000000  0.5341600000000  0.4779770000000 1.0
C      1  0.5028160000000  0.4405160000000  0.4757490000000 1.0
C      1  0.5237720000000  0.4411330000000  0.4948100000000 1.0
C      1  0.5124640000000  0.4417470000000  0.5204220000000 1.0
C      1  0.4846010000000  0.4413050000000  0.5177190000000 1.0
C      1  0.4784730000000  0.4408440000000  0.4901990000000 1.0
C      1  0.4532770000000  0.5687960000000  0.5009740000000 1.0
C      1  0.4807730000000  0.5653860000000  0.4594240000000 1.0
C      1  0.5356720000000  0.5679570000000  0.4706620000000 1.0
C      1  0.5397550000000  0.5651880000000  0.5240600000000 1.0
C      1  0.4889390000000  0.5692990000000  0.5403750000000 1.0
C      1  0.5181300000000  0.5252900000000  0.4416480000000 1.0
C      1  0.5665090000000  0.5269060000000  0.4890140000000 1.0
C      1  0.5263910000000  0.5306160000000  0.5634420000000 1.0
C      1  0.4503180000000  0.5305980000000  0.5448620000000 1.0
C      1  0.4451500000000  0.5339500000000  0.4677810000000 1.0
C      1  0.5393360000000  0.5078510000000  0.5454640000000 1.0
C      1  0.4704500000000  0.5068470000000  0.5530490000000 1.0
C      1  0.4445620000000  0.5097140000000  0.4880790000000 1.0
C      1  0.5009510000000  0.5038190000000  0.4456940000000 1.0
C      1  0.5525770000000  0.5036280000000  0.4733350000000 1.0
C      1  0.4650030000000  0.5552320000000  0.5265970000000 1.0
C      1  0.4576900000000  0.5586180000000  0.4747840000000 1.0
C      1  0.5111280000000  0.5543160000000  0.4547250000000 1.0
C      1  0.5456650000000  0.5521120000000  0.4969170000000 1.0
C      1  0.5164260000000  0.5541970000000  0.5410660000000 1.0
C      1  0.5549030000000  0.4865040000000  0.5284510000000 1.0
C      1  0.4884550000000  0.4856180000000  0.5687010000000 1.0
C      1  0.4330830000000  0.4873750000000  0.5092680000000 1.0
C      1  0.4730100000000  0.4890950000000  0.4412030000000 1.0
C      1  0.5560790000000  0.4865980000000  0.4439850000000 1.0
C      1  0.5556620000000  0.4594990000000  0.4626770000000 1.0
C      1  0.5564210000000  0.4563680000000  0.5419060000000 1.0
C      1  0.4767000000000  0.4552820000000  0.5661750000000 1.0
C      1  0.4304420000000  0.4571120000000  0.4970170000000 1.0
C      1  0.4808280000000  0.4586640000000  0.4300870000000 1.0
C      1  0.4582920000000  0.4614670000000  0.4817190000000 1.0
C      1  0.5053140000000  0.4603780000000  0.4517790000000 1.0
C      1  0.5449990000000  0.4618050000000  0.4904330000000 1.0
C      1  0.5235900000000  0.4629180000000  0.5391860000000 1.0
C      1  0.4700740000000  0.4617360000000  0.5345540000000 1.0
C      1  0.4635360000000  0.5171870000000  0.4500050000000 1.0
C      1  0.5444100000000  0.5169490000000  0.4436930000000 1.0
C      1  0.5518300000000  0.5171830000000  0.5158740000000 1.0
C      1  0.4971820000000  0.5168270000000  0.5716270000000 1.0
C      1  0.4338620000000  0.5182100000000  0.5190530000000 1.0
C      1  0.5673870000000  0.4604600000000  0.5116870000000 1.0
C      1  0.5095750000000  0.4611360000000  0.5658270000000 1.0
C      1  0.4404660000000  0.4618450000000  0.5284270000000 1.0
C      1  0.4559750000000  0.4630080000000  0.4517900000000 1.0
C      1  0.5328830000000  0.4621910000000  0.4401770000000 1.0
C      1  0.4816680000000  0.4923410000000  0.5243850000000 1.0
C      1  0.4726230000000  0.4908020000000  0.4916230000000 1.0
C      1  0.5014730000000  0.4854770000000  0.4744080000000 1.0
C      1  0.5286190000000  0.4914090000000  0.4941780000000 1.0
C      1  0.5156530000000  0.4935250000000  0.5256560000000 1.0
END
