TITL C-27131-4585-5 -0.00376854597541294 125000 -311.885693185472 0 0 60 (C1) n - 1
REM
REM in /home/nfs/bkarasulu/CARBON/AIRSS/Generating-Clusters/AIREBO/Higher-Symm/Only-C60
REM
REM
REM
REM
REM
REM ./C.cell (28575a23ae977d3b5fae324c64b13b57)
REM
REM compiler GCC version 9.2.1 20190827 (Red Hat 9.2.1-1)
REM options -cpp -mtune=generic -march=x86-64 -g -O0 -fpre-include=/usr/include/finclude/math-vector-fortran.h
REM seed 2015817472 -1325565702 -1973997503 -187167489 -1206418620 1064604720 -1043308751 -566179630 -1815511337 209301098 -1218830574 677712604 1996663792 662755371 -844911429 -505713584 -179124997 1061197985 506307729 471241441 1315709178 1851632888 1456781223 46803750 166752491 -391022026 -1815225621 -1679211047 -2074550871 1522312192 1551268195 1792118690 984087755
REM
CELL 1.54180   50.00000   50.00000   50.00000   90.00000   90.00000   90.00000
LATT -1
SFAC C  
C      1  0.4701940000000  0.5569620000000  0.4798850000000 1.0
C      1  0.5285180000000  0.5473680000000  0.5161640000000 1.0
C      1  0.4713350000000  0.4392660000000  0.5016400000000 1.0
C      1  0.5295380000000  0.4498160000000  0.5146080000000 1.0
C      1  0.4808270000000  0.5665770000000  0.5097230000000 1.0
C      1  0.5234660000000  0.5551280000000  0.4853060000000 1.0
C      1  0.4806250000000  0.4409180000000  0.5279940000000 1.0
C      1  0.5176720000000  0.4458500000000  0.4834760000000 1.0
C      1  0.5198460000000  0.5116320000000  0.5726420000000 1.0
C      1  0.4880610000000  0.5170520000000  0.4281240000000 1.0
C      1  0.5223200000000  0.4797260000000  0.5654640000000 1.0
C      1  0.4862930000000  0.4862770000000  0.4212900000000 1.0
C      1  0.5208770000000  0.5211910000000  0.4295070000000 1.0
C      1  0.4882240000000  0.5172810000000  0.5731180000000 1.0
C      1  0.5171150000000  0.4900840000000  0.4331330000000 1.0
C      1  0.4896050000000  0.4857600000000  0.5717200000000 1.0
C      1  0.4328930000000  0.4807520000000  0.4723820000000 1.0
C      1  0.5761040000000  0.4784830000000  0.5237380000000 1.0
C      1  0.4285400000000  0.5116810000000  0.4673590000000 1.0
C      1  0.5683830000000  0.5042580000000  0.5227830000000 1.0
C      1  0.4151740000000  0.4886730000000  0.5175670000000 1.0
C      1  0.5649180000000  0.4876540000000  0.4684710000000 1.0
C      1  0.4155810000000  0.5166850000000  0.5171840000000 1.0
C      1  0.5700120000000  0.5120400000000  0.4719580000000 1.0
C      1  0.4619550000000  0.5075520000000  0.4675160000000 1.0
C      1  0.5378960000000  0.5098300000000  0.5256430000000 1.0
C      1  0.4664260000000  0.4771880000000  0.4680010000000 1.0
C      1  0.5211740000000  0.4902630000000  0.5132250000000 1.0
C      1  0.4612590000000  0.5161390000000  0.5291230000000 1.0
C      1  0.5305150000000  0.5170870000000  0.4744090000000 1.0
C      1  0.4606290000000  0.4887780000000  0.5301300000000 1.0
C      1  0.5265010000000  0.4898890000000  0.4835570000000 1.0
C      1  0.5608490000000  0.5372570000000  0.5192020000000 1.0
C      1  0.4490690000000  0.5332760000000  0.4841890000000 1.0
C      1  0.5606640000000  0.4591040000000  0.5121270000000 1.0
C      1  0.4525670000000  0.4604180000000  0.4918310000000 1.0
C      1  0.5537390000000  0.5352450000000  0.4876220000000 1.0
C      1  0.4414830000000  0.5278730000000  0.5131320000000 1.0
C      1  0.5491970000000  0.4645750000000  0.4832860000000 1.0
C      1  0.4405440000000  0.4765500000000  0.5152230000000 1.0
C      1  0.4695600000000  0.4593780000000  0.5756030000000 1.0
C      1  0.5390840000000  0.4641460000000  0.4340130000000 1.0
C      1  0.4710650000000  0.5440370000000  0.5746990000000 1.0
C      1  0.5307540000000  0.5530190000000  0.4311540000000 1.0
C      1  0.4758440000000  0.4557850000000  0.4200420000000 1.0
C      1  0.5397370000000  0.4622550000000  0.5824680000000 1.0
C      1  0.4672740000000  0.5437980000000  0.4258020000000 1.0
C      1  0.5377450000000  0.5382720000000  0.5738630000000 1.0
C      1  0.4800460000000  0.4696050000000  0.5433290000000 1.0
C      1  0.5171480000000  0.4691230000000  0.4599420000000 1.0
C      1  0.4809650000000  0.5324740000000  0.5440940000000 1.0
C      1  0.5127820000000  0.5382110000000  0.4578130000000 1.0
C      1  0.4856960000000  0.4674940000000  0.4491810000000 1.0
C      1  0.5125060000000  0.4707500000000  0.5353150000000 1.0
C      1  0.4790830000000  0.5335300000000  0.4564880000000 1.0
C      1  0.5246850000000  0.5298770000000  0.5450690000000 1.0
C      1  0.4914260000000  0.4311650000000  0.4843270000000 1.0
C      1  0.5068970000000  0.4314510000000  0.5306600000000 1.0
C      1  0.5004240000000  0.5717740000000  0.4756740000000 1.0
C      1  0.4966930000000  0.5517180000000  0.5270140000000 1.0
END
