TITL C-27142-7278-48 0.000573807853001092 125000 -322.98368587107 0 0 60 (C1) n - 1
REM
REM in /home/nfs/bkarasulu/CARBON/AIRSS/Generating-Clusters/AIREBO/Higher-Symm/Only-C60
REM
REM
REM
REM
REM
REM ./C.cell (28575a23ae977d3b5fae324c64b13b57)
REM
REM compiler GCC version 9.2.1 20190827 (Red Hat 9.2.1-1)
REM options -cpp -mtune=generic -march=x86-64 -g -O0 -fpre-include=/usr/include/finclude/math-vector-fortran.h
REM seed -2047181606 1171373903 -158077073 218275924 -1723825810 -222143562 1153757592 1224172980 843458460 -1254782065 621468510 -1234090823 -2101792206 -311165499 105505011 -389866183 399783431 377275054 -97777718 1390739735 -1496189337 1050546386 865850190 528186136 577864673 -646246642 -380297854 -1918394015 -678259238 -158748881 -1720206780 2120025486 -1107796580
REM
CELL 1.54180   50.00000   50.00000   50.00000   90.00000   90.00000   90.00000
LATT -1
SFAC C  
C      1  0.4478880000000  0.5415780000000  0.5113860000000 1.0
C      1  0.4828600000000  0.4193750000000  0.5227140000000 1.0
C      1  0.5776690000000  0.5300030000000  0.5270460000000 1.0
C      1  0.4870020000000  0.5102670000000  0.5784490000000 1.0
C      1  0.4981240000000  0.4805030000000  0.5772540000000 1.0
C      1  0.5184170000000  0.5052550000000  0.5764270000000 1.0
C      1  0.4653780000000  0.4929480000000  0.5048270000000 1.0
C      1  0.5311090000000  0.4683400000000  0.5025420000000 1.0
C      1  0.5109490000000  0.5384760000000  0.4961030000000 1.0
C      1  0.4772680000000  0.5267630000000  0.5536750000000 1.0
C      1  0.4861990000000  0.4654860000000  0.5523840000000 1.0
C      1  0.5373310000000  0.5030480000000  0.5516170000000 1.0
C      1  0.4611280000000  0.4480170000000  0.4781710000000 1.0
C      1  0.5784420000000  0.5008860000000  0.4727730000000 1.0
C      1  0.4805480000000  0.5401760000000  0.4705410000000 1.0
C      1  0.4484640000000  0.5276330000000  0.4336260000000 1.0
C      1  0.4744010000000  0.4504820000000  0.4475530000000 1.0
C      1  0.5650810000000  0.5102020000000  0.4471680000000 1.0
C      1  0.4795860000000  0.4837370000000  0.4686220000000 1.0
C      1  0.5138730000000  0.4974320000000  0.4553700000000 1.0
C      1  0.4993600000000  0.5401140000000  0.4452840000000 1.0
C      1  0.5239780000000  0.4965680000000  0.5148490000000 1.0
C      1  0.4976330000000  0.5153600000000  0.5112980000000 1.0
C      1  0.4934780000000  0.4815940000000  0.5161080000000 1.0
C      1  0.4880090000000  0.5638170000000  0.4931230000000 1.0
C      1  0.4461900000000  0.4692410000000  0.5005180000000 1.0
C      1  0.5645410000000  0.4639500000000  0.4996290000000 1.0
C      1  0.5046420000000  0.4671820000000  0.4421400000000 1.0
C      1  0.5272090000000  0.5354770000000  0.4296470000000 1.0
C      1  0.4665360000000  0.5045750000000  0.4205080000000 1.0
C      1  0.5500580000000  0.5130240000000  0.5217080000000 1.0
C      1  0.4664820000000  0.5202270000000  0.5240310000000 1.0
C      1  0.4915300000000  0.4514120000000  0.5231850000000 1.0
C      1  0.5515720000000  0.5296660000000  0.4688460000000 1.0
C      1  0.4440750000000  0.5272020000000  0.4608910000000 1.0
C      1  0.4997570000000  0.4454500000000  0.4686610000000 1.0
C      1  0.5597000000000  0.4598820000000  0.5290610000000 1.0
C      1  0.4987590000000  0.5642570000000  0.5236680000000 1.0
C      1  0.4366750000000  0.4702340000000  0.5295760000000 1.0
C      1  0.4789880000000  0.5911530000000  0.4842710000000 1.0
C      1  0.4289340000000  0.4485870000000  0.4797400000000 1.0
C      1  0.5815940000000  0.4746000000000  0.4811150000000 1.0
C      1  0.4850280000000  0.4345450000000  0.4948840000000 1.0
C      1  0.5684930000000  0.5210760000000  0.4954710000000 1.0
C      1  0.4503320000000  0.5462730000000  0.4849900000000 1.0
C      1  0.5293990000000  0.5348880000000  0.5484440000000 1.0
C      1  0.4528710000000  0.5051890000000  0.5583820000000 1.0
C      1  0.5173770000000  0.4549600000000  0.5534410000000 1.0
C      1  0.5212560000000  0.5282950000000  0.4684950000000 1.0
C      1  0.4667130000000  0.5104940000000  0.4784680000000 1.0
C      1  0.5101870000000  0.4747340000000  0.4804590000000 1.0
C      1  0.5285260000000  0.5515060000000  0.5217050000000 1.0
C      1  0.4255590000000  0.4969470000000  0.5438170000000 1.0
C      1  0.5307690000000  0.4457530000000  0.5277320000000 1.0
C      1  0.4783950000000  0.5339010000000  0.4237910000000 1.0
C      1  0.4745620000000  0.4814260000000  0.4351860000000 1.0
C      1  0.5373560000000  0.5106630000000  0.4365290000000 1.0
C      1  0.5435970000000  0.4731880000000  0.5531580000000 1.0
C      1  0.4998560000000  0.5461190000000  0.5484170000000 1.0
C      1  0.4583080000000  0.4758660000000  0.5505260000000 1.0
END
