TITL C-27139-4854-77 0.000241718798990284 125000 -323.201034252222 0 0 60 (C1) n - 1
REM
REM in /home/nfs/bkarasulu/CARBON/AIRSS/Generating-Clusters/AIREBO/Higher-Symm/Only-C60
REM
REM
REM
REM
REM
REM ./C.cell (28575a23ae977d3b5fae324c64b13b57)
REM
REM compiler GCC version 9.2.1 20190827 (Red Hat 9.2.1-1)
REM options -cpp -mtune=generic -march=x86-64 -g -O0 -fpre-include=/usr/include/finclude/math-vector-fortran.h
REM seed -383280868 -1548972683 -1380982678 262422657 -122990638 -1648150725 -1147979827 -1284507168 -1363883444 395091566 1994939448 1506519960 1826679079 1674328352 1260340004 -1940069761 -1590198486 -1208303098 -1367865728 314655719 573442517 1767686032 369904866 -1453383316 893465140 390455710 -1354249893 1788808825 1611478770 1846705034 163011997 -1845023542 197982434
REM
CELL 1.54180   50.00000   50.00000   50.00000   90.00000   90.00000   90.00000
LATT -1
SFAC C  
C      1  0.5258250000000  0.4836510000000  0.4936720000000 1.0
C      1  0.5253570000000  0.5190090000000  0.5121750000000 1.0
C      1  0.5125300000000  0.4777180000000  0.5205410000000 1.0
C      1  0.4987930000000  0.5253830000000  0.5259390000000 1.0
C      1  0.4842510000000  0.4887240000000  0.5164240000000 1.0
C      1  0.4769430000000  0.5172900000000  0.5051900000000 1.0
C      1  0.4767300000000  0.4816520000000  0.4871210000000 1.0
C      1  0.4906210000000  0.5239270000000  0.4782720000000 1.0
C      1  0.5033130000000  0.4749050000000  0.4739380000000 1.0
C      1  0.5190440000000  0.5127610000000  0.4823900000000 1.0
C      1  0.4637900000000  0.5052610000000  0.5587620000000 1.0
C      1  0.4368730000000  0.4998240000000  0.5299170000000 1.0
C      1  0.4296540000000  0.5048620000000  0.4909550000000 1.0
C      1  0.4447640000000  0.5018950000000  0.4540850000000 1.0
C      1  0.4924330000000  0.5009410000000  0.4312900000000 1.0
C      1  0.5397260000000  0.4917130000000  0.4415660000000 1.0
C      1  0.5679330000000  0.4979780000000  0.4688440000000 1.0
C      1  0.5731860000000  0.4949050000000  0.5081590000000 1.0
C      1  0.5506100000000  0.5034910000000  0.5524360000000 1.0
C      1  0.5009680000000  0.4911250000000  0.5680260000000 1.0
C      1  0.5222580000000  0.5405350000000  0.4537890000000 1.0
C      1  0.5513560000000  0.4476020000000  0.4838490000000 1.0
C      1  0.5542950000000  0.5449810000000  0.5028320000000 1.0
C      1  0.5309370000000  0.4514020000000  0.5437690000000 1.0
C      1  0.4903090000000  0.5548630000000  0.5485980000000 1.0
C      1  0.4727260000000  0.4527830000000  0.5454530000000 1.0
C      1  0.4500470000000  0.5515340000000  0.5174390000000 1.0
C      1  0.4466980000000  0.4547230000000  0.4966610000000 1.0
C      1  0.4687060000000  0.5494600000000  0.4571850000000 1.0
C      1  0.5120090000000  0.4457370000000  0.4510140000000 1.0
C      1  0.4866980000000  0.5572530000000  0.4839250000000 1.0
C      1  0.4900400000000  0.4437360000000  0.4768920000000 1.0
C      1  0.5169370000000  0.5583290000000  0.4750410000000 1.0
C      1  0.5227680000000  0.4392770000000  0.4849690000000 1.0
C      1  0.5313640000000  0.5601130000000  0.4998440000000 1.0
C      1  0.5122540000000  0.4443930000000  0.5168600000000 1.0
C      1  0.5112090000000  0.5567690000000  0.5218430000000 1.0
C      1  0.4827220000000  0.4378410000000  0.5237140000000 1.0
C      1  0.4782050000000  0.5615160000000  0.5151740000000 1.0
C      1  0.4694900000000  0.4394830000000  0.4985550000000 1.0
C      1  0.5717040000000  0.5254640000000  0.4882870000000 1.0
C      1  0.5785240000000  0.4920950000000  0.5389050000000 1.0
C      1  0.5255390000000  0.5143570000000  0.5716560000000 1.0
C      1  0.4826800000000  0.4658930000000  0.5696160000000 1.0
C      1  0.4346150000000  0.5114690000000  0.5619420000000 1.0
C      1  0.4283400000000  0.4743050000000  0.5108990000000 1.0
C      1  0.4174210000000  0.5176780000000  0.4646630000000 1.0
C      1  0.4601660000000  0.4933660000000  0.4252870000000 1.0
C      1  0.5055690000000  0.5319620000000  0.4336300000000 1.0
C      1  0.5687440000000  0.4847510000000  0.4374140000000 1.0
C      1  0.4474730000000  0.5234140000000  0.5101660000000 1.0
C      1  0.4480970000000  0.4805700000000  0.4770500000000 1.0
C      1  0.4726330000000  0.5190390000000  0.4521890000000 1.0
C      1  0.5117540000000  0.4789670000000  0.4427360000000 1.0
C      1  0.5412710000000  0.5176910000000  0.4613130000000 1.0
C      1  0.5552370000000  0.4759110000000  0.4896440000000 1.0
C      1  0.5536950000000  0.5185760000000  0.5232070000000 1.0
C      1  0.5266300000000  0.4818250000000  0.5495760000000 1.0
C      1  0.4910300000000  0.5217500000000  0.5570670000000 1.0
C      1  0.4645020000000  0.4815710000000  0.5376460000000 1.0
END
