TITL C-27132-7279-68 -0.0494841047080613 125000 -289.437219912323 0 0 60 (C2) n - 1
REM
REM in /home/nfs/bkarasulu/CARBON/AIRSS/Generating-Clusters/AIREBO/Higher-Symm/Only-C60
REM
REM
REM
REM
REM
REM ./C.cell (28575a23ae977d3b5fae324c64b13b57)
REM
REM compiler GCC version 9.2.1 20190827 (Red Hat 9.2.1-1)
REM options -cpp -mtune=generic -march=x86-64 -g -O0 -fpre-include=/usr/include/finclude/math-vector-fortran.h
REM seed -1580605907 -1005387745 1937737950 -1423346440 870460023 993579661 -145970693 -1123684637 647641275 1960274117 60220196 -541389147 -1078539850 -2012586630 -1523864118 1905255229 -1403223700 751880933 1721497911 2005659906 -972710641 1769941820 -2094781493 105225099 295851875 -1686791596 -565096209 1654176147 -1279228997 1052359249 146478815 -1738674670 495475475
REM
CELL 1.54180   50.00000   50.00000   50.00000   90.00000   90.00000   90.00000
LATT -1
SFAC C  
C      1  0.5465570000000  0.4584920000000  0.5291970000000 1.0
C      1  0.5138090000000  0.5609320000000  0.5288370000000 1.0
C      1  0.4403180000000  0.4818050000000  0.5293840000000 1.0
C      1  0.4541280000000  0.4575840000000  0.4711630000000 1.0
C      1  0.4859360000000  0.5607870000000  0.4706100000000 1.0
C      1  0.5592250000000  0.4804220000000  0.4708120000000 1.0
C      1  0.5548570000000  0.5073100000000  0.5531470000000 1.0
C      1  0.4634450000000  0.5428340000000  0.5535310000000 1.0
C      1  0.4807080000000  0.4471440000000  0.5543250000000 1.0
C      1  0.4446400000000  0.5102490000000  0.4464610000000 1.0
C      1  0.5361450000000  0.5431250000000  0.4456750000000 1.0
C      1  0.5210990000000  0.4488280000000  0.4468580000000 1.0
C      1  0.5673190000000  0.4846430000000  0.4943110000000 1.0
C      1  0.4806850000000  0.5658390000000  0.4944890000000 1.0
C      1  0.4524500000000  0.4503160000000  0.4950040000000 1.0
C      1  0.4333220000000  0.4838240000000  0.5055040000000 1.0
C      1  0.5192670000000  0.5660130000000  0.5049950000000 1.0
C      1  0.5469500000000  0.4493690000000  0.5057000000000 1.0
C      1  0.4983850000000  0.5190930000000  0.5735150000000 1.0
C      1  0.4843910000000  0.4898380000000  0.5737810000000 1.0
C      1  0.5165220000000  0.4923980000000  0.5735690000000 1.0
C      1  0.5010090000000  0.5185930000000  0.4262170000000 1.0
C      1  0.5148500000000  0.4894840000000  0.4264350000000 1.0
C      1  0.4826640000000  0.4918500000000  0.4264870000000 1.0
C      1  0.5143870000000  0.5271160000000  0.4972900000000 1.0
C      1  0.4695830000000  0.4987740000000  0.4978500000000 1.0
C      1  0.5161740000000  0.4740260000000  0.4991210000000 1.0
C      1  0.4858480000000  0.5269570000000  0.5021390000000 1.0
C      1  0.5305770000000  0.4989720000000  0.5008820000000 1.0
C      1  0.4837060000000  0.4739780000000  0.5027050000000 1.0
C      1  0.4719050000000  0.5134310000000  0.5370070000000 1.0
C      1  0.5023190000000  0.4687540000000  0.5376710000000 1.0
C      1  0.5249470000000  0.5175380000000  0.5357230000000 1.0
C      1  0.5282280000000  0.5136070000000  0.4623280000000 1.0
C      1  0.4972840000000  0.4696190000000  0.4642770000000 1.0
C      1  0.4743330000000  0.5176190000000  0.4629870000000 1.0
C      1  0.5284590000000  0.4806620000000  0.4563210000000 1.0
C      1  0.5022410000000  0.5346780000000  0.4561490000000 1.0
C      1  0.4686570000000  0.4846830000000  0.4566290000000 1.0
C      1  0.4710800000000  0.4807320000000  0.5438470000000 1.0
C      1  0.4975950000000  0.5348070000000  0.5433720000000 1.0
C      1  0.5309690000000  0.4850190000000  0.5436840000000 1.0
C      1  0.4680900000000  0.4536800000000  0.5234340000000 1.0
C      1  0.5568480000000  0.4974750000000  0.5206620000000 1.0
C      1  0.4756510000000  0.5506730000000  0.5227770000000 1.0
C      1  0.5306080000000  0.4520220000000  0.4793440000000 1.0
C      1  0.4439400000000  0.4957620000000  0.4772150000000 1.0
C      1  0.5241750000000  0.5507870000000  0.4765650000000 1.0
C      1  0.4482340000000  0.5200200000000  0.5136780000000 1.0
C      1  0.5082080000000  0.4447000000000  0.5143750000000 1.0
C      1  0.5433660000000  0.5345930000000  0.5135010000000 1.0
C      1  0.5519970000000  0.5205310000000  0.4856320000000 1.0
C      1  0.4917210000000  0.4451400000000  0.4865000000000 1.0
C      1  0.4567980000000  0.5348250000000  0.4863170000000 1.0
C      1  0.5612700000000  0.5337070000000  0.5376910000000 1.0
C      1  0.4376040000000  0.5336130000000  0.5386640000000 1.0
C      1  0.5012320000000  0.4289800000000  0.5393470000000 1.0
C      1  0.4397090000000  0.5372390000000  0.4613320000000 1.0
C      1  0.5621320000000  0.5344320000000  0.4606630000000 1.0
C      1  0.5014420000000  0.4300780000000  0.4623120000000 1.0
END
