TITL C-27136-4842-61 -0.000132916666352472 125000 -349.937573170856 0 0 60 (C1) n - 1
REM
REM in /home/nfs/bkarasulu/CARBON/AIRSS/Generating-Clusters/AIREBO/Higher-Symm/Only-C60
REM
REM
REM
REM
REM
REM ./C.cell (28575a23ae977d3b5fae324c64b13b57)
REM
REM compiler GCC version 9.2.1 20190827 (Red Hat 9.2.1-1)
REM options -cpp -mtune=generic -march=x86-64 -g -O0 -fpre-include=/usr/include/finclude/math-vector-fortran.h
REM seed 1618001544 97061364 -1590481163 375826445 1950274930 407908804 279356482 1868774820 297277862 -395624255 -45584702 -946778689 -1715403573 -1231336782 34743923 1497717722 1085277845 538260548 1067109304 1650487272 -384129009 -1730565056 -822982541 -1895398254 1414383976 -1184760279 1829513853 -352957181 274148011 446318037 -1294099672 2032421873 -1331405876
REM
CELL 1.54180   50.00000   50.00000   50.00000   90.00000   90.00000   90.00000
LATT -1
SFAC C  
C      1  0.5193480000000  0.5427170000000  0.5117540000000 1.0
C      1  0.5312760000000  0.5419090000000  0.5435840000000 1.0
C      1  0.5252340000000  0.5087500000000  0.5390640000000 1.0
C      1  0.5285100000000  0.4775220000000  0.5513710000000 1.0
C      1  0.5257530000000  0.4518250000000  0.5294590000000 1.0
C      1  0.5240860000000  0.4592960000000  0.4975090000000 1.0
C      1  0.5289310000000  0.4575660000000  0.4638900000000 1.0
C      1  0.5256000000000  0.4878870000000  0.4535260000000 1.0
C      1  0.5162350000000  0.5177160000000  0.4668870000000 1.0
C      1  0.5050700000000  0.5410450000000  0.4840530000000 1.0
C      1  0.4291130000000  0.5363660000000  0.5247380000000 1.0
C      1  0.4475930000000  0.5208950000000  0.5385730000000 1.0
C      1  0.4457740000000  0.4933200000000  0.5406020000000 1.0
C      1  0.4545900000000  0.4684290000000  0.5216580000000 1.0
C      1  0.4452050000000  0.4600640000000  0.4913730000000 1.0
C      1  0.4513600000000  0.4724050000000  0.4671440000000 1.0
C      1  0.4411420000000  0.4965600000000  0.4577940000000 1.0
C      1  0.4558870000000  0.5198770000000  0.4620000000000 1.0
C      1  0.4506410000000  0.5386410000000  0.4809280000000 1.0
C      1  0.4284670000000  0.5408370000000  0.4976570000000 1.0
C      1  0.4993120000000  0.5635960000000  0.4600660000000 1.0
C      1  0.4978440000000  0.5945200000000  0.5082120000000 1.0
C      1  0.5084420000000  0.5601660000000  0.5531690000000 1.0
C      1  0.4908020000000  0.5267510000000  0.5898410000000 1.0
C      1  0.5063850000000  0.4738170000000  0.5720110000000 1.0
C      1  0.5018020000000  0.4363580000000  0.5401230000000 1.0
C      1  0.4956620000000  0.4064840000000  0.4982310000000 1.0
C      1  0.5104640000000  0.4379310000000  0.4504850000000 1.0
C      1  0.4913430000000  0.4714260000000  0.4110570000000 1.0
C      1  0.4911540000000  0.5295250000000  0.4134290000000 1.0
C      1  0.4832830000000  0.5196890000000  0.4513520000000 1.0
C      1  0.4739020000000  0.5538700000000  0.4892360000000 1.0
C      1  0.4871540000000  0.5474530000000  0.5191120000000 1.0
C      1  0.4760460000000  0.5301750000000  0.5418700000000 1.0
C      1  0.4945370000000  0.5034360000000  0.5479430000000 1.0
C      1  0.4750140000000  0.4780310000000  0.5456040000000 1.0
C      1  0.4717080000000  0.4458570000000  0.5049850000000 1.0
C      1  0.4942810000000  0.4534320000000  0.4834410000000 1.0
C      1  0.4797930000000  0.4669480000000  0.4595660000000 1.0
C      1  0.4957770000000  0.4907600000000  0.4457840000000 1.0
C      1  0.4906620000000  0.5014690000000  0.4152960000000 1.0
C      1  0.4926740000000  0.5471140000000  0.4381100000000 1.0
C      1  0.4907210000000  0.5822010000000  0.4837010000000 1.0
C      1  0.4981600000000  0.5765910000000  0.5302130000000 1.0
C      1  0.4885580000000  0.5449390000000  0.5678640000000 1.0
C      1  0.4954180000000  0.5002350000000  0.5806500000000 1.0
C      1  0.4886420000000  0.4532860000000  0.5589870000000 1.0
C      1  0.4866590000000  0.4239780000000  0.5199240000000 1.0
C      1  0.4992030000000  0.4216680000000  0.4740840000000 1.0
C      1  0.4919900000000  0.4532280000000  0.4326490000000 1.0
C      1  0.5474890000000  0.5194540000000  0.4644650000000 1.0
C      1  0.5595010000000  0.5370610000000  0.4825840000000 1.0
C      1  0.5506120000000  0.5400110000000  0.5088330000000 1.0
C      1  0.5601310000000  0.5274280000000  0.5341650000000 1.0
C      1  0.5592200000000  0.4988480000000  0.5378430000000 1.0
C      1  0.5594380000000  0.4698030000000  0.5408470000000 1.0
C      1  0.5576170000000  0.4516420000000  0.5175990000000 1.0
C      1  0.5586120000000  0.4604440000000  0.4900270000000 1.0
C      1  0.5601210000000  0.4699430000000  0.4623050000000 1.0
C      1  0.5600530000000  0.4968070000000  0.4507730000000 1.0
END
