TITL C-27135-6010-176 -0.00093601208823963 125000 -324.09266519886 0 0 60 (C1) n - 1
REM
REM in /home/nfs/bkarasulu/CARBON/AIRSS/Generating-Clusters/AIREBO/Higher-Symm/Only-C60
REM
REM
REM
REM
REM
REM ./C.cell (28575a23ae977d3b5fae324c64b13b57)
REM
REM compiler GCC version 9.2.1 20190827 (Red Hat 9.2.1-1)
REM options -cpp -mtune=generic -march=x86-64 -g -O0 -fpre-include=/usr/include/finclude/math-vector-fortran.h
REM seed 888110300 -1857249977 277940456 893560347 -720759681 -393774128 1226045097 1638343198 1329266612 -1284820825 -260617772 -702942844 92193442 -948192753 1304250225 -394758927 917304824 865394346 2146804547 -1709207803 -694306941 -622157170 1346297985 104383543 -1613894305 1038242357 -1041561961 1819648499 -934324640 -799825125 371579170 -1343326539 344882588
REM
CELL 1.54180   50.00000   50.00000   50.00000   90.00000   90.00000   90.00000
LATT -1
SFAC C  
C      1  0.5455110000000  0.4759160000000  0.5156170000000 1.0
C      1  0.4902290000000  0.4808780000000  0.4529770000000 1.0
C      1  0.4653160000000  0.4797060000000  0.5298230000000 1.0
C      1  0.5430030000000  0.5156720000000  0.5121010000000 1.0
C      1  0.4873770000000  0.5203740000000  0.4578770000000 1.0
C      1  0.4684930000000  0.5195230000000  0.5313950000000 1.0
C      1  0.5566670000000  0.5295400000000  0.4616870000000 1.0
C      1  0.4347250000000  0.5300000000000  0.4696150000000 1.0
C      1  0.5045430000000  0.5303670000000  0.5702310000000 1.0
C      1  0.5566010000000  0.4763070000000  0.4596930000000 1.0
C      1  0.4387110000000  0.4765750000000  0.4712350000000 1.0
C      1  0.5036410000000  0.4772920000000  0.5694880000000 1.0
C      1  0.5151660000000  0.4533500000000  0.5285200000000 1.0
C      1  0.5177350000000  0.4480250000000  0.4784970000000 1.0
C      1  0.4732580000000  0.4533150000000  0.5008540000000 1.0
C      1  0.5128550000000  0.5533780000000  0.5257560000000 1.0
C      1  0.5136590000000  0.5523010000000  0.4783540000000 1.0
C      1  0.4682490000000  0.5567220000000  0.4966680000000 1.0
C      1  0.5140550000000  0.4809820000000  0.4748240000000 1.0
C      1  0.4744420000000  0.4865780000000  0.5000830000000 1.0
C      1  0.5154900000000  0.4852650000000  0.5254630000000 1.0
C      1  0.5110530000000  0.5206440000000  0.4786070000000 1.0
C      1  0.4688590000000  0.5259080000000  0.5018520000000 1.0
C      1  0.5158260000000  0.5233720000000  0.5249940000000 1.0
C      1  0.4897930000000  0.4623960000000  0.5468120000000 1.0
C      1  0.5473350000000  0.4611530000000  0.4844940000000 1.0
C      1  0.4657470000000  0.4629950000000  0.4691370000000 1.0
C      1  0.4881610000000  0.5436980000000  0.5465000000000 1.0
C      1  0.5443090000000  0.5415670000000  0.4860970000000 1.0
C      1  0.4612180000000  0.5444060000000  0.4673440000000 1.0
C      1  0.4216700000000  0.4781290000000  0.4943450000000 1.0
C      1  0.5321220000000  0.4786240000000  0.5738090000000 1.0
C      1  0.5445760000000  0.4801060000000  0.4334590000000 1.0
C      1  0.4180820000000  0.5263050000000  0.4935800000000 1.0
C      1  0.5334680000000  0.5267340000000  0.5730810000000 1.0
C      1  0.5436310000000  0.5283370000000  0.4359480000000 1.0
C      1  0.5420890000000  0.4421710000000  0.5122160000000 1.0
C      1  0.4936560000000  0.4477540000000  0.4570920000000 1.0
C      1  0.4637850000000  0.4459190000000  0.5323750000000 1.0
C      1  0.5370000000000  0.5639000000000  0.5086330000000 1.0
C      1  0.4884250000000  0.5614970000000  0.4625010000000 1.0
C      1  0.4762360000000  0.5684360000000  0.5270430000000 1.0
C      1  0.4838210000000  0.5053810000000  0.4082400000000 1.0
C      1  0.4278890000000  0.5017210000000  0.5615470000000 1.0
C      1  0.5870960000000  0.5007330000000  0.5352070000000 1.0
C      1  0.5683580000000  0.5025090000000  0.4681240000000 1.0
C      1  0.4380850000000  0.5026000000000  0.4570050000000 1.0
C      1  0.4913650000000  0.5035510000000  0.5752030000000 1.0
C      1  0.5389470000000  0.5020620000000  0.4844490000000 1.0
C      1  0.4656830000000  0.5057040000000  0.4759240000000 1.0
C      1  0.4943050000000  0.5045620000000  0.5417080000000 1.0
C      1  0.4979550000000  0.5035600000000  0.4321770000000 1.0
C      1  0.5592040000000  0.4993410000000  0.5347860000000 1.0
C      1  0.4417600000000  0.5016530000000  0.5347040000000 1.0
C      1  0.5289670000000  0.5043470000000  0.4295870000000 1.0
C      1  0.4230530000000  0.5025810000000  0.5098080000000 1.0
C      1  0.5451500000000  0.5020400000000  0.5627860000000 1.0
C      1  0.4981560000000  0.5687850000000  0.5006810000000 1.0
C      1  0.5018150000000  0.4409670000000  0.5031180000000 1.0
C      1  0.5027730000000  0.4972620000000  0.5004930000000 1.0
END
