TITL C-27137-4574-159 -0.1017397058887 125000 -355.2771791639 0 0 60 (C1) n - 1
REM
REM in /home/nfs/bkarasulu/CARBON/AIRSS/Generating-Clusters/AIREBO/Higher-Symm/Only-C60
REM
REM
REM
REM
REM
REM ./C.cell (28575a23ae977d3b5fae324c64b13b57)
REM
REM compiler GCC version 9.2.1 20190827 (Red Hat 9.2.1-1)
REM options -cpp -mtune=generic -march=x86-64 -g -O0 -fpre-include=/usr/include/finclude/math-vector-fortran.h
REM seed 1561033237 -1237196000 -842815965 513234177 -379773863 465203007 -802327955 -1673829961 -107511396 -181634482 -2135780092 -1370200333 -727858277 1084169062 895560527 -11637925 -447203667 983928050 -168535113 1721101688 747665556 -1397159861 -53655731 498972368 1591799205 1751865582 -1898737086 -821384878 -1693693712 -1197809146 73356962 -1523117533 -644684989
REM
CELL 1.54180   50.00000   50.00000   50.00000   90.00000   90.00000   90.00000
LATT -1
SFAC C  
C      1  0.4536080000000  0.4889570000000  0.4532280000000 1.0
C      1  0.4608730000000  0.4593610000000  0.4949510000000 1.0
C      1  0.4599550000000  0.4864820000000  0.5387490000000 1.0
C      1  0.4631190000000  0.5373040000000  0.5286190000000 1.0
C      1  0.4561470000000  0.5356760000000  0.4747310000000 1.0
C      1  0.4576510000000  0.5161250000000  0.4535080000000 1.0
C      1  0.4574710000000  0.5429710000000  0.5006270000000 1.0
C      1  0.4619590000000  0.5150390000000  0.5446150000000 1.0
C      1  0.4616780000000  0.4639280000000  0.5235070000000 1.0
C      1  0.4609540000000  0.4653320000000  0.4683710000000 1.0
C      1  0.5316190000000  0.5289400000000  0.5695550000000 1.0
C      1  0.5276760000000  0.5577390000000  0.4944100000000 1.0
C      1  0.5353870000000  0.5121170000000  0.4245340000000 1.0
C      1  0.5362580000000  0.4449790000000  0.4668360000000 1.0
C      1  0.5309070000000  0.4506540000000  0.5490200000000 1.0
C      1  0.5351700000000  0.4726110000000  0.5672870000000 1.0
C      1  0.5416780000000  0.4370390000000  0.4940450000000 1.0
C      1  0.5286500000000  0.4839030000000  0.4251380000000 1.0
C      1  0.5266380000000  0.5501420000000  0.4675990000000 1.0
C      1  0.5396580000000  0.5508630000000  0.5517190000000 1.0
C      1  0.4838030000000  0.4379010000000  0.5027220000000 1.0
C      1  0.4798420000000  0.4851220000000  0.5640200000000 1.0
C      1  0.4801940000000  0.5601960000000  0.5419480000000 1.0
C      1  0.4752630000000  0.5519320000000  0.4551130000000 1.0
C      1  0.4717020000000  0.4745580000000  0.4309740000000 1.0
C      1  0.4771970000000  0.5672270000000  0.5061980000000 1.0
C      1  0.4759080000000  0.5196530000000  0.5740020000000 1.0
C      1  0.4776390000000  0.4405260000000  0.5384170000000 1.0
C      1  0.4814620000000  0.4471310000000  0.4528170000000 1.0
C      1  0.4764080000000  0.5254690000000  0.4300180000000 1.0
C      1  0.5439760000000  0.5144470000000  0.5898100000000 1.0
C      1  0.5522710000000  0.5644430000000  0.5067280000000 1.0
C      1  0.5532270000000  0.5324130000000  0.4302460000000 1.0
C      1  0.5505510000000  0.4447500000000  0.4429260000000 1.0
C      1  0.5467280000000  0.4291450000000  0.5413720000000 1.0
C      1  0.5454050000000  0.4870100000000  0.5882950000000 1.0
C      1  0.5531800000000  0.4239350000000  0.5152160000000 1.0
C      1  0.5450740000000  0.4616290000000  0.4218340000000 1.0
C      1  0.5502380000000  0.5492120000000  0.4519240000000 1.0
C      1  0.5570570000000  0.5626070000000  0.5337990000000 1.0
C      1  0.4797960000000  0.4133650000000  0.4851910000000 1.0
C      1  0.4744680000000  0.4604460000000  0.5807670000000 1.0
C      1  0.4708480000000  0.5663410000000  0.5695630000000 1.0
C      1  0.4734400000000  0.5814010000000  0.4608670000000 1.0
C      1  0.4661840000000  0.4874090000000  0.4042750000000 1.0
C      1  0.4742960000000  0.5886680000000  0.4853890000000 1.0
C      1  0.4687160000000  0.5464180000000  0.5853240000000 1.0
C      1  0.4739540000000  0.4384650000000  0.5679460000000 1.0
C      1  0.4783060000000  0.4182010000000  0.4601310000000 1.0
C      1  0.4672220000000  0.5130100000000  0.4041530000000 1.0
C      1  0.5128470000000  0.4520310000000  0.4984180000000 1.0
C      1  0.5095210000000  0.4842560000000  0.5504490000000 1.0
C      1  0.5095130000000  0.5451550000000  0.5407410000000 1.0
C      1  0.5038560000000  0.5408390000000  0.4544530000000 1.0
C      1  0.5023000000000  0.4789900000000  0.4407350000000 1.0
C      1  0.5058420000000  0.5578710000000  0.5116460000000 1.0
C      1  0.5042690000000  0.5160590000000  0.5576630000000 1.0
C      1  0.5054970000000  0.4569660000000  0.5302480000000 1.0
C      1  0.5083680000000  0.4596850000000  0.4655420000000 1.0
C      1  0.5065730000000  0.5149560000000  0.4370690000000 1.0
END
