TITL C-27139-4854-31 -0.00557015119577587 125000 -333.381289068604 0 0 60 (C1) n - 1
REM
REM in /home/nfs/bkarasulu/CARBON/AIRSS/Generating-Clusters/AIREBO/Higher-Symm/Only-C60
REM
REM
REM
REM
REM
REM ./C.cell (28575a23ae977d3b5fae324c64b13b57)
REM
REM compiler GCC version 9.2.1 20190827 (Red Hat 9.2.1-1)
REM options -cpp -mtune=generic -march=x86-64 -g -O0 -fpre-include=/usr/include/finclude/math-vector-fortran.h
REM seed -15115632 -103422298 491262820 -1764483558 -2037183672 1966041257 -1341329707 539545157 333278058 -145037841 -192584341 519441229 1961272080 4852520 2004553434 1686838563 -738057692 -1744354181 558552934 -1645246169 -70926008 -1749472628 -828171256 -1142514661 -93405301 1267890676 -610715354 -638250889 -1096888775 1415607074 1248430933 -13206163 856327365
REM
CELL 1.54180   50.00000   50.00000   50.00000   90.00000   90.00000   90.00000
LATT -1
SFAC C  
C      1  0.5001590000000  0.4513540000000  0.4712620000000 1.0
C      1  0.5249630000000  0.4473680000000  0.5143940000000 1.0
C      1  0.4772260000000  0.4575630000000  0.5139920000000 1.0
C      1  0.5007890000000  0.5448060000000  0.4753580000000 1.0
C      1  0.5270350000000  0.5538780000000  0.5172030000000 1.0
C      1  0.4770210000000  0.5509710000000  0.5204960000000 1.0
C      1  0.4994670000000  0.4492570000000  0.5294260000000 1.0
C      1  0.5243410000000  0.4448620000000  0.4856660000000 1.0
C      1  0.4775280000000  0.4570660000000  0.4865170000000 1.0
C      1  0.5038020000000  0.5555440000000  0.5325470000000 1.0
C      1  0.5256560000000  0.5498040000000  0.4883690000000 1.0
C      1  0.4766610000000  0.5492650000000  0.4934800000000 1.0
C      1  0.4521250000000  0.4703410000000  0.4711030000000 1.0
C      1  0.5543040000000  0.4561740000000  0.4741560000000 1.0
C      1  0.4922400000000  0.4558880000000  0.5619970000000 1.0
C      1  0.4623780000000  0.5374630000000  0.4677560000000 1.0
C      1  0.5571330000000  0.5409070000000  0.4790470000000 1.0
C      1  0.4851620000000  0.5451010000000  0.5591340000000 1.0
C      1  0.4519420000000  0.4702860000000  0.5300970000000 1.0
C      1  0.5552780000000  0.4597180000000  0.5237840000000 1.0
C      1  0.4950050000000  0.4594630000000  0.4386440000000 1.0
C      1  0.4555590000000  0.5400410000000  0.5436150000000 1.0
C      1  0.5584310000000  0.5433090000000  0.5250190000000 1.0
C      1  0.4876890000000  0.5311420000000  0.4465840000000 1.0
C      1  0.4477950000000  0.5124650000000  0.5286840000000 1.0
C      1  0.5121870000000  0.5156790000000  0.4325620000000 1.0
C      1  0.5404260000000  0.5165340000000  0.5142960000000 1.0
C      1  0.4741690000000  0.4958370000000  0.5281640000000 1.0
C      1  0.4968100000000  0.4912860000000  0.4502560000000 1.0
C      1  0.5363740000000  0.4854690000000  0.5102620000000 1.0
C      1  0.4472140000000  0.5096710000000  0.4756660000000 1.0
C      1  0.5066780000000  0.5235330000000  0.5560830000000 1.0
C      1  0.5383260000000  0.5126640000000  0.4811990000000 1.0
C      1  0.4763890000000  0.4941490000000  0.4719690000000 1.0
C      1  0.4961360000000  0.5008970000000  0.5446780000000 1.0
C      1  0.5347070000000  0.4826400000000  0.4788750000000 1.0
C      1  0.4748260000000  0.5103050000000  0.4228780000000 1.0
C      1  0.5797690000000  0.5173920000000  0.5193520000000 1.0
C      1  0.4392590000000  0.5180810000000  0.5638320000000 1.0
C      1  0.4713040000000  0.4775320000000  0.4230690000000 1.0
C      1  0.5760200000000  0.4848160000000  0.5139280000000 1.0
C      1  0.4501920000000  0.4864050000000  0.5586890000000 1.0
C      1  0.4710920000000  0.5170570000000  0.5724280000000 1.0
C      1  0.5773610000000  0.5151920000000  0.4884130000000 1.0
C      1  0.4495010000000  0.5210010000000  0.4409260000000 1.0
C      1  0.4760270000000  0.4831620000000  0.5742390000000 1.0
C      1  0.5743640000000  0.4822130000000  0.4830150000000 1.0
C      1  0.4500770000000  0.4869630000000  0.4430390000000 1.0
C      1  0.4227740000000  0.5061970000000  0.5145380000000 1.0
C      1  0.5370320000000  0.5240540000000  0.4297730000000 1.0
C      1  0.5512260000000  0.5193060000000  0.5465050000000 1.0
C      1  0.4268890000000  0.4648900000000  0.5132780000000 1.0
C      1  0.5218660000000  0.4769410000000  0.4315800000000 1.0
C      1  0.5332270000000  0.4748780000000  0.5419300000000 1.0
C      1  0.4224110000000  0.5052580000000  0.4894130000000 1.0
C      1  0.5326870000000  0.5238430000000  0.5652230000000 1.0
C      1  0.5512110000000  0.5247190000000  0.4518690000000 1.0
C      1  0.4271110000000  0.4653510000000  0.4880820000000 1.0
C      1  0.5101570000000  0.4787890000000  0.5539930000000 1.0
C      1  0.5445130000000  0.4732590000000  0.4476660000000 1.0
END
