TITL C-27141-4733-79 0.00125307563885135 125000 -309.785276685033 0 0 60 (C1) n - 1
REM
REM in /home/nfs/bkarasulu/CARBON/AIRSS/Generating-Clusters/AIREBO/Higher-Symm/Only-C60
REM
REM
REM
REM
REM
REM ./C.cell (28575a23ae977d3b5fae324c64b13b57)
REM
REM compiler GCC version 9.2.1 20190827 (Red Hat 9.2.1-1)
REM options -cpp -mtune=generic -march=x86-64 -g -O0 -fpre-include=/usr/include/finclude/math-vector-fortran.h
REM seed -1151934716 690836449 752455065 2116910805 -659306792 2075242907 1516733094 -2002569279 864354197 -1007993736 -2056872403 -199725754 2037589537 -1930561699 -1470605194 -1919189057 435392272 -1667744535 -1189836624 1943377642 273798881 544256931 791855973 759757831 165330431 -1717997153 -192415513 -809052762 1974635827 -199571321 -358312449 45761285 -139875882
REM
CELL 1.54180   50.00000   50.00000   50.00000   90.00000   90.00000   90.00000
LATT -1
SFAC C  
C      1  0.4772210000000  0.5359750000000  0.5208650000000 1.0
C      1  0.4643070000000  0.4774440000000  0.4832190000000 1.0
C      1  0.5099810000000  0.4520410000000  0.5280020000000 1.0
C      1  0.5551680000000  0.5166560000000  0.4820530000000 1.0
C      1  0.4320430000000  0.4816000000000  0.4834330000000 1.0
C      1  0.5191690000000  0.4226560000000  0.5080050000000 1.0
C      1  0.5862190000000  0.5274290000000  0.4723550000000 1.0
C      1  0.4873190000000  0.5776590000000  0.5110990000000 1.0
C      1  0.4358580000000  0.4882260000000  0.5371050000000 1.0
C      1  0.5182510000000  0.4435910000000  0.4637850000000 1.0
C      1  0.5614850000000  0.5138560000000  0.5353010000000 1.0
C      1  0.4737360000000  0.5512530000000  0.4689290000000 1.0
C      1  0.4892360000000  0.5397740000000  0.4426110000000 1.0
C      1  0.4552340000000  0.4984950000000  0.5630910000000 1.0
C      1  0.5095090000000  0.4630720000000  0.4387010000000 1.0
C      1  0.5414210000000  0.5056410000000  0.5614950000000 1.0
C      1  0.4792790000000  0.4688790000000  0.4394480000000 1.0
C      1  0.5236080000000  0.4758510000000  0.5674190000000 1.0
C      1  0.5362170000000  0.5231140000000  0.4371890000000 1.0
C      1  0.4768500000000  0.5246850000000  0.5725330000000 1.0
C      1  0.5474970000000  0.4258220000000  0.5230310000000 1.0
C      1  0.5673230000000  0.5502370000000  0.4642270000000 1.0
C      1  0.4644250000000  0.5791720000000  0.5261460000000 1.0
C      1  0.4182230000000  0.4680320000000  0.4650190000000 1.0
C      1  0.5209350000000  0.4578790000000  0.4138680000000 1.0
C      1  0.5475610000000  0.5202210000000  0.5850170000000 1.0
C      1  0.4763430000000  0.5419800000000  0.4180940000000 1.0
C      1  0.4445460000000  0.4870060000000  0.5871390000000 1.0
C      1  0.4273870000000  0.5373050000000  0.5292630000000 1.0
C      1  0.4666890000000  0.4328620000000  0.4668320000000 1.0
C      1  0.5545800000000  0.4765420000000  0.5221740000000 1.0
C      1  0.5210480000000  0.5562690000000  0.4769430000000 1.0
C      1  0.5110270000000  0.4832220000000  0.4867670000000 1.0
C      1  0.5146940000000  0.5013330000000  0.5153120000000 1.0
C      1  0.4993660000000  0.5157740000000  0.4886160000000 1.0
C      1  0.4827260000000  0.4913960000000  0.5213370000000 1.0
C      1  0.5398860000000  0.4551230000000  0.5137630000000 1.0
C      1  0.5464850000000  0.5489900000000  0.4860610000000 1.0
C      1  0.4515020000000  0.5262980000000  0.5120630000000 1.0
C      1  0.4749590000000  0.4493830000000  0.4872850000000 1.0
C      1  0.4806060000000  0.4819520000000  0.5485680000000 1.0
C      1  0.5250770000000  0.4827310000000  0.4598670000000 1.0
C      1  0.5155640000000  0.5169420000000  0.5428240000000 1.0
C      1  0.4859420000000  0.5140770000000  0.4607320000000 1.0
C      1  0.5511160000000  0.5595660000000  0.4421540000000 1.0
C      1  0.4484630000000  0.5609830000000  0.5390520000000 1.0
C      1  0.4316390000000  0.4558230000000  0.4434350000000 1.0
C      1  0.5587420000000  0.4424220000000  0.5466570000000 1.0
C      1  0.4742170000000  0.4894820000000  0.4575730000000 1.0
C      1  0.5027970000000  0.4659340000000  0.5524150000000 1.0
C      1  0.5416250000000  0.5049420000000  0.4567030000000 1.0
C      1  0.4914200000000  0.5303260000000  0.5459070000000 1.0
C      1  0.5183710000000  0.5503600000000  0.4443070000000 1.0
C      1  0.4518400000000  0.5303440000000  0.5516240000000 1.0
C      1  0.4595110000000  0.4479010000000  0.4432460000000 1.0
C      1  0.5546070000000  0.4753320000000  0.5534620000000 1.0
C      1  0.4948130000000  0.5489010000000  0.4947960000000 1.0
C      1  0.4512610000000  0.4952060000000  0.5091200000000 1.0
C      1  0.5053190000000  0.4505660000000  0.4943400000000 1.0
C      1  0.5477560000000  0.5034630000000  0.5076240000000 1.0
END
