TITL C-27144-3922-121 -0.000858710868536141 125000 -320.164904913626 0 0 60 (C1) n - 1
REM
REM in /home/nfs/bkarasulu/CARBON/AIRSS/Generating-Clusters/AIREBO/Higher-Symm/Only-C60
REM
REM
REM
REM
REM
REM ./C.cell (28575a23ae977d3b5fae324c64b13b57)
REM
REM compiler GCC version 9.2.1 20190827 (Red Hat 9.2.1-1)
REM options -cpp -mtune=generic -march=x86-64 -g -O0 -fpre-include=/usr/include/finclude/math-vector-fortran.h
REM seed -498510813 985321249 -225281163 -1685602063 1789970220 681340540 -513986561 1785230457 -1175810884 518772302 205876838 -1079564934 2063159565 1633898571 -854233379 705413427 1107426063 -593125859 990465470 -1452224680 -1472973205 2061589441 -1839392992 924806099 1860605570 -1602888564 -829817788 -1942328520 1915824817 -981186327 -615983299 -1818960142 632993261
REM
CELL 1.54180   50.00000   50.00000   50.00000   90.00000   90.00000   90.00000
LATT -1
SFAC C  
C      1  0.5287170000000  0.5696500000000  0.5165510000000 1.0
C      1  0.4779420000000  0.5685190000000  0.5135760000000 1.0
C      1  0.5061140000000  0.5647770000000  0.4561420000000 1.0
C      1  0.4782820000000  0.4261330000000  0.5256680000000 1.0
C      1  0.5288550000000  0.4384820000000  0.5344110000000 1.0
C      1  0.4977500000000  0.4464570000000  0.4466250000000 1.0
C      1  0.4826750000000  0.4287210000000  0.4984500000000 1.0
C      1  0.5034140000000  0.4344150000000  0.4752910000000 1.0
C      1  0.5014330000000  0.4348450000000  0.5489960000000 1.0
C      1  0.5270500000000  0.5636170000000  0.4830640000000 1.0
C      1  0.4875870000000  0.5697400000000  0.4842390000000 1.0
C      1  0.5008260000000  0.5570190000000  0.5318330000000 1.0
C      1  0.4445080000000  0.4669710000000  0.5315430000000 1.0
C      1  0.5116530000000  0.4753610000000  0.4487110000000 1.0
C      1  0.5491290000000  0.4702170000000  0.5389930000000 1.0
C      1  0.5558590000000  0.5315770000000  0.5343860000000 1.0
C      1  0.4855850000000  0.5335530000000  0.4419120000000 1.0
C      1  0.4514910000000  0.5317170000000  0.5357210000000 1.0
C      1  0.5599260000000  0.5296400000000  0.4657970000000 1.0
C      1  0.4811090000000  0.5261410000000  0.5502950000000 1.0
C      1  0.4495170000000  0.5335280000000  0.4704850000000 1.0
C      1  0.4457390000000  0.4617580000000  0.4695890000000 1.0
C      1  0.5173110000000  0.4724390000000  0.5530680000000 1.0
C      1  0.5479910000000  0.4691870000000  0.4712200000000 1.0
C      1  0.4744560000000  0.5391230000000  0.4867710000000 1.0
C      1  0.5311570000000  0.5298750000000  0.4839290000000 1.0
C      1  0.5025210000000  0.5243730000000  0.5239390000000 1.0
C      1  0.5229350000000  0.4601140000000  0.4861280000000 1.0
C      1  0.4707640000000  0.4554310000000  0.4844910000000 1.0
C      1  0.4971830000000  0.4613010000000  0.5280250000000 1.0
C      1  0.5257090000000  0.4659980000000  0.5146880000000 1.0
C      1  0.4726850000000  0.4661060000000  0.5136400000000 1.0
C      1  0.4949090000000  0.4731680000000  0.4758860000000 1.0
C      1  0.4741640000000  0.5241190000000  0.5115250000000 1.0
C      1  0.5293150000000  0.5357850000000  0.5135540000000 1.0
C      1  0.5018640000000  0.5348640000000  0.4717350000000 1.0
C      1  0.4520830000000  0.5570010000000  0.5157890000000 1.0
C      1  0.5184440000000  0.5400560000000  0.4360600000000 1.0
C      1  0.5374030000000  0.5556130000000  0.5469030000000 1.0
C      1  0.5583720000000  0.4438050000000  0.5183910000000 1.0
C      1  0.4753850000000  0.4678810000000  0.4350140000000 1.0
C      1  0.4634500000000  0.4454620000000  0.5462900000000 1.0
C      1  0.5614710000000  0.4504690000000  0.4907990000000 1.0
C      1  0.4866630000000  0.4603580000000  0.5661760000000 1.0
C      1  0.4491770000000  0.4590340000000  0.4417760000000 1.0
C      1  0.4372290000000  0.5528360000000  0.4911530000000 1.0
C      1  0.5111590000000  0.5401290000000  0.5594910000000 1.0
C      1  0.5434740000000  0.5532650000000  0.4543890000000 1.0
C      1  0.5147000000000  0.5061270000000  0.5568820000000 1.0
C      1  0.4411260000000  0.4880410000000  0.4789710000000 1.0
C      1  0.5430820000000  0.4968360000000  0.4583850000000 1.0
C      1  0.4834300000000  0.4927800000000  0.5564470000000 1.0
C      1  0.5616030000000  0.5041340000000  0.4849350000000 1.0
C      1  0.4521620000000  0.5075950000000  0.4612140000000 1.0
C      1  0.4806060000000  0.4999720000000  0.4438520000000 1.0
C      1  0.5575030000000  0.5075970000000  0.5107090000000 1.0
C      1  0.4568080000000  0.4981330000000  0.5359110000000 1.0
C      1  0.5140040000000  0.5068410000000  0.4437770000000 1.0
C      1  0.4415170000000  0.4898890000000  0.5066010000000 1.0
C      1  0.5410260000000  0.5014230000000  0.5392080000000 1.0
END
