TITL C-27140-5627-110 -0.00132758903696547 125000 -351.845728382597 0 0 60 (C1) n - 1
REM
REM in /home/nfs/bkarasulu/CARBON/AIRSS/Generating-Clusters/AIREBO/Higher-Symm/Only-C60
REM
REM
REM
REM
REM
REM ./C.cell (28575a23ae977d3b5fae324c64b13b57)
REM
REM compiler GCC version 9.2.1 20190827 (Red Hat 9.2.1-1)
REM options -cpp -mtune=generic -march=x86-64 -g -O0 -fpre-include=/usr/include/finclude/math-vector-fortran.h
REM seed -8156069 1895604790 -664437023 -286211324 2080173276 261631488 731621162 -330696244 -1454871005 -1979107370 -1915900034 1025816114 -1641829145 1051830151 -446210164 -317885013 -2144565064 -1199922720 946166164 -278563428 1742069826 1266579376 -1793663916 -799085641 -1201934555 1205645705 -887265433 676291187 -1483774942 620734847 1322189046 89566709 -1128090050
REM
CELL 1.54180   50.00000   50.00000   50.00000   90.00000   90.00000   90.00000
LATT -1
SFAC C  
C      1  0.5525670000000  0.4504400000000  0.4842860000000 1.0
C      1  0.5220420000000  0.4498550000000  0.4479920000000 1.0
C      1  0.4759690000000  0.4498470000000  0.4554220000000 1.0
C      1  0.4490170000000  0.4452800000000  0.4950220000000 1.0
C      1  0.4570190000000  0.4559470000000  0.5391450000000 1.0
C      1  0.4990520000000  0.4570610000000  0.5517660000000 1.0
C      1  0.5498180000000  0.4608970000000  0.5372510000000 1.0
C      1  0.5221090000000  0.5112490000000  0.4425160000000 1.0
C      1  0.4697390000000  0.5118010000000  0.4484890000000 1.0
C      1  0.4292280000000  0.5138520000000  0.4810430000000 1.0
C      1  0.4445620000000  0.5159660000000  0.5416310000000 1.0
C      1  0.5003010000000  0.5107730000000  0.5556050000000 1.0
C      1  0.5514210000000  0.5166290000000  0.5418290000000 1.0
C      1  0.5622700000000  0.5135740000000  0.4722280000000 1.0
C      1  0.4954650000000  0.4944450000000  0.4363230000000 1.0
C      1  0.4454970000000  0.4960910000000  0.4620240000000 1.0
C      1  0.4425170000000  0.5127800000000  0.5116270000000 1.0
C      1  0.4550560000000  0.4862390000000  0.5544700000000 1.0
C      1  0.5266420000000  0.4977750000000  0.5517440000000 1.0
C      1  0.5662650000000  0.4891270000000  0.5283100000000 1.0
C      1  0.5480510000000  0.4937040000000  0.4510760000000 1.0
C      1  0.5459100000000  0.4625280000000  0.4584320000000 1.0
C      1  0.4969650000000  0.4629070000000  0.4416270000000 1.0
C      1  0.4523670000000  0.4641780000000  0.4708310000000 1.0
C      1  0.4375310000000  0.4509040000000  0.5200470000000 1.0
C      1  0.4811050000000  0.4699890000000  0.5677090000000 1.0
C      1  0.5248080000000  0.4667270000000  0.5485760000000 1.0
C      1  0.5613990000000  0.4623540000000  0.5075230000000 1.0
C      1  0.5099090000000  0.5633200000000  0.4707480000000 1.0
C      1  0.4802540000000  0.5563860000000  0.4755770000000 1.0
C      1  0.4640490000000  0.5569230000000  0.4994190000000 1.0
C      1  0.4714920000000  0.5574410000000  0.5287140000000 1.0
C      1  0.4980010000000  0.5567520000000  0.5414000000000 1.0
C      1  0.5239340000000  0.5596330000000  0.5303770000000 1.0
C      1  0.5433920000000  0.5581860000000  0.4747550000000 1.0
C      1  0.5171480000000  0.5342570000000  0.4565030000000 1.0
C      1  0.4717070000000  0.5378150000000  0.4556920000000 1.0
C      1  0.4403830000000  0.5412170000000  0.4953200000000 1.0
C      1  0.4518470000000  0.5426120000000  0.5457120000000 1.0
C      1  0.4981630000000  0.5377400000000  0.5628750000000 1.0
C      1  0.5451350000000  0.5428850000000  0.5399370000000 1.0
C      1  0.5618600000000  0.5403260000000  0.4694340000000 1.0
C      1  0.5355600000000  0.4268430000000  0.4874430000000 1.0
C      1  0.5155290000000  0.4277670000000  0.4668100000000 1.0
C      1  0.4877920000000  0.4306620000000  0.4741820000000 1.0
C      1  0.4743300000000  0.4324630000000  0.4990100000000 1.0
C      1  0.4850140000000  0.4380250000000  0.5308210000000 1.0
C      1  0.5055610000000  0.4140370000000  0.5257030000000 1.0
C      1  0.5281160000000  0.4126870000000  0.5104750000000 1.0
C      1  0.4712700000000  0.4887960000000  0.4816030000000 1.0
C      1  0.4717520000000  0.5019430000000  0.5082740000000 1.0
C      1  0.4805380000000  0.4992850000000  0.5391970000000 1.0
C      1  0.5276520000000  0.4939450000000  0.5194130000000 1.0
C      1  0.5547590000000  0.5010500000000  0.5001510000000 1.0
C      1  0.5296290000000  0.4920340000000  0.4796120000000 1.0
C      1  0.4983830000000  0.4924020000000  0.4685360000000 1.0
C      1  0.5248540000000  0.5684280000000  0.5007760000000 1.0
C      1  0.5134770000000  0.5364010000000  0.4997150000000 1.0
C      1  0.5032530000000  0.5121540000000  0.5083270000000 1.0
C      1  0.5057050000000  0.4792000000000  0.4992490000000 1.0
END
