TITL C-27142-7278-149 0.00120963370761124 125000 -333.324976528381 0 0 60 (C1) n - 1
REM
REM in /home/nfs/bkarasulu/CARBON/AIRSS/Generating-Clusters/AIREBO/Higher-Symm/Only-C60
REM
REM
REM
REM
REM
REM ./C.cell (28575a23ae977d3b5fae324c64b13b57)
REM
REM compiler GCC version 9.2.1 20190827 (Red Hat 9.2.1-1)
REM options -cpp -mtune=generic -march=x86-64 -g -O0 -fpre-include=/usr/include/finclude/math-vector-fortran.h
REM seed 98913517 -531093684 1625170928 -460223520 -1893505734 847094898 1458329709 -1283451524 -1685386765 -1023770140 -103640102 -1866929013 -1474945586 257885038 762059001 1196265137 -1986281400 1747314838 -248827919 -1776453981 -1802001800 -1316983921 -543758884 134443539 1191329914 -26411515 1971220065 261331043 -1227759996 -1277667198 1026516236 890669355 -768345562
REM
CELL 1.54180   50.00000   50.00000   50.00000   90.00000   90.00000   90.00000
LATT -1
SFAC C  
C      1  0.5535130000000  0.5109930000000  0.4544740000000 1.0
C      1  0.5615010000000  0.4889030000000  0.5421430000000 1.0
C      1  0.5615680000000  0.5206900000000  0.5450580000000 1.0
C      1  0.5581420000000  0.4791990000000  0.4549350000000 1.0
C      1  0.4666810000000  0.5313580000000  0.4774610000000 1.0
C      1  0.4686650000000  0.4680560000000  0.5188430000000 1.0
C      1  0.4660460000000  0.5379950000000  0.5240690000000 1.0
C      1  0.4678500000000  0.4688890000000  0.4875840000000 1.0
C      1  0.4414770000000  0.4871610000000  0.5115000000000 1.0
C      1  0.4395360000000  0.5120320000000  0.4803910000000 1.0
C      1  0.4403940000000  0.4801080000000  0.4781200000000 1.0
C      1  0.4402650000000  0.5202850000000  0.5109580000000 1.0
C      1  0.4357140000000  0.5342250000000  0.5400700000000 1.0
C      1  0.4368700000000  0.4728190000000  0.4487520000000 1.0
C      1  0.4472830000000  0.5264820000000  0.4507560000000 1.0
C      1  0.4374310000000  0.4766410000000  0.5421870000000 1.0
C      1  0.5255660000000  0.4148220000000  0.5227330000000 1.0
C      1  0.5180450000000  0.5860430000000  0.4784480000000 1.0
C      1  0.5375360000000  0.4214080000000  0.4648540000000 1.0
C      1  0.5352500000000  0.5789980000000  0.5359930000000 1.0
C      1  0.5466580000000  0.5143920000000  0.5151310000000 1.0
C      1  0.5463260000000  0.4872910000000  0.4857830000000 1.0
C      1  0.5422520000000  0.5202470000000  0.4825030000000 1.0
C      1  0.5463420000000  0.4809370000000  0.5164790000000 1.0
C      1  0.5286420000000  0.4408470000000  0.4819230000000 1.0
C      1  0.5256610000000  0.5599930000000  0.5188870000000 1.0
C      1  0.5248930000000  0.4382520000000  0.5086550000000 1.0
C      1  0.5199420000000  0.5628640000000  0.4927650000000 1.0
C      1  0.4925560000000  0.4865320000000  0.4733370000000 1.0
C      1  0.4923130000000  0.5164320000000  0.5227090000000 1.0
C      1  0.4966530000000  0.4831250000000  0.5204980000000 1.0
C      1  0.4922180000000  0.5169010000000  0.4886720000000 1.0
C      1  0.4584330000000  0.4693300000000  0.4358400000000 1.0
C      1  0.4548340000000  0.5253760000000  0.5602660000000 1.0
C      1  0.4501740000000  0.4801590000000  0.5634980000000 1.0
C      1  0.4598480000000  0.5233590000000  0.4272580000000 1.0
C      1  0.5076470000000  0.5351420000000  0.5545500000000 1.0
C      1  0.5006330000000  0.4507430000000  0.4554300000000 1.0
C      1  0.5055280000000  0.5446600000000  0.4515270000000 1.0
C      1  0.5106850000000  0.4617970000000  0.5510390000000 1.0
C      1  0.5177640000000  0.5191690000000  0.5742770000000 1.0
C      1  0.5124390000000  0.4680670000000  0.4325330000000 1.0
C      1  0.5088270000000  0.5260700000000  0.4310540000000 1.0
C      1  0.5158810000000  0.4855120000000  0.5745120000000 1.0
C      1  0.5341650000000  0.5133290000000  0.4294280000000 1.0
C      1  0.5489070000000  0.4792250000000  0.5690780000000 1.0
C      1  0.5462520000000  0.5112670000000  0.5711150000000 1.0
C      1  0.5363710000000  0.4823310000000  0.4329140000000 1.0
C      1  0.4848730000000  0.5491620000000  0.5488450000000 1.0
C      1  0.4778370000000  0.4457210000000  0.4682130000000 1.0
C      1  0.4794510000000  0.5530510000000  0.4570490000000 1.0
C      1  0.4795800000000  0.4587110000000  0.5470930000000 1.0
C      1  0.4832110000000  0.4845000000000  0.5680600000000 1.0
C      1  0.4853760000000  0.5111320000000  0.4264550000000 1.0
C      1  0.4856750000000  0.4845200000000  0.4402180000000 1.0
C      1  0.4764430000000  0.5102740000000  0.5521570000000 1.0
C      1  0.5170460000000  0.5361190000000  0.4788750000000 1.0
C      1  0.5229230000000  0.4642750000000  0.5228330000000 1.0
C      1  0.5225910000000  0.5311580000000  0.5277920000000 1.0
C      1  0.5228170000000  0.4709180000000  0.4714200000000 1.0
END
