TITL C-27133-8107-1 -0.000481806145064452 125000 -316.828235028787 0 0 60 (C1) n - 1
REM
REM in /home/nfs/bkarasulu/CARBON/AIRSS/Generating-Clusters/AIREBO/Higher-Symm/Only-C60
REM
REM
REM
REM
REM
REM ./C.cell (28575a23ae977d3b5fae324c64b13b57)
REM
REM compiler GCC version 9.2.1 20190827 (Red Hat 9.2.1-1)
REM options -cpp -mtune=generic -march=x86-64 -g -O0 -fpre-include=/usr/include/finclude/math-vector-fortran.h
REM seed 1270234348 1522077353 -1415117227 1494417985 -812865308 -354573755 -1289085252 1754129209 526068349 -1051212434 1737427845 -266187772 72353801 310355775 -1856386328 928777198 1172017513 430588383 -804916272 -308096378 -926460391 -601641141 -1850664912 1955703234 57220425 -1988375993 -1870054260 711946417 -2014833819 -376965890 924375803 -10439642 4381887
REM
CELL 1.54180   50.00000   50.00000   50.00000   90.00000   90.00000   90.00000
LATT -1
SFAC C  
C      1  0.5135820000000  0.5066900000000  0.4535100000000 1.0
C      1  0.5250750000000  0.5503810000000  0.5310070000000 1.0
C      1  0.5120310000000  0.4526250000000  0.5198870000000 1.0
C      1  0.5200010000000  0.4876050000000  0.4879510000000 1.0
C      1  0.5171330000000  0.5201030000000  0.4942800000000 1.0
C      1  0.5152560000000  0.4969980000000  0.5191910000000 1.0
C      1  0.4852780000000  0.5264250000000  0.4947900000000 1.0
C      1  0.4835950000000  0.4908000000000  0.5299310000000 1.0
C      1  0.4904710000000  0.4739220000000  0.4819390000000 1.0
C      1  0.4786820000000  0.5244010000000  0.5281270000000 1.0
C      1  0.4826070000000  0.4634740000000  0.5112680000000 1.0
C      1  0.4881610000000  0.5045920000000  0.4707950000000 1.0
C      1  0.4834500000000  0.5752860000000  0.5153870000000 1.0
C      1  0.4638990000000  0.4507130000000  0.5566940000000 1.0
C      1  0.4648700000000  0.4784200000000  0.4399450000000 1.0
C      1  0.5217490000000  0.5034080000000  0.5590920000000 1.0
C      1  0.5358730000000  0.4496920000000  0.4726860000000 1.0
C      1  0.5423540000000  0.5472850000000  0.4671030000000 1.0
C      1  0.5615540000000  0.4885240000000  0.4520800000000 1.0
C      1  0.5642480000000  0.5477880000000  0.4930220000000 1.0
C      1  0.5572860000000  0.4703610000000  0.5392290000000 1.0
C      1  0.5362990000000  0.5573900000000  0.4354100000000 1.0
C      1  0.5100050000000  0.5257280000000  0.5783180000000 1.0
C      1  0.5439570000000  0.4201370000000  0.4812320000000 1.0
C      1  0.5066420000000  0.5301280000000  0.5447020000000 1.0
C      1  0.5265330000000  0.4383380000000  0.5018900000000 1.0
C      1  0.5244970000000  0.5300130000000  0.4454000000000 1.0
C      1  0.4471960000000  0.5167220000000  0.5360040000000 1.0
C      1  0.4510810000000  0.4560280000000  0.5008720000000 1.0
C      1  0.4422200000000  0.5181510000000  0.4636910000000 1.0
C      1  0.5340390000000  0.5847510000000  0.4906570000000 1.0
C      1  0.5161810000000  0.4593410000000  0.5695360000000 1.0
C      1  0.5182960000000  0.4657000000000  0.4305670000000 1.0
C      1  0.5346990000000  0.4574980000000  0.4102580000000 1.0
C      1  0.5482360000000  0.6056370000000  0.4891200000000 1.0
C      1  0.5350790000000  0.4491150000000  0.5864290000000 1.0
C      1  0.4914230000000  0.4627620000000  0.4322490000000 1.0
C      1  0.5031240000000  0.5705940000000  0.4904460000000 1.0
C      1  0.4893200000000  0.4600340000000  0.5726660000000 1.0
C      1  0.4329510000000  0.5061340000000  0.5151340000000 1.0
C      1  0.4320710000000  0.4782190000000  0.4997500000000 1.0
C      1  0.4264590000000  0.5057000000000  0.4835650000000 1.0
C      1  0.4552140000000  0.4399660000000  0.4754180000000 1.0
C      1  0.4484950000000  0.5445260000000  0.4672470000000 1.0
C      1  0.4475680000000  0.5028640000000  0.5606570000000 1.0
C      1  0.5260040000000  0.4742730000000  0.5420900000000 1.0
C      1  0.5320510000000  0.4784170000000  0.4575090000000 1.0
C      1  0.5299540000000  0.5513140000000  0.4985150000000 1.0
C      1  0.5825000000000  0.4673560000000  0.5366960000000 1.0
C      1  0.5854450000000  0.4963100000000  0.4476190000000 1.0
C      1  0.5873450000000  0.5445210000000  0.5028130000000 1.0
C      1  0.4628800000000  0.4432120000000  0.5301720000000 1.0
C      1  0.4629670000000  0.5024200000000  0.4535120000000 1.0
C      1  0.4706100000000  0.5571190000000  0.5268230000000 1.0
C      1  0.4765400000000  0.4548760000000  0.4607180000000 1.0
C      1  0.4773760000000  0.5540540000000  0.4820910000000 1.0
C      1  0.4699250000000  0.4832200000000  0.5584950000000 1.0
C      1  0.4312360000000  0.5058410000000  0.5821810000000 1.0
C      1  0.4443350000000  0.4172290000000  0.4693370000000 1.0
C      1  0.4520940000000  0.5748730000000  0.4722970000000 1.0
END
