TITL C-27130-3996-103 0.0604536160206914 125000 -311.540067779675 0 0 60 (C1) n - 1
REM
REM in /home/nfs/bkarasulu/CARBON/AIRSS/Generating-Clusters/AIREBO/Higher-Symm/Only-C60
REM
REM
REM
REM
REM
REM ./C.cell (28575a23ae977d3b5fae324c64b13b57)
REM
REM compiler GCC version 9.2.1 20190827 (Red Hat 9.2.1-1)
REM options -cpp -mtune=generic -march=x86-64 -g -O0 -fpre-include=/usr/include/finclude/math-vector-fortran.h
REM seed 1169342850 1359569864 -666278188 -752583958 535366815 427364984 836954850 -818500972 270306092 -278283694 -1594976917 2087557685 -702514649 -803308976 433724937 -1918030722 -2043886267 1305873560 -1330268970 949553199 -756496641 -650052511 937238415 349880333 -715829662 -114777523 -865854917 -843316314 1776131699 2019530608 1366769842 -814271534 1262724771
REM
CELL 1.54180   50.00000   50.00000   50.00000   90.00000   90.00000   90.00000
LATT -1
SFAC C  
C      1  0.5465600000000  0.5143800000000  0.5615180000000 1.0
C      1  0.5336670000000  0.4707230000000  0.4419480000000 1.0
C      1  0.4896200000000  0.4466660000000  0.5632120000000 1.0
C      1  0.4469370000000  0.4882100000000  0.4398120000000 1.0
C      1  0.4671440000000  0.5284210000000  0.5621300000000 1.0
C      1  0.5110270000000  0.5381300000000  0.4255300000000 1.0
C      1  0.5055160000000  0.4308370000000  0.5043240000000 1.0
C      1  0.4438370000000  0.4520570000000  0.4958820000000 1.0
C      1  0.4326970000000  0.5256660000000  0.5051390000000 1.0
C      1  0.4787460000000  0.5658500000000  0.4895040000000 1.0
C      1  0.5644000000000  0.5447580000000  0.5108310000000 1.0
C      1  0.5699290000000  0.4765410000000  0.4963860000000 1.0
C      1  0.4464930000000  0.4852780000000  0.5548470000000 1.0
C      1  0.4679020000000  0.5368730000000  0.4439140000000 1.0
C      1  0.5174830000000  0.5482200000000  0.5581630000000 1.0
C      1  0.5526510000000  0.5141610000000  0.4450280000000 1.0
C      1  0.5335320000000  0.4596390000000  0.5604570000000 1.0
C      1  0.4837310000000  0.4624820000000  0.4360750000000 1.0
C      1  0.5000790000000  0.5329430000000  0.4817450000000 1.0
C      1  0.5177670000000  0.5115450000000  0.5272660000000 1.0
C      1  0.5177310000000  0.4849450000000  0.4892930000000 1.0
C      1  0.4963120000000  0.4809970000000  0.5413130000000 1.0
C      1  0.4800760000000  0.4869860000000  0.4784830000000 1.0
C      1  0.4814260000000  0.5186890000000  0.5138420000000 1.0
C      1  0.4942130000000  0.4492780000000  0.5292310000000 1.0
C      1  0.4494780000000  0.4741380000000  0.4710590000000 1.0
C      1  0.4545740000000  0.5310550000000  0.5306100000000 1.0
C      1  0.5055950000000  0.5467320000000  0.4528520000000 1.0
C      1  0.5554890000000  0.5233250000000  0.5323620000000 1.0
C      1  0.5447760000000  0.4709060000000  0.4742080000000 1.0
C      1  0.5281480000000  0.5430270000000  0.5273580000000 1.0
C      1  0.5465320000000  0.5052750000000  0.4707730000000 1.0
C      1  0.5271990000000  0.4572370000000  0.5314210000000 1.0
C      1  0.4730030000000  0.4514690000000  0.4615670000000 1.0
C      1  0.4503630000000  0.4972520000000  0.5291010000000 1.0
C      1  0.4773930000000  0.5595060000000  0.4626410000000 1.0
C      1  0.5331240000000  0.5223010000000  0.4209110000000 1.0
C      1  0.5268400000000  0.4912110000000  0.5522680000000 1.0
C      1  0.5053670000000  0.4746950000000  0.4593190000000 1.0
C      1  0.4756160000000  0.4755030000000  0.5668600000000 1.0
C      1  0.4645840000000  0.5083530000000  0.4570300000000 1.0
C      1  0.4938570000000  0.5300990000000  0.5429520000000 1.0
C      1  0.5257280000000  0.5175470000000  0.4947120000000 1.0
C      1  0.5348890000000  0.4775210000000  0.5152500000000 1.0
C      1  0.4928520000000  0.4411600000000  0.4771590000000 1.0
C      1  0.4775650000000  0.4851520000000  0.5126700000000 1.0
C      1  0.4676460000000  0.5241280000000  0.4855000000000 1.0
C      1  0.5033340000000  0.5526850000000  0.5089610000000 1.0
C      1  0.4420170000000  0.5020440000000  0.4890340000000 1.0
C      1  0.4712210000000  0.5585750000000  0.5195830000000 1.0
C      1  0.5469600000000  0.5439780000000  0.4920930000000 1.0
C      1  0.5594090000000  0.4949030000000  0.5177420000000 1.0
C      1  0.5252060000000  0.4441450000000  0.4818760000000 1.0
C      1  0.4643830000000  0.4540870000000  0.5141600000000 1.0
C      1  0.4629900000000  0.4749290000000  0.4215210000000 1.0
C      1  0.4605980000000  0.5043070000000  0.5755800000000 1.0
C      1  0.4824640000000  0.5371830000000  0.4193060000000 1.0
C      1  0.5344670000000  0.5349400000000  0.5752600000000 1.0
C      1  0.5423760000000  0.4914350000000  0.4249100000000 1.0
C      1  0.5144830000000  0.4449210000000  0.5755170000000 1.0
END
