TITL C-27144-3922-20 0.00498437052495691 125000 -335.029448703858 0 0 60 (C1) n - 1
REM
REM in /home/nfs/bkarasulu/CARBON/AIRSS/Generating-Clusters/AIREBO/Higher-Symm/Only-C60
REM
REM
REM
REM
REM
REM ./C.cell (28575a23ae977d3b5fae324c64b13b57)
REM
REM compiler GCC version 9.2.1 20190827 (Red Hat 9.2.1-1)
REM options -cpp -mtune=generic -march=x86-64 -g -O0 -fpre-include=/usr/include/finclude/math-vector-fortran.h
REM seed 1097212390 -788792339 2145889509 -1440312841 -1350662527 194787592 -854561020 695570275 1772859674 1697668921 954575488 1333823495 -946531949 1649205726 -1189398947 1186533074 1587121210 846893708 -89610131 1261736556 408283232 54622365 650265293 -1966162283 221806462 -1817425358 -1901641369 462972228 -1368701604 1373772644 2011843763 1686228549 -2051207120
REM
CELL 1.54180   50.00000   50.00000   50.00000   90.00000   90.00000   90.00000
LATT -1
SFAC C  
C      1  0.4849640000000  0.5154960000000  0.5617640000000 1.0
C      1  0.5133480000000  0.5171930000000  0.5755240000000 1.0
C      1  0.4563910000000  0.5358900000000  0.5277780000000 1.0
C      1  0.5430570000000  0.5367010000000  0.5371320000000 1.0
C      1  0.5280450000000  0.5491020000000  0.4301940000000 1.0
C      1  0.4716720000000  0.5578600000000  0.4358850000000 1.0
C      1  0.4289750000000  0.4918730000000  0.5287160000000 1.0
C      1  0.5675260000000  0.4886220000000  0.5318770000000 1.0
C      1  0.5293570000000  0.4313530000000  0.4909220000000 1.0
C      1  0.4742610000000  0.4334380000000  0.4957800000000 1.0
C      1  0.5481870000000  0.5071800000000  0.5451770000000 1.0
C      1  0.4425930000000  0.5140360000000  0.5413290000000 1.0
C      1  0.4597310000000  0.4769170000000  0.5654510000000 1.0
C      1  0.5229840000000  0.4711210000000  0.5624350000000 1.0
C      1  0.5187110000000  0.5028100000000  0.5300290000000 1.0
C      1  0.4850080000000  0.4986970000000  0.5321580000000 1.0
C      1  0.5086930000000  0.4804090000000  0.5058830000000 1.0
C      1  0.4793880000000  0.4723010000000  0.4978270000000 1.0
C      1  0.5171340000000  0.4318900000000  0.5226450000000 1.0
C      1  0.4878660000000  0.4420520000000  0.5223160000000 1.0
C      1  0.4537030000000  0.5369370000000  0.4395130000000 1.0
C      1  0.5480570000000  0.5448180000000  0.4125320000000 1.0
C      1  0.4597370000000  0.5240280000000  0.4679950000000 1.0
C      1  0.5599170000000  0.5200340000000  0.4103630000000 1.0
C      1  0.4847810000000  0.5030670000000  0.4708380000000 1.0
C      1  0.5132440000000  0.5125630000000  0.4665870000000 1.0
C      1  0.5118430000000  0.5502930000000  0.5362940000000 1.0
C      1  0.4781720000000  0.5479230000000  0.5394540000000 1.0
C      1  0.4532260000000  0.4541180000000  0.5066310000000 1.0
C      1  0.5498120000000  0.4383980000000  0.5144060000000 1.0
C      1  0.5209770000000  0.5464360000000  0.5688540000000 1.0
C      1  0.4890570000000  0.5480170000000  0.5688220000000 1.0
C      1  0.5579600000000  0.5031330000000  0.4883410000000 1.0
C      1  0.4516280000000  0.4890440000000  0.4874960000000 1.0
C      1  0.4885770000000  0.5602000000000  0.4585900000000 1.0
C      1  0.5149820000000  0.5447860000000  0.4578340000000 1.0
C      1  0.4576130000000  0.5395360000000  0.4965930000000 1.0
C      1  0.5275390000000  0.5402250000000  0.5078640000000 1.0
C      1  0.4572040000000  0.5044250000000  0.5637460000000 1.0
C      1  0.5304010000000  0.4969100000000  0.5678190000000 1.0
C      1  0.5234830000000  0.4631460000000  0.5311680000000 1.0
C      1  0.4750450000000  0.4664620000000  0.5375410000000 1.0
C      1  0.5601140000000  0.4994610000000  0.4619180000000 1.0
C      1  0.4490040000000  0.4874870000000  0.4564960000000 1.0
C      1  0.4870160000000  0.4419170000000  0.4696240000000 1.0
C      1  0.5171210000000  0.4411730000000  0.4686850000000 1.0
C      1  0.5320750000000  0.5559110000000  0.4819710000000 1.0
C      1  0.4756860000000  0.5623420000000  0.4826160000000 1.0
C      1  0.4400440000000  0.5093110000000  0.4405400000000 1.0
C      1  0.5563280000000  0.5025880000000  0.4310230000000 1.0
C      1  0.4773320000000  0.4724190000000  0.4581390000000 1.0
C      1  0.5310970000000  0.4905360000000  0.4488590000000 1.0
C      1  0.5268780000000  0.5078770000000  0.4974060000000 1.0
C      1  0.4735760000000  0.5103800000000  0.5023110000000 1.0
C      1  0.4415170000000  0.4660530000000  0.5318310000000 1.0
C      1  0.5565200000000  0.4637880000000  0.5282850000000 1.0
C      1  0.4242030000000  0.4945250000000  0.5009590000000 1.0
C      1  0.5771200000000  0.5001960000000  0.5082850000000 1.0
C      1  0.4726560000000  0.4445310000000  0.4390290000000 1.0
C      1  0.5268670000000  0.4600640000000  0.4519200000000 1.0
END
