TITL C-27134-4977-143 -0.00150590176600274 125000 -313.179694497259 0 0 60 (C1) n - 1
REM
REM in /home/nfs/bkarasulu/CARBON/AIRSS/Generating-Clusters/AIREBO/Higher-Symm/Only-C60
REM
REM
REM
REM
REM
REM ./C.cell (28575a23ae977d3b5fae324c64b13b57)
REM
REM compiler GCC version 9.2.1 20190827 (Red Hat 9.2.1-1)
REM options -cpp -mtune=generic -march=x86-64 -g -O0 -fpre-include=/usr/include/finclude/math-vector-fortran.h
REM seed -20961834 1750156300 -107260776 1892122008 389241380 -1811416403 770034794 78014468 -1836578406 274245153 921695606 -981496399 -1062657084 920505538 -1772613755 155457447 -1296408428 -1577585101 -1569676883 183704609 504067758 816323364 -826438821 -1184011110 -1557779362 951621072 2030751010 1836944582 21321456 894736036 438213133 -321303027 397320549
REM
CELL 1.54180   50.00000   50.00000   50.00000   90.00000   90.00000   90.00000
LATT -1
SFAC C  
C      1  0.5099570000000  0.5010660000000  0.4603460000000 1.0
C      1  0.5585860000000  0.4638210000000  0.5230100000000 1.0
C      1  0.5151470000000  0.5550630000000  0.5335150000000 1.0
C      1  0.5066400000000  0.5169900000000  0.5263040000000 1.0
C      1  0.5573330000000  0.4872250000000  0.5388350000000 1.0
C      1  0.5259070000000  0.5296610000000  0.4511830000000 1.0
C      1  0.4915140000000  0.4320460000000  0.4717560000000 1.0
C      1  0.4966420000000  0.5314570000000  0.4386160000000 1.0
C      1  0.5171460000000  0.4306570000000  0.5168140000000 1.0
C      1  0.4414620000000  0.5198110000000  0.4159690000000 1.0
C      1  0.5016130000000  0.4530310000000  0.4476490000000 1.0
C      1  0.5267350000000  0.4732970000000  0.5754050000000 1.0
C      1  0.5185050000000  0.4328850000000  0.5454730000000 1.0
C      1  0.4230980000000  0.5249620000000  0.4790390000000 1.0
C      1  0.4457960000000  0.4757450000000  0.5297330000000 1.0
C      1  0.4439680000000  0.5413850000000  0.5089390000000 1.0
C      1  0.5336300000000  0.4874290000000  0.4806030000000 1.0
C      1  0.5379280000000  0.4498060000000  0.5014900000000 1.0
C      1  0.4883190000000  0.5402660000000  0.5429980000000 1.0
C      1  0.4684110000000  0.4625010000000  0.5460400000000 1.0
C      1  0.4920570000000  0.5548690000000  0.4922880000000 1.0
C      1  0.4204120000000  0.5018210000000  0.4931570000000 1.0
C      1  0.4805760000000  0.4805360000000  0.5655380000000 1.0
C      1  0.5610430000000  0.5359400000000  0.5102840000000 1.0
C      1  0.5123960000000  0.4590240000000  0.5531400000000 1.0
C      1  0.4810880000000  0.4693620000000  0.4369250000000 1.0
C      1  0.4948800000000  0.4797610000000  0.4799410000000 1.0
C      1  0.4989040000000  0.4754700000000  0.5867940000000 1.0
C      1  0.4962120000000  0.5603150000000  0.4613840000000 1.0
C      1  0.5603080000000  0.4671830000000  0.4835010000000 1.0
C      1  0.4541660000000  0.4636470000000  0.4420990000000 1.0
C      1  0.5569210000000  0.5329610000000  0.4594070000000 1.0
C      1  0.5269610000000  0.4931740000000  0.5135000000000 1.0
C      1  0.4900980000000  0.5224890000000  0.5003890000000 1.0
C      1  0.4884260000000  0.4468680000000  0.5232690000000 1.0
C      1  0.5363360000000  0.5213550000000  0.4824630000000 1.0
C      1  0.5445450000000  0.5864160000000  0.5636170000000 1.0
C      1  0.5292370000000  0.5718020000000  0.5481550000000 1.0
C      1  0.5846780000000  0.4658670000000  0.4759520000000 1.0
C      1  0.5531940000000  0.5125810000000  0.5230670000000 1.0
C      1  0.4810760000000  0.5775900000000  0.5047620000000 1.0
C      1  0.5277350000000  0.4659810000000  0.4548470000000 1.0
C      1  0.5007490000000  0.4780350000000  0.5290630000000 1.0
C      1  0.5228690000000  0.5450550000000  0.5027980000000 1.0
C      1  0.4458880000000  0.5440480000000  0.4775360000000 1.0
C      1  0.4736620000000  0.4359690000000  0.4976710000000 1.0
C      1  0.5509080000000  0.4844820000000  0.5664740000000 1.0
C      1  0.4700050000000  0.5388250000000  0.4584350000000 1.0
C      1  0.4432680000000  0.4781930000000  0.4956990000000 1.0
C      1  0.4723970000000  0.4964490000000  0.5252850000000 1.0
C      1  0.4727730000000  0.4948190000000  0.4926510000000 1.0
C      1  0.5516560000000  0.5624180000000  0.4976540000000 1.0
C      1  0.5266470000000  0.5634410000000  0.4742820000000 1.0
C      1  0.4878190000000  0.4986790000000  0.4352980000000 1.0
C      1  0.4867720000000  0.5086170000000  0.5535120000000 1.0
C      1  0.4480710000000  0.4445340000000  0.4955050000000 1.0
C      1  0.5074970000000  0.4540100000000  0.4869160000000 1.0
C      1  0.4607620000000  0.5287400000000  0.5267420000000 1.0
C      1  0.4383950000000  0.4715200000000  0.4627140000000 1.0
C      1  0.4602770000000  0.5180470000000  0.4335710000000 1.0
END
