TITL C-27145-253-7 0.00300644360695479 125000 -322.213733226061 0 0 60 (C1) n - 1
REM
REM in /home/nfs/bkarasulu/CARBON/AIRSS/Generating-Clusters/AIREBO/Higher-Symm/Only-C60
REM
REM
REM
REM
REM
REM ./C.cell (28575a23ae977d3b5fae324c64b13b57)
REM
REM compiler GCC version 9.2.1 20190827 (Red Hat 9.2.1-1)
REM options -cpp -mtune=generic -march=x86-64 -g -O0 -fpre-include=/usr/include/finclude/math-vector-fortran.h
REM seed 2094149779 1861449453 -905985921 -1348742035 -2050373077 959051957 -1888679037 -865706041 1839544360 -970756555 1706633891 -1194093860 -477778348 1657352761 -916716257 1665270408 920833015 337088155 -1903253659 1348619690 409402910 -803472150 520355500 1886949891 -667246409 -683515671 -2089567687 686844311 1798601030 1856625243 -2062406800 -870101264 545636129
REM
CELL 1.54180   50.00000   50.00000   50.00000   90.00000   90.00000   90.00000
LATT -1
SFAC C  
C      1  0.4794520000000  0.5148150000000  0.5181000000000 1.0
C      1  0.4848020000000  0.5279180000000  0.4603330000000 1.0
C      1  0.5225730000000  0.5261850000000  0.5082310000000 1.0
C      1  0.5078630000000  0.4415900000000  0.4753980000000 1.0
C      1  0.5154900000000  0.4361680000000  0.5238480000000 1.0
C      1  0.4699900000000  0.4376790000000  0.5052230000000 1.0
C      1  0.5094290000000  0.5381880000000  0.5360160000000 1.0
C      1  0.4548600000000  0.5522740000000  0.4701770000000 1.0
C      1  0.5393380000000  0.5554720000000  0.4758700000000 1.0
C      1  0.5269830000000  0.4837390000000  0.4067690000000 1.0
C      1  0.5888200000000  0.4802980000000  0.5605150000000 1.0
C      1  0.4055280000000  0.4860260000000  0.5404640000000 1.0
C      1  0.5268510000000  0.5034400000000  0.4660140000000 1.0
C      1  0.5205100000000  0.5031650000000  0.5534130000000 1.0
C      1  0.4484610000000  0.5012780000000  0.4870150000000 1.0
C      1  0.4598150000000  0.4473840000000  0.5346810000000 1.0
C      1  0.4864530000000  0.4546300000000  0.4535520000000 1.0
C      1  0.5456540000000  0.4478620000000  0.5181410000000 1.0
C      1  0.4772340000000  0.4282300000000  0.4742600000000 1.0
C      1  0.5308850000000  0.4284380000000  0.4944630000000 1.0
C      1  0.4859790000000  0.4253850000000  0.5325980000000 1.0
C      1  0.4678920000000  0.5229630000000  0.5695980000000 1.0
C      1  0.4568320000000  0.5241980000000  0.4267370000000 1.0
C      1  0.5767790000000  0.5235720000000  0.4948350000000 1.0
C      1  0.4757080000000  0.4892560000000  0.5495420000000 1.0
C      1  0.4863860000000  0.5013080000000  0.4635200000000 1.0
C      1  0.5476700000000  0.4922150000000  0.5034960000000 1.0
C      1  0.5144890000000  0.4952460000000  0.4966430000000 1.0
C      1  0.5019820000000  0.4913620000000  0.5280450000000 1.0
C      1  0.4806230000000  0.4919610000000  0.4929470000000 1.0
C      1  0.5768940000000  0.5041600000000  0.4750350000000 1.0
C      1  0.4824020000000  0.5076410000000  0.5872860000000 1.0
C      1  0.4392850000000  0.5049220000000  0.4364990000000 1.0
C      1  0.5684640000000  0.4872560000000  0.5439130000000 1.0
C      1  0.4313430000000  0.4909040000000  0.5325110000000 1.0
C      1  0.5150110000000  0.4929990000000  0.4293510000000 1.0
C      1  0.4884050000000  0.5363640000000  0.4301100000000 1.0
C      1  0.5537330000000  0.5286270000000  0.5186440000000 1.0
C      1  0.4556650000000  0.5219950000000  0.5386950000000 1.0
C      1  0.5370200000000  0.5470360000000  0.4502070000000 1.0
C      1  0.5306920000000  0.5351700000000  0.5588930000000 1.0
C      1  0.4382010000000  0.5399100000000  0.4881230000000 1.0
C      1  0.4874280000000  0.5446450000000  0.5109100000000 1.0
C      1  0.4839250000000  0.5515580000000  0.4802430000000 1.0
C      1  0.5142920000000  0.5538510000000  0.4917820000000 1.0
C      1  0.5532630000000  0.4954170000000  0.4640200000000 1.0
C      1  0.5059490000000  0.4953110000000  0.5801120000000 1.0
C      1  0.4375230000000  0.4968000000000  0.4628280000000 1.0
C      1  0.4746430000000  0.4616760000000  0.4846500000000 1.0
C      1  0.5228060000000  0.4623080000000  0.4950490000000 1.0
C      1  0.4931800000000  0.4585510000000  0.5300580000000 1.0
C      1  0.4584610000000  0.5513820000000  0.4417220000000 1.0
C      1  0.5609350000000  0.5503360000000  0.4926810000000 1.0
C      1  0.4797930000000  0.5442420000000  0.5493780000000 1.0
C      1  0.4365260000000  0.5164240000000  0.5126570000000 1.0
C      1  0.5183740000000  0.5232730000000  0.4396410000000 1.0
C      1  0.5524150000000  0.5123610000000  0.5460910000000 1.0
C      1  0.4960960000000  0.4821350000000  0.4458440000000 1.0
C      1  0.5586930000000  0.4744480000000  0.5214480000000 1.0
C      1  0.4532510000000  0.4760520000000  0.5411760000000 1.0
END
