TITL C-27141-4733-61 -3.165169438904 125000 -354.376925270175 0 0 60 (C1) n - 1
REM
REM in /home/nfs/bkarasulu/CARBON/AIRSS/Generating-Clusters/AIREBO/Higher-Symm/Only-C60
REM
REM
REM
REM
REM
REM ./C.cell (28575a23ae977d3b5fae324c64b13b57)
REM
REM compiler GCC version 9.2.1 20190827 (Red Hat 9.2.1-1)
REM options -cpp -mtune=generic -march=x86-64 -g -O0 -fpre-include=/usr/include/finclude/math-vector-fortran.h
REM seed -1125053840 2141220291 -1483552997 854829859 817476910 -975177858 -35115399 141789532 884115489 -1827675110 -1308960603 -1375561359 -1988963163 486127663 -101455299 2108964921 1763160858 1594636027 845943779 -1182040403 -456835846 378468852 1242401279 1457366082 1578940629 -58148989 38011732 -876405923 1012728688 1457495887 -1895692174 -1588013725 -468170984
REM
CELL 1.54180   50.00000   50.00000   50.00000   90.00000   90.00000   90.00000
LATT -1
SFAC C  
C      1  0.5227870000000  0.4032680000000  0.4298410000000 1.0
C      1  0.5650740000000  0.5738470000000  0.5373960000000 1.0
C      1  0.5199280000000  0.4645260000000  0.4918900000000 1.0
C      1  0.4771530000000  0.5234590000000  0.5395130000000 1.0
C      1  0.5040360000000  0.4453240000000  0.5481390000000 1.0
C      1  0.4339530000000  0.5586980000000  0.5061010000000 1.0
C      1  0.5011770000000  0.3777450000000  0.5739470000000 1.0
C      1  0.4469710000000  0.6475370000000  0.4688850000000 1.0
C      1  0.4407770000000  0.3237210000000  0.5134860000000 1.0
C      1  0.5324540000000  0.6472000000000  0.4455950000000 1.0
C      1  0.4437930000000  0.3649860000000  0.4397450000000 1.0
C      1  0.5719970000000  0.6364990000000  0.5235940000000 1.0
C      1  0.5927980000000  0.6515660000000  0.5306550000000 1.0
C      1  0.5366340000000  0.4075100000000  0.4074850000000 1.0
C      1  0.5915450000000  0.5768140000000  0.5373340000000 1.0
C      1  0.5281180000000  0.4892090000000  0.4860930000000 1.0
C      1  0.5092570000000  0.5268850000000  0.5497900000000 1.0
C      1  0.5003000000000  0.4716820000000  0.5485980000000 1.0
C      1  0.4323570000000  0.5345110000000  0.5184650000000 1.0
C      1  0.5123370000000  0.4035870000000  0.5719280000000 1.0
C      1  0.4301640000000  0.6660000000000  0.4596020000000 1.0
C      1  0.4241850000000  0.3029570000000  0.5152550000000 1.0
C      1  0.5437880000000  0.6616700000000  0.4263160000000 1.0
C      1  0.4269270000000  0.3573480000000  0.4205940000000 1.0
C      1  0.4582720000000  0.3434070000000  0.5094900000000 1.0
C      1  0.5219960000000  0.6345450000000  0.4665680000000 1.0
C      1  0.4610740000000  0.3700660000000  0.4593690000000 1.0
C      1  0.5497480000000  0.6236300000000  0.5166100000000 1.0
C      1  0.5112100000000  0.3993140000000  0.4535020000000 1.0
C      1  0.5379430000000  0.5690320000000  0.5353630000000 1.0
C      1  0.5130810000000  0.4390420000000  0.4955650000000 1.0
C      1  0.4870220000000  0.5513170000000  0.5272680000000 1.0
C      1  0.5052800000000  0.4176640000000  0.5483650000000 1.0
C      1  0.4523670000000  0.5748920000000  0.4945240000000 1.0
C      1  0.4939800000000  0.3635580000000  0.5514830000000 1.0
C      1  0.4650530000000  0.6310330000000  0.4793800000000 1.0
C      1  0.4991240000000  0.4029340000000  0.5249290000000 1.0
C      1  0.4767070000000  0.5880340000000  0.4986370000000 1.0
C      1  0.4885200000000  0.3767610000000  0.5272270000000 1.0
C      1  0.4840340000000  0.6127360000000  0.4877980000000 1.0
C      1  0.4743990000000  0.3656150000000  0.5058530000000 1.0
C      1  0.5115430000000  0.6190520000000  0.4869910000000 1.0
C      1  0.4773230000000  0.3773340000000  0.4805740000000 1.0
C      1  0.5281370000000  0.6089470000000  0.5074680000000 1.0
C      1  0.4972570000000  0.3970030000000  0.4772990000000 1.0
C      1  0.5212220000000  0.5844460000000  0.5189960000000 1.0
C      1  0.5033490000000  0.4133990000000  0.4993550000000 1.0
C      1  0.4956120000000  0.5742180000000  0.5142000000000 1.0
C      1  0.5342890000000  0.5143370000000  0.4818970000000 1.0
C      1  0.5253390000000  0.5484350000000  0.5493450000000 1.0
C      1  0.4973820000000  0.4980800000000  0.5465340000000 1.0
C      1  0.4470110000000  0.5216010000000  0.5374350000000 1.0
C      1  0.5288100000000  0.4138980000000  0.5905670000000 1.0
C      1  0.4136190000000  0.6828730000000  0.4482620000000 1.0
C      1  0.4060510000000  0.2841900000000  0.5177030000000 1.0
C      1  0.5556010000000  0.6736970000000  0.4062440000000 1.0
C      1  0.4088040000000  0.3517410000000  0.4025070000000 1.0
C      1  0.6145540000000  0.6642130000000  0.5379860000000 1.0
C      1  0.5482600000000  0.4130450000000  0.3846540000000 1.0
C      1  0.6175160000000  0.5793620000000  0.5398020000000 1.0
END
