TITL C-27135-6010-115 -11691.6054390146 125000 -293.787474266008 0 0 60 (C1) n - 1
REM
REM in /home/nfs/bkarasulu/CARBON/AIRSS/Generating-Clusters/AIREBO/Higher-Symm/Only-C60
REM
REM
REM
REM
REM
REM ./C.cell (28575a23ae977d3b5fae324c64b13b57)
REM
REM compiler GCC version 9.2.1 20190827 (Red Hat 9.2.1-1)
REM options -cpp -mtune=generic -march=x86-64 -g -O0 -fpre-include=/usr/include/finclude/math-vector-fortran.h
REM seed -14249862 1765457056 -837512223 287295376 78973864 -1921160397 -1806416460 930222182 515062529 1969941833 -1049383697 -1509009688 -502437637 -903516506 658681241 -1548297623 -307576219 421333824 -747051132 454803167 -107252440 103080480 16041045 1604837021 -1211839557 -1095635704 -205201722 -337775892 1930094648 1650494091 574816678 -421686175 1085052723
REM
CELL 1.54180   50.00000   50.00000   50.00000   90.00000   90.00000   90.00000
LATT -1
SFAC C  
C      1  0.4750450000000  0.4483670000000  0.5704760000000 1.0
C      1  0.5425020000000  0.4776030000000  0.5651770000000 1.0
C      1  0.5699350000000  0.4783950000000  0.4927350000000 1.0
C      1  0.5489460000000  0.4641880000000  0.4342970000000 1.0
C      1  0.4848380000000  0.4809890000000  0.4247480000000 1.0
C      1  0.4245380000000  0.4608460000000  0.4750360000000 1.0
C      1  0.4314580000000  0.4633240000000  0.5441070000000 1.0
C      1  0.5345360000000  0.5291740000000  0.4913280000000 1.0
C      1  0.5143670000000  0.5326340000000  0.4680760000000 1.0
C      1  0.4833440000000  0.5212370000000  0.4708060000000 1.0
C      1  0.4589960000000  0.5295720000000  0.4931230000000 1.0
C      1  0.4648670000000  0.5292690000000  0.5267370000000 1.0
C      1  0.4968560000000  0.5339610000000  0.5398450000000 1.0
C      1  0.5265340000000  0.5278920000000  0.5243740000000 1.0
C      1  0.5356460000000  0.4464490000000  0.4463100000000 1.0
C      1  0.4984280000000  0.4544160000000  0.4341080000000 1.0
C      1  0.4473040000000  0.4458020000000  0.4613800000000 1.0
C      1  0.4364230000000  0.4492290000000  0.5184600000000 1.0
C      1  0.4648140000000  0.4416760000000  0.5470830000000 1.0
C      1  0.5254100000000  0.4557370000000  0.5631940000000 1.0
C      1  0.5533590000000  0.4583510000000  0.5101130000000 1.0
C      1  0.5111570000000  0.4971620000000  0.5629310000000 1.0
C      1  0.5646990000000  0.4946920000000  0.5221300000000 1.0
C      1  0.5663160000000  0.4976900000000  0.4698440000000 1.0
C      1  0.5145600000000  0.4905390000000  0.4394710000000 1.0
C      1  0.4564120000000  0.4920920000000  0.4409960000000 1.0
C      1  0.4292610000000  0.4888250000000  0.4981060000000 1.0
C      1  0.4539380000000  0.4891360000000  0.5568350000000 1.0
C      1  0.4833490000000  0.4798670000000  0.5662050000000 1.0
C      1  0.5355910000000  0.4985570000000  0.5392940000000 1.0
C      1  0.5396930000000  0.4995230000000  0.4996000000000 1.0
C      1  0.5480760000000  0.4936410000000  0.4455570000000 1.0
C      1  0.4858900000000  0.4892590000000  0.4577200000000 1.0
C      1  0.4489610000000  0.4841420000000  0.4719730000000 1.0
C      1  0.4426500000000  0.4881720000000  0.5247720000000 1.0
C      1  0.5206850000000  0.5795580000000  0.4745770000000 1.0
C      1  0.5020530000000  0.5607320000000  0.4680460000000 1.0
C      1  0.4716150000000  0.5583110000000  0.4799970000000 1.0
C      1  0.4753680000000  0.5783510000000  0.5072700000000 1.0
C      1  0.5006280000000  0.5722540000000  0.5266910000000 1.0
C      1  0.5271010000000  0.5606730000000  0.5186280000000 1.0
C      1  0.5376580000000  0.5744550000000  0.4962820000000 1.0
C      1  0.5208180000000  0.4730780000000  0.4922850000000 1.0
C      1  0.5113570000000  0.4543070000000  0.4655550000000 1.0
C      1  0.4785030000000  0.4578670000000  0.4685110000000 1.0
C      1  0.4584890000000  0.4617100000000  0.4957280000000 1.0
C      1  0.4702960000000  0.4684820000000  0.5268910000000 1.0
C      1  0.4999260000000  0.4621530000000  0.5423790000000 1.0
C      1  0.5268710000000  0.4687380000000  0.5254670000000 1.0
C      1  0.4498040000000  0.5189130000000  0.5490830000000 1.0
C      1  0.5027680000000  0.5245640000000  0.5666940000000 1.0
C      1  0.5875440000000  0.5037840000000  0.5345330000000 1.0
C      1  0.5640400000000  0.5238680000000  0.4794380000000 1.0
C      1  0.5270710000000  0.5202840000000  0.4433150000000 1.0
C      1  0.4661820000000  0.5214600000000  0.4447060000000 1.0
C      1  0.4333250000000  0.5173880000000  0.4876730000000 1.0
C      1  0.4967910000000  0.4517520000000  0.5034170000000 1.0
C      1  0.4908240000000  0.5148960000000  0.5123370000000 1.0
C      1  0.4919990000000  0.5479910000000  0.5044890000000 1.0
C      1  0.4942040000000  0.4853380000000  0.5095410000000 1.0
END
