TITL C-27132-7279-120 -18.1528196813113 125000 -338.560751275078 0 0 60 (C2) n - 1
REM
REM in /home/nfs/bkarasulu/CARBON/AIRSS/Generating-Clusters/AIREBO/Higher-Symm/Only-C60
REM
REM
REM
REM
REM
REM ./C.cell (28575a23ae977d3b5fae324c64b13b57)
REM
REM compiler GCC version 9.2.1 20190827 (Red Hat 9.2.1-1)
REM options -cpp -mtune=generic -march=x86-64 -g -O0 -fpre-include=/usr/include/finclude/math-vector-fortran.h
REM seed -672051202 -544762603 1881977974 -2090578635 -1947922955 -868284466 1288555769 1241121095 -1002740209 1653408198 -1879771441 993219775 -1758504096 -242469521 -401494619 864473520 -1176896509 1375557025 -1382826492 -776305852 -435479649 -1402607772 -1935079873 -619397639 -1150597322 1156157533 -521430629 -1506583383 1384341336 -1760809337 695593774 1109853827 -299478452
REM
CELL 1.54180   50.00000   50.00000   50.00000   90.00000   90.00000   90.00000
LATT -1
SFAC C  
C      1  0.5731320000000  0.4565810000000  0.4691050000000 1.0
C      1  0.5731610000000  0.5433560000000  0.5309130000000 1.0
C      1  0.4283670000000  0.4555110000000  0.4687910000000 1.0
C      1  0.4283970000000  0.5445500000000  0.5311910000000 1.0
C      1  0.5456780000000  0.4477610000000  0.4842700000000 1.0
C      1  0.5457190000000  0.5522000000000  0.5157420000000 1.0
C      1  0.4562360000000  0.4467770000000  0.4837950000000 1.0
C      1  0.4562770000000  0.5532600000000  0.5161940000000 1.0
C      1  0.4396680000000  0.5324220000000  0.4950290000000 1.0
C      1  0.4396390000000  0.4676290000000  0.5049560000000 1.0
C      1  0.5625440000000  0.5317960000000  0.4943320000000 1.0
C      1  0.5625160000000  0.4681500000000  0.5056840000000 1.0
C      1  0.5143090000000  0.5553610000000  0.4602770000000 1.0
C      1  0.5142520000000  0.4446270000000  0.5397260000000 1.0
C      1  0.4902640000000  0.5671370000000  0.4679470000000 1.0
C      1  0.4901990000000  0.4328710000000  0.5320500000000 1.0
C      1  0.5163320000000  0.5259740000000  0.5097010000000 1.0
C      1  0.5163120000000  0.4740130000000  0.4903030000000 1.0
C      1  0.4841800000000  0.5255530000000  0.5109010000000 1.0
C      1  0.4841610000000  0.4744600000000  0.4890950000000 1.0
C      1  0.5265810000000  0.4886810000000  0.4447740000000 1.0
C      1  0.5265770000000  0.5112960000000  0.5552330000000 1.0
C      1  0.4685710000000  0.4859020000000  0.4426620000000 1.0
C      1  0.4685690000000  0.5141250000000  0.5573300000000 1.0
C      1  0.4686650000000  0.4960110000000  0.4727550000000 1.0
C      1  0.4686620000000  0.5040150000000  0.5272370000000 1.0
C      1  0.5300710000000  0.4951830000000  0.4737260000000 1.0
C      1  0.5300690000000  0.5047910000000  0.5262820000000 1.0
C      1  0.4847920000000  0.4769490000000  0.5304830000000 1.0
C      1  0.4848200000000  0.5230640000000  0.4695130000000 1.0
C      1  0.5133930000000  0.4802760000000  0.5216270000000 1.0
C      1  0.5134150000000  0.5197120000000  0.4783760000000 1.0
C      1  0.4219550000000  0.5198650000000  0.5300680000000 1.0
C      1  0.4219460000000  0.4802020000000  0.4699130000000 1.0
C      1  0.5784550000000  0.5184420000000  0.5308270000000 1.0
C      1  0.5784480000000  0.4814910000000  0.4691920000000 1.0
C      1  0.4405020000000  0.5012650000000  0.4835230000000 1.0
C      1  0.4404970000000  0.4987860000000  0.5164630000000 1.0
C      1  0.5589210000000  0.5008920000000  0.4832270000000 1.0
C      1  0.5589160000000  0.4990580000000  0.5167870000000 1.0
C      1  0.5207340000000  0.5569870000000  0.5345590000000 1.0
C      1  0.5206940000000  0.4429950000000  0.4654460000000 1.0
C      1  0.4872970000000  0.5523060000000  0.5301170000000 1.0
C      1  0.4872600000000  0.4477040000000  0.4698800000000 1.0
C      1  0.4836200000000  0.5371310000000  0.5597280000000 1.0
C      1  0.4836040000000  0.4628830000000  0.4402680000000 1.0
C      1  0.5133940000000  0.5367490000000  0.5561190000000 1.0
C      1  0.5133760000000  0.4632400000000  0.4438850000000 1.0
C      1  0.4827480000000  0.5290600000000  0.4376510000000 1.0
C      1  0.4827080000000  0.4709550000000  0.5623450000000 1.0
C      1  0.5114880000000  0.5357860000000  0.4396820000000 1.0
C      1  0.5114420000000  0.4642040000000  0.5603210000000 1.0
C      1  0.4682170000000  0.4917070000000  0.5744890000000 1.0
C      1  0.4682430000000  0.5083200000000  0.4255030000000 1.0
C      1  0.5276130000000  0.4863810000000  0.5693780000000 1.0
C      1  0.5276420000000  0.5135960000000  0.4306290000000 1.0
C      1  0.4734580000000  0.4517450000000  0.5126890000000 1.0
C      1  0.4735030000000  0.5482770000000  0.4873040000000 1.0
C      1  0.5288750000000  0.4516580000000  0.5131370000000 1.0
C      1  0.5289190000000  0.5483180000000  0.4868700000000 1.0
END
