TITL C-27143-4867-7 4.20412213174016e-05 125000 -301.826180228716 0 0 60 (C1) n - 1
REM
REM in /home/nfs/bkarasulu/CARBON/AIRSS/Generating-Clusters/AIREBO/Higher-Symm/Only-C60
REM
REM
REM
REM
REM
REM ./C.cell (28575a23ae977d3b5fae324c64b13b57)
REM
REM compiler GCC version 9.2.1 20190827 (Red Hat 9.2.1-1)
REM options -cpp -mtune=generic -march=x86-64 -g -O0 -fpre-include=/usr/include/finclude/math-vector-fortran.h
REM seed -808794233 1497827050 -1907193726 -1463871989 -918219814 -1667697403 -1815175054 -1605814165 -1787831993 -1656778192 -1371198081 -800477872 500822822 -793244425 703010197 1541985095 1203792785 1141684720 -1517250448 686966108 1501949177 875391300 -1974641 1180938765 1281076923 167091068 961400082 -124806842 -2001807440 -371384990 425297222 1030502603 1465920678
REM
CELL 1.54180   50.00000   50.00000   50.00000   90.00000   90.00000   90.00000
LATT -1
SFAC C  
C      1  0.4438540000000  0.4611350000000  0.5380060000000 1.0
C      1  0.4374910000000  0.5401290000000  0.4702690000000 1.0
C      1  0.4467780000000  0.5100210000000  0.5667930000000 1.0
C      1  0.4400500000000  0.4684590000000  0.4667210000000 1.0
C      1  0.4687190000000  0.5940950000000  0.4900340000000 1.0
C      1  0.4630530000000  0.4544730000000  0.4862360000000 1.0
C      1  0.4516120000000  0.4411250000000  0.5181790000000 1.0
C      1  0.4581230000000  0.5659870000000  0.4772690000000 1.0
C      1  0.5696880000000  0.4833090000000  0.5121410000000 1.0
C      1  0.5706260000000  0.5142650000000  0.4865350000000 1.0
C      1  0.5645250000000  0.5237930000000  0.5092460000000 1.0
C      1  0.5695710000000  0.4744820000000  0.4882450000000 1.0
C      1  0.5357050000000  0.5180080000000  0.5162380000000 1.0
C      1  0.5382980000000  0.4737320000000  0.4748830000000 1.0
C      1  0.5416600000000  0.4884210000000  0.5215780000000 1.0
C      1  0.5420410000000  0.5061150000000  0.4700190000000 1.0
C      1  0.5604660000000  0.5160990000000  0.4436670000000 1.0
C      1  0.5544500000000  0.4906670000000  0.5593740000000 1.0
C      1  0.5598430000000  0.4830040000000  0.4427080000000 1.0
C      1  0.5517080000000  0.5198390000000  0.5605190000000 1.0
C      1  0.4383440000000  0.5111100000000  0.5396690000000 1.0
C      1  0.4168160000000  0.4925400000000  0.4661940000000 1.0
C      1  0.4315020000000  0.4852290000000  0.5296490000000 1.0
C      1  0.4154540000000  0.5172740000000  0.4625710000000 1.0
C      1  0.5217250000000  0.5485940000000  0.5212830000000 1.0
C      1  0.5212570000000  0.4526850000000  0.4954580000000 1.0
C      1  0.5215500000000  0.4616980000000  0.5282500000000 1.0
C      1  0.5219050000000  0.5502070000000  0.4873000000000 1.0
C      1  0.5001800000000  0.5225010000000  0.5247410000000 1.0
C      1  0.5123190000000  0.4772840000000  0.4532360000000 1.0
C      1  0.5109070000000  0.4932310000000  0.5352730000000 1.0
C      1  0.5108620000000  0.5110120000000  0.4572940000000 1.0
C      1  0.4318450000000  0.4296370000000  0.4972930000000 1.0
C      1  0.4436940000000  0.5465490000000  0.5012910000000 1.0
C      1  0.4376200000000  0.5329570000000  0.5225100000000 1.0
C      1  0.4277710000000  0.4398600000000  0.4746450000000 1.0
C      1  0.4532360000000  0.4931760000000  0.4498820000000 1.0
C      1  0.4558010000000  0.4860090000000  0.5776120000000 1.0
C      1  0.4540710000000  0.5178680000000  0.4524970000000 1.0
C      1  0.4508460000000  0.4615230000000  0.5653160000000 1.0
C      1  0.4923850000000  0.4390140000000  0.4837340000000 1.0
C      1  0.4943660000000  0.5873170000000  0.5030880000000 1.0
C      1  0.4921210000000  0.5644520000000  0.4778100000000 1.0
C      1  0.4813900000000  0.4337040000000  0.5146770000000 1.0
C      1  0.5063870000000  0.5775560000000  0.5253080000000 1.0
C      1  0.4998530000000  0.4478790000000  0.4532130000000 1.0
C      1  0.5009520000000  0.4366300000000  0.5343470000000 1.0
C      1  0.5085340000000  0.5441170000000  0.4566350000000 1.0
C      1  0.5467160000000  0.4626760000000  0.5511270000000 1.0
C      1  0.5470740000000  0.5395250000000  0.4661440000000 1.0
C      1  0.5455820000000  0.5434940000000  0.5450110000000 1.0
C      1  0.5588830000000  0.4525170000000  0.4580620000000 1.0
C      1  0.4982720000000  0.4826460000000  0.4824400000000 1.0
C      1  0.4803360000000  0.5210970000000  0.5035150000000 1.0
C      1  0.4880920000000  0.5210860000000  0.4794230000000 1.0
C      1  0.4978310000000  0.4853000000000  0.5064960000000 1.0
C      1  0.5515770000000  0.4388750000000  0.4886690000000 1.0
C      1  0.5529640000000  0.5612310000000  0.5166990000000 1.0
C      1  0.5607890000000  0.5589040000000  0.4905770000000 1.0
C      1  0.5499340000000  0.4438790000000  0.5223990000000 1.0
END
