TITL C-27130-3996-163 0.000758955554545209 125000 -343.442384249806 0 0 60 (Ci) n - 1
REM
REM in /home/nfs/bkarasulu/CARBON/AIRSS/Generating-Clusters/AIREBO/Higher-Symm/Only-C60
REM
REM
REM
REM
REM
REM ./C.cell (28575a23ae977d3b5fae324c64b13b57)
REM
REM compiler GCC version 9.2.1 20190827 (Red Hat 9.2.1-1)
REM options -cpp -mtune=generic -march=x86-64 -g -O0 -fpre-include=/usr/include/finclude/math-vector-fortran.h
REM seed -168994995 1542956386 1945802346 -1090697240 822198120 646261924 114352905 1395410568 845164151 1794231718 448375216 -1712524949 1533001023 154764158 363123065 250475873 -5952581 995824308 1868034656 -1888945031 -503265730 -125742418 1706462585 1793635989 -953975285 1388060138 1254535260 1855840860 -241916702 665659320 -1800054607 537406544 2026682269
REM
CELL 1.54180   50.00000   50.00000   50.00000   90.00000   90.00000   90.00000
LATT -1
SFAC C  
C      1  0.5203760000000  0.4387180000000  0.5464620000000 1.0
C      1  0.5525420000000  0.4620560000000  0.4486000000000 1.0
C      1  0.5586480000000  0.5033490000000  0.5374200000000 1.0
C      1  0.5503670000000  0.5388830000000  0.4786160000000 1.0
C      1  0.5185040000000  0.5726460000000  0.5483920000000 1.0
C      1  0.4796240000000  0.5612820000000  0.4535380000000 1.0
C      1  0.4474580000000  0.5379440000000  0.5514000000000 1.0
C      1  0.4413520000000  0.4966510000000  0.4625800000000 1.0
C      1  0.4496330000000  0.4611170000000  0.5213840000000 1.0
C      1  0.4814960000000  0.4273540000000  0.4516080000000 1.0
C      1  0.5137340000000  0.4679460000000  0.4202380000000 1.0
C      1  0.5275920000000  0.4917140000000  0.5719640000000 1.0
C      1  0.5159230000000  0.4962990000000  0.4089380000000 1.0
C      1  0.5145000000000  0.5198710000000  0.5708430000000 1.0
C      1  0.5011770000000  0.5163130000000  0.4230600000000 1.0
C      1  0.4862660000000  0.5320540000000  0.5797620000000 1.0
C      1  0.4724080000000  0.5082860000000  0.4280360000000 1.0
C      1  0.4840770000000  0.5037010000000  0.5910620000000 1.0
C      1  0.4855000000000  0.4801290000000  0.4291570000000 1.0
C      1  0.4988230000000  0.4836870000000  0.5769400000000 1.0
C      1  0.5084080000000  0.4368000000000  0.4577450000000 1.0
C      1  0.5393120000000  0.4576430000000  0.5350020000000 1.0
C      1  0.5597440000000  0.4854500000000  0.4634170000000 1.0
C      1  0.5539850000000  0.5368000000000  0.5335910000000 1.0
C      1  0.5276160000000  0.5615050000000  0.4736090000000 1.0
C      1  0.4915920000000  0.5632000000000  0.5422550000000 1.0
C      1  0.4606880000000  0.5423570000000  0.4649980000000 1.0
C      1  0.4402560000000  0.5145500000000  0.5365830000000 1.0
C      1  0.4460150000000  0.4632000000000  0.4664090000000 1.0
C      1  0.4723840000000  0.4384950000000  0.5263910000000 1.0
C      1  0.5401320000000  0.4909460000000  0.4891570000000 1.0
C      1  0.5414930000000  0.5157720000000  0.5099590000000 1.0
C      1  0.5244900000000  0.5437960000000  0.5009090000000 1.0
C      1  0.4967400000000  0.5446380000000  0.5155880000000 1.0
C      1  0.4735170000000  0.5348440000000  0.4955960000000 1.0
C      1  0.4598680000000  0.5090540000000  0.5108430000000 1.0
C      1  0.4585070000000  0.4842280000000  0.4900410000000 1.0
C      1  0.4755100000000  0.4562040000000  0.4990910000000 1.0
C      1  0.5032600000000  0.4553620000000  0.4844120000000 1.0
C      1  0.5264830000000  0.4651560000000  0.5044040000000 1.0
C      1  0.5004130000000  0.4755440000000  0.4571530000000 1.0
C      1  0.5085430000000  0.4807970000000  0.5252880000000 1.0
C      1  0.5225670000000  0.4976220000000  0.4629610000000 1.0
C      1  0.5153530000000  0.5060320000000  0.5250060000000 1.0
C      1  0.5124860000000  0.5252130000000  0.4495540000000 1.0
C      1  0.4995870000000  0.5244560000000  0.5428470000000 1.0
C      1  0.4914570000000  0.5192030000000  0.4747120000000 1.0
C      1  0.4774330000000  0.5023780000000  0.5370390000000 1.0
C      1  0.4846470000000  0.4939680000000  0.4749940000000 1.0
C      1  0.4875140000000  0.4747870000000  0.5504460000000 1.0
C      1  0.4359150000000  0.4838560000000  0.5304480000000 1.0
C      1  0.4568760000000  0.4391980000000  0.4576040000000 1.0
C      1  0.4926510000000  0.4450620000000  0.5444470000000 1.0
C      1  0.5268730000000  0.4509910000000  0.4394590000000 1.0
C      1  0.5450490000000  0.4821900000000  0.5506630000000 1.0
C      1  0.5640850000000  0.5161440000000  0.4695520000000 1.0
C      1  0.5431240000000  0.5608020000000  0.5423960000000 1.0
C      1  0.5073490000000  0.5549380000000  0.4555530000000 1.0
C      1  0.4731270000000  0.5490090000000  0.5605410000000 1.0
C      1  0.4549510000000  0.5178100000000  0.4493370000000 1.0
END
