TITL C-27143-4867-168 -0.00226469920397786 125000 -349.45197093743 0 0 60 (D2) n - 1
REM
REM in /home/nfs/bkarasulu/CARBON/AIRSS/Generating-Clusters/AIREBO/Higher-Symm/Only-C60
REM
REM
REM
REM
REM
REM ./C.cell (28575a23ae977d3b5fae324c64b13b57)
REM
REM compiler GCC version 9.2.1 20190827 (Red Hat 9.2.1-1)
REM options -cpp -mtune=generic -march=x86-64 -g -O0 -fpre-include=/usr/include/finclude/math-vector-fortran.h
REM seed 45387253 -1808375976 -486600703 27642404 -265507411 895328980 1143402016 1389835674 2007057218 840902044 537260468 -1262388629 1280499521 -429489383 -2094286070 1225478989 786027701 1932424683 -881631708 2027213930 -1219969080 231082353 658604121 1131853487 1222692041 -772852581 1154020371 747583638 142565805 862451115 86346024 500629931 919424763
REM
CELL 1.54180   50.00000   50.00000   50.00000   90.00000   90.00000   90.00000
LATT -1
SFAC C  
C      1  0.4405450000000  0.5525130000000  0.4908210000000 1.0
C      1  0.5593930000000  0.5525800000000  0.5092010000000 1.0
C      1  0.4406560000000  0.4474510000000  0.5091400000000 1.0
C      1  0.5594060000000  0.4475260000000  0.4908370000000 1.0
C      1  0.5844590000000  0.4888510000000  0.4764020000000 1.0
C      1  0.4155540000000  0.4887390000000  0.5235930000000 1.0
C      1  0.5845600000000  0.5112450000000  0.5236210000000 1.0
C      1  0.4154260000000  0.5111540000000  0.4763840000000 1.0
C      1  0.5762950000000  0.5302760000000  0.5055950000000 1.0
C      1  0.4236690000000  0.5301880000000  0.4944190000000 1.0
C      1  0.5762900000000  0.4698120000000  0.4944540000000 1.0
C      1  0.4237460000000  0.4697180000000  0.5055330000000 1.0
C      1  0.4550160000000  0.4927680000000  0.5197860000000 1.0
C      1  0.5449930000000  0.4928300000000  0.4802110000000 1.0
C      1  0.4549080000000  0.5071570000000  0.4799980000000 1.0
C      1  0.5450830000000  0.5072020000000  0.5200050000000 1.0
C      1  0.4564410000000  0.5057850000000  0.5693310000000 1.0
C      1  0.5435520000000  0.5058670000000  0.4306720000000 1.0
C      1  0.4565100000000  0.4941250000000  0.4305560000000 1.0
C      1  0.5434970000000  0.4941470000000  0.5694410000000 1.0
C      1  0.5681420000000  0.5177050000000  0.4788520000000 1.0
C      1  0.4318370000000  0.5176140000000  0.5211560000000 1.0
C      1  0.5682590000000  0.4823470000000  0.5212430000000 1.0
C      1  0.4317620000000  0.4822740000000  0.4787500000000 1.0
C      1  0.4711120000000  0.5189330000000  0.5080430000000 1.0
C      1  0.5288650000000  0.5189710000000  0.4919650000000 1.0
C      1  0.4709800000000  0.4811240000000  0.4920950000000 1.0
C      1  0.5290420000000  0.4811550000000  0.5078970000000 1.0
C      1  0.4711700000000  0.4567480000000  0.5134040000000 1.0
C      1  0.5288810000000  0.4567890000000  0.4865770000000 1.0
C      1  0.4710430000000  0.5431520000000  0.4865880000000 1.0
C      1  0.5289050000000  0.5431810000000  0.5134310000000 1.0
C      1  0.4455250000000  0.5409710000000  0.5371730000000 1.0
C      1  0.5544260000000  0.5410520000000  0.4628450000000 1.0
C      1  0.4455670000000  0.4589360000000  0.4627660000000 1.0
C      1  0.5544820000000  0.4589850000000  0.5372160000000 1.0
C      1  0.4571420000000  0.5618550000000  0.5185280000000 1.0
C      1  0.5427840000000  0.5619150000000  0.4814990000000 1.0
C      1  0.4572420000000  0.4381010000000  0.4814410000000 1.0
C      1  0.5428320000000  0.4381440000000  0.5185330000000 1.0
C      1  0.4837780000000  0.4704250000000  0.5362160000000 1.0
C      1  0.5162580000000  0.4704600000000  0.4637710000000 1.0
C      1  0.4836480000000  0.5296160000000  0.4636960000000 1.0
C      1  0.5163170000000  0.5296200000000  0.5363170000000 1.0
C      1  0.4961310000000  0.4864880000000  0.4738390000000 1.0
C      1  0.5038860000000  0.4864810000000  0.5261560000000 1.0
C      1  0.4962170000000  0.5135770000000  0.5262110000000 1.0
C      1  0.5037670000000  0.5135930000000  0.4737950000000 1.0
C      1  0.4635250000000  0.4863980000000  0.5506450000000 1.0
C      1  0.5364910000000  0.4864640000000  0.4493490000000 1.0
C      1  0.4634730000000  0.5135650000000  0.4492400000000 1.0
C      1  0.5365110000000  0.5135870000000  0.5507660000000 1.0
C      1  0.5136990000000  0.4331850000000  0.5013000000000 1.0
C      1  0.4863800000000  0.4331700000000  0.4986710000000 1.0
C      1  0.5136220000000  0.5667770000000  0.4987060000000 1.0
C      1  0.4862980000000  0.5667600000000  0.5013230000000 1.0
C      1  0.5483530000000  0.4673180000000  0.5635710000000 1.0
C      1  0.4516860000000  0.4672880000000  0.4364140000000 1.0
C      1  0.5483610000000  0.5327150000000  0.4364790000000 1.0
C      1  0.4516000000000  0.5326290000000  0.5635350000000 1.0
END
