TITL C-27131-4585-103 0.000697355779455574 125000 -333.225364186415 0 0 60 (C1) n - 1
REM
REM in /home/nfs/bkarasulu/CARBON/AIRSS/Generating-Clusters/AIREBO/Higher-Symm/Only-C60
REM
REM
REM
REM
REM
REM ./C.cell (28575a23ae977d3b5fae324c64b13b57)
REM
REM compiler GCC version 9.2.1 20190827 (Red Hat 9.2.1-1)
REM options -cpp -mtune=generic -march=x86-64 -g -O0 -fpre-include=/usr/include/finclude/math-vector-fortran.h
REM seed -1478214124 874922998 -430596482 -1672336118 -1497848944 -2144178662 632770026 -1300492992 469562057 -1711183127 1759169456 590361286 -552155839 1141354957 1652039572 -1776355328 950289356 -265224931 -2077892106 -1724090127 234829994 823735097 1064006968 -1796432812 2105697823 -602827494 -278449487 -60859838 -1694091443 -814070035 893849600 1963431574 1464656552
REM
CELL 1.54180   50.00000   50.00000   50.00000   90.00000   90.00000   90.00000
LATT -1
SFAC C  
C      1  0.4607280000000  0.4726120000000  0.5192700000000 1.0
C      1  0.5414130000000  0.5429770000000  0.5111510000000 1.0
C      1  0.4779660000000  0.5028640000000  0.4567410000000 1.0
C      1  0.5325810000000  0.4838860000000  0.4365380000000 1.0
C      1  0.4703800000000  0.5461570000000  0.4663560000000 1.0
C      1  0.5259000000000  0.4593890000000  0.4673620000000 1.0
C      1  0.5644570000000  0.4811370000000  0.4443580000000 1.0
C      1  0.4453990000000  0.5073780000000  0.4482420000000 1.0
C      1  0.5084570000000  0.5258560000000  0.5712110000000 1.0
C      1  0.4925700000000  0.4709600000000  0.5683250000000 1.0
C      1  0.5091610000000  0.5097980000000  0.5105700000000 1.0
C      1  0.4756660000000  0.5017050000000  0.5098820000000 1.0
C      1  0.4823970000000  0.5174500000000  0.5640620000000 1.0
C      1  0.5196640000000  0.4766220000000  0.5655020000000 1.0
C      1  0.4835900000000  0.4841260000000  0.4818770000000 1.0
C      1  0.5367120000000  0.5153170000000  0.4914180000000 1.0
C      1  0.5384790000000  0.4366670000000  0.5286050000000 1.0
C      1  0.4644750000000  0.5551500000000  0.5363710000000 1.0
C      1  0.4734520000000  0.4923410000000  0.5733430000000 1.0
C      1  0.5261640000000  0.5047950000000  0.5670220000000 1.0
C      1  0.5511450000000  0.4716000000000  0.4697460000000 1.0
C      1  0.4497550000000  0.5272700000000  0.4711010000000 1.0
C      1  0.5027920000000  0.4588900000000  0.4882390000000 1.0
C      1  0.4818960000000  0.5599780000000  0.4896760000000 1.0
C      1  0.5050590000000  0.5823620000000  0.4807710000000 1.0
C      1  0.4838010000000  0.4324870000000  0.4783240000000 1.0
C      1  0.4921030000000  0.5379600000000  0.5108050000000 1.0
C      1  0.5032400000000  0.4543580000000  0.5220470000000 1.0
C      1  0.4531250000000  0.4570720000000  0.5480190000000 1.0
C      1  0.5389640000000  0.5499170000000  0.5431270000000 1.0
C      1  0.4680280000000  0.4476870000000  0.5043300000000 1.0
C      1  0.5312640000000  0.5696250000000  0.4971880000000 1.0
C      1  0.5560150000000  0.4894160000000  0.4902760000000 1.0
C      1  0.4480250000000  0.5169190000000  0.4971940000000 1.0
C      1  0.4981220000000  0.5075770000000  0.4305370000000 1.0
C      1  0.5053730000000  0.4814400000000  0.4163510000000 1.0
C      1  0.5440460000000  0.5315440000000  0.4648430000000 1.0
C      1  0.4665200000000  0.4642810000000  0.4613900000000 1.0
C      1  0.4742180000000  0.5235750000000  0.5358920000000 1.0
C      1  0.5302630000000  0.4661840000000  0.5373300000000 1.0
C      1  0.5245250000000  0.4213630000000  0.5144510000000 1.0
C      1  0.4765020000000  0.5732670000000  0.5204030000000 1.0
C      1  0.5545040000000  0.5168450000000  0.5271070000000 1.0
C      1  0.4377320000000  0.4911870000000  0.5353010000000 1.0
C      1  0.4465210000000  0.4837140000000  0.5643730000000 1.0
C      1  0.5300900000000  0.5001040000000  0.5350180000000 1.0
C      1  0.4812590000000  0.4639630000000  0.4320020000000 1.0
C      1  0.5225940000000  0.5278170000000  0.4392500000000 1.0
C      1  0.5714010000000  0.5019330000000  0.5116210000000 1.0
C      1  0.4285190000000  0.5109510000000  0.5174140000000 1.0
C      1  0.4932960000000  0.4249410000000  0.5094440000000 1.0
C      1  0.5041830000000  0.5830920000000  0.5132140000000 1.0
C      1  0.5503630000000  0.5581170000000  0.4736810000000 1.0
C      1  0.4509120000000  0.4403450000000  0.4758280000000 1.0
C      1  0.4517330000000  0.4801540000000  0.4372570000000 1.0
C      1  0.5516160000000  0.5119200000000  0.4381120000000 1.0
C      1  0.5138940000000  0.4555990000000  0.4368470000000 1.0
C      1  0.4931460000000  0.5325120000000  0.4523110000000 1.0
C      1  0.4829910000000  0.4545940000000  0.5471660000000 1.0
C      1  0.5208520000000  0.5502530000000  0.5638080000000 1.0
END
