TITL C-27145-253-104 -0.000189251104385828 125000 -322.551463239452 0 0 60 (C1) n - 1
REM
REM in /home/nfs/bkarasulu/CARBON/AIRSS/Generating-Clusters/AIREBO/Higher-Symm/Only-C60
REM
REM
REM
REM
REM
REM ./C.cell (28575a23ae977d3b5fae324c64b13b57)
REM
REM compiler GCC version 9.2.1 20190827 (Red Hat 9.2.1-1)
REM options -cpp -mtune=generic -march=x86-64 -g -O0 -fpre-include=/usr/include/finclude/math-vector-fortran.h
REM seed -1019417488 -52918235 1625574791 -1240498329 999312062 -803235692 2016827492 -2124193282 -398048026 685267903 -1230338461 1841390570 1794670914 -2122417292 -17828125 2032958838 -1176986958 -610302295 -1849475713 -1186046626 -683660023 1552794998 -325860458 -170107770 -958184546 -117207492 -338365159 2103021044 1138968189 883544198 -2089832767 1922625948 -1570988737
REM
CELL 1.54180   50.00000   50.00000   50.00000   90.00000   90.00000   90.00000
LATT -1
SFAC C  
C      1  0.5105000000000  0.4815750000000  0.5205190000000 1.0
C      1  0.4821790000000  0.4779640000000  0.5020430000000 1.0
C      1  0.5048920000000  0.4822520000000  0.4771060000000 1.0
C      1  0.4217890000000  0.4715080000000  0.5200600000000 1.0
C      1  0.5225770000000  0.4774200000000  0.4191770000000 1.0
C      1  0.5567230000000  0.4769950000000  0.5601980000000 1.0
C      1  0.4566900000000  0.4694490000000  0.4549120000000 1.0
C      1  0.5562080000000  0.4699470000000  0.4860840000000 1.0
C      1  0.4812730000000  0.4702940000000  0.5546090000000 1.0
C      1  0.4612430000000  0.5090010000000  0.4524940000000 1.0
C      1  0.5553540000000  0.5094400000000  0.4916430000000 1.0
C      1  0.4774620000000  0.5097850000000  0.5590500000000 1.0
C      1  0.5850600000000  0.4969650000000  0.4921710000000 1.0
C      1  0.4656510000000  0.5087810000000  0.5874500000000 1.0
C      1  0.4438240000000  0.5023920000000  0.4275860000000 1.0
C      1  0.5041890000000  0.4898800000000  0.5659020000000 1.0
C      1  0.4356670000000  0.4826990000000  0.4683490000000 1.0
C      1  0.5585240000000  0.4838770000000  0.4611270000000 1.0
C      1  0.4556470000000  0.5555040000000  0.4883510000000 1.0
C      1  0.5511740000000  0.5583820000000  0.4790660000000 1.0
C      1  0.5084600000000  0.5678220000000  0.5423780000000 1.0
C      1  0.5602310000000  0.5434340000000  0.4573000000000 1.0
C      1  0.5128940000000  0.5495950000000  0.5624480000000 1.0
C      1  0.4350230000000  0.5379690000000  0.4842670000000 1.0
C      1  0.4707500000000  0.5050360000000  0.4849190000000 1.0
C      1  0.5222380000000  0.5107200000000  0.4839370000000 1.0
C      1  0.4950090000000  0.5104040000000  0.5299000000000 1.0
C      1  0.4998030000000  0.5418390000000  0.4477720000000 1.0
C      1  0.5413630000000  0.5378220000000  0.5294720000000 1.0
C      1  0.4518600000000  0.5343470000000  0.5246670000000 1.0
C      1  0.5073560000000  0.5241740000000  0.5665170000000 1.0
C      1  0.4332580000000  0.5138120000000  0.4703440000000 1.0
C      1  0.5618040000000  0.5152690000000  0.4597980000000 1.0
C      1  0.5611610000000  0.5197290000000  0.5237750000000 1.0
C      1  0.4484530000000  0.5157970000000  0.5442860000000 1.0
C      1  0.4867220000000  0.5216080000000  0.4335820000000 1.0
C      1  0.4220630000000  0.4675920000000  0.4879390000000 1.0
C      1  0.5491040000000  0.4712930000000  0.4376050000000 1.0
C      1  0.5277740000000  0.4745120000000  0.5740010000000 1.0
C      1  0.4677100000000  0.4485420000000  0.5110880000000 1.0
C      1  0.5052050000000  0.4525150000000  0.4605350000000 1.0
C      1  0.5275570000000  0.4525990000000  0.5266360000000 1.0
C      1  0.4878930000000  0.5533270000000  0.4950010000000 1.0
C      1  0.5297880000000  0.5571580000000  0.4967820000000 1.0
C      1  0.5068850000000  0.5685490000000  0.5146180000000 1.0
C      1  0.5235880000000  0.4520120000000  0.4393860000000 1.0
C      1  0.5376960000000  0.4519660000000  0.5531540000000 1.0
C      1  0.4397840000000  0.4477660000000  0.5061710000000 1.0
C      1  0.5449900000000  0.4475050000000  0.5041280000000 1.0
C      1  0.4758920000000  0.4444030000000  0.5388890000000 1.0
C      1  0.4774130000000  0.4470510000000  0.4545400000000 1.0
C      1  0.4761390000000  0.5265290000000  0.5066620000000 1.0
C      1  0.5039160000000  0.5370170000000  0.4740160000000 1.0
C      1  0.5157240000000  0.5297980000000  0.5113200000000 1.0
C      1  0.4665540000000  0.4825790000000  0.5318850000000 1.0
C      1  0.4860400000000  0.4859410000000  0.4509950000000 1.0
C      1  0.5421900000000  0.4865080000000  0.5122770000000 1.0
C      1  0.4379030000000  0.4897530000000  0.5340290000000 1.0
C      1  0.5049810000000  0.4978190000000  0.4264040000000 1.0
C      1  0.5602040000000  0.4937820000000  0.5386790000000 1.0
END
