TITL C-27142-7278-124 -0.000310815302197466 125000 -332.7771311996 0 0 60 (C1) n - 1
REM
REM in /home/nfs/bkarasulu/CARBON/AIRSS/Generating-Clusters/AIREBO/Higher-Symm/Only-C60
REM
REM
REM
REM
REM
REM ./C.cell (28575a23ae977d3b5fae324c64b13b57)
REM
REM compiler GCC version 9.2.1 20190827 (Red Hat 9.2.1-1)
REM options -cpp -mtune=generic -march=x86-64 -g -O0 -fpre-include=/usr/include/finclude/math-vector-fortran.h
REM seed 352206110 46443725 -69826519 1464358954 -60996919 138008361 -458237420 1405733923 193552996 458915500 1480703445 -1360604999 -1712889358 1830416806 595209132 -1267223998 -400445485 1892487145 659800229 1495494324 319119213 -1563287635 -1555378471 -215982336 1547767977 -1325574268 476720277 -1219043307 -612589424 -980503358 -1495016827 135833960 -843228794
REM
CELL 1.54180   50.00000   50.00000   50.00000   90.00000   90.00000   90.00000
LATT -1
SFAC C  
C      1  0.5303400000000  0.5500390000000  0.5499400000000 1.0
C      1  0.4745730000000  0.5456470000000  0.4558060000000 1.0
C      1  0.4749370000000  0.4548100000000  0.5418990000000 1.0
C      1  0.5259280000000  0.4552030000000  0.4605440000000 1.0
C      1  0.5426280000000  0.5463800000000  0.5239910000000 1.0
C      1  0.4545800000000  0.5464420000000  0.4760170000000 1.0
C      1  0.5507520000000  0.4543080000000  0.4780220000000 1.0
C      1  0.4531630000000  0.4546460000000  0.5227460000000 1.0
C      1  0.4698900000000  0.4935010000000  0.5504500000000 1.0
C      1  0.5312430000000  0.4931880000000  0.4492580000000 1.0
C      1  0.5357830000000  0.5026500000000  0.5529950000000 1.0
C      1  0.4662900000000  0.5069350000000  0.4498040000000 1.0
C      1  0.5568580000000  0.4936670000000  0.4660960000000 1.0
C      1  0.4438840000000  0.4929530000000  0.5345740000000 1.0
C      1  0.5621280000000  0.4991950000000  0.5347340000000 1.0
C      1  0.4407050000000  0.5016120000000  0.4670400000000 1.0
C      1  0.4726510000000  0.4572650000000  0.4456080000000 1.0
C      1  0.5265030000000  0.4547620000000  0.5545280000000 1.0
C      1  0.5264790000000  0.5431510000000  0.4475970000000 1.0
C      1  0.4759620000000  0.5419550000000  0.5432360000000 1.0
C      1  0.4539340000000  0.4556580000000  0.4688000000000 1.0
C      1  0.5459140000000  0.4534950000000  0.5314900000000 1.0
C      1  0.4492700000000  0.5436440000000  0.5295450000000 1.0
C      1  0.5433760000000  0.5427870000000  0.4719460000000 1.0
C      1  0.4865130000000  0.4714580000000  0.5687960000000 1.0
C      1  0.5120460000000  0.4710040000000  0.4338220000000 1.0
C      1  0.5211300000000  0.5284790000000  0.5643310000000 1.0
C      1  0.4776420000000  0.5287760000000  0.4283250000000 1.0
C      1  0.5705850000000  0.4776600000000  0.4927930000000 1.0
C      1  0.4307460000000  0.4758060000000  0.5083550000000 1.0
C      1  0.5657450000000  0.5292740000000  0.5219220000000 1.0
C      1  0.4308670000000  0.5289160000000  0.4794190000000 1.0
C      1  0.5644680000000  0.5247340000000  0.4722850000000 1.0
C      1  0.4308330000000  0.5226900000000  0.5305110000000 1.0
C      1  0.4324160000000  0.4724540000000  0.4685600000000 1.0
C      1  0.5685850000000  0.4689920000000  0.5327230000000 1.0
C      1  0.4772160000000  0.5221240000000  0.5629240000000 1.0
C      1  0.5264010000000  0.5199630000000  0.4319370000000 1.0
C      1  0.4722890000000  0.4812720000000  0.4311900000000 1.0
C      1  0.5260110000000  0.4782170000000  0.5700440000000 1.0
C      1  0.5289340000000  0.4578740000000  0.5038560000000 1.0
C      1  0.4708040000000  0.4603290000000  0.4952870000000 1.0
C      1  0.4687810000000  0.5402250000000  0.5042220000000 1.0
C      1  0.5234560000000  0.5451130000000  0.4980020000000 1.0
C      1  0.5064510000000  0.4581830000000  0.5294780000000 1.0
C      1  0.4935490000000  0.4596460000000  0.4700560000000 1.0
C      1  0.5035900000000  0.5416640000000  0.4704540000000 1.0
C      1  0.4992350000000  0.5374740000000  0.5192870000000 1.0
C      1  0.4647670000000  0.5103530000000  0.4895700000000 1.0
C      1  0.5368990000000  0.5032110000000  0.5133850000000 1.0
C      1  0.5321970000000  0.4875990000000  0.4888170000000 1.0
C      1  0.4681170000000  0.4894420000000  0.5107100000000 1.0
C      1  0.4899270000000  0.5120060000000  0.4706930000000 1.0
C      1  0.5122530000000  0.5106570000000  0.5297300000000 1.0
C      1  0.4934580000000  0.4878730000000  0.5295180000000 1.0
C      1  0.5072530000000  0.4889380000000  0.4704210000000 1.0
C      1  0.4990010000000  0.5018840000000  0.4274470000000 1.0
C      1  0.5016030000000  0.5017150000000  0.5731310000000 1.0
C      1  0.4255730000000  0.5090650000000  0.5032510000000 1.0
C      1  0.5728890000000  0.5110370000000  0.4980820000000 1.0
END
