TITL C-27130-3996-174 0.000310135070267946 125000 -311.345468675321 0 0 60 (C1) n - 1
REM
REM in /home/nfs/bkarasulu/CARBON/AIRSS/Generating-Clusters/AIREBO/Higher-Symm/Only-C60
REM
REM
REM
REM
REM
REM ./C.cell (28575a23ae977d3b5fae324c64b13b57)
REM
REM compiler GCC version 9.2.1 20190827 (Red Hat 9.2.1-1)
REM options -cpp -mtune=generic -march=x86-64 -g -O0 -fpre-include=/usr/include/finclude/math-vector-fortran.h
REM seed -429283388 -1829359261 1100839360 -1293296653 -1280628042 294136057 2119255522 -1440861691 -848627766 255423707 -1021204412 1376331828 -1513282636 2131789744 1100271994 -1265897038 257307735 982143311 562563910 430874765 1757775283 1378370987 1116018943 412397878 1224445328 525559704 -209602221 -1414323973 -707671176 1563453799 -1003465079 -1604593822 1580516869
REM
CELL 1.54180   50.00000   50.00000   50.00000   90.00000   90.00000   90.00000
LATT -1
SFAC C  
C      1  0.4524830000000  0.5481290000000  0.5286250000000 1.0
C      1  0.5354300000000  0.4475130000000  0.5199140000000 1.0
C      1  0.5370820000000  0.5390700000000  0.4712810000000 1.0
C      1  0.5040360000000  0.4415370000000  0.4777830000000 1.0
C      1  0.5492550000000  0.5525130000000  0.5277880000000 1.0
C      1  0.4976960000000  0.5004900000000  0.4360130000000 1.0
C      1  0.4953150000000  0.4861630000000  0.4661600000000 1.0
C      1  0.5544170000000  0.4734740000000  0.5313790000000 1.0
C      1  0.4373230000000  0.4870640000000  0.5001520000000 1.0
C      1  0.4891500000000  0.5527450000000  0.5071210000000 1.0
C      1  0.5624660000000  0.5181620000000  0.4811060000000 1.0
C      1  0.5018490000000  0.4367370000000  0.4441880000000 1.0
C      1  0.5358840000000  0.4777180000000  0.4386480000000 1.0
C      1  0.5240270000000  0.4750810000000  0.5603060000000 1.0
C      1  0.5307610000000  0.5450840000000  0.4385550000000 1.0
C      1  0.5740010000000  0.4869800000000  0.4788540000000 1.0
C      1  0.4854490000000  0.5082310000000  0.5447840000000 1.0
C      1  0.4730160000000  0.5734840000000  0.5371880000000 1.0
C      1  0.5053830000000  0.5041730000000  0.5791970000000 1.0
C      1  0.4764180000000  0.4513810000000  0.4604540000000 1.0
C      1  0.4725030000000  0.5170210000000  0.4355100000000 1.0
C      1  0.4541750000000  0.4715110000000  0.4543370000000 1.0
C      1  0.5312100000000  0.4570230000000  0.4894880000000 1.0
C      1  0.5180900000000  0.4943830000000  0.4841720000000 1.0
C      1  0.4424760000000  0.4912460000000  0.5266960000000 1.0
C      1  0.4759110000000  0.4516550000000  0.5507310000000 1.0
C      1  0.5406060000000  0.5005050000000  0.4619340000000 1.0
C      1  0.5095780000000  0.4149410000000  0.4260570000000 1.0
C      1  0.5011670000000  0.5708160000000  0.5295820000000 1.0
C      1  0.5526400000000  0.5011190000000  0.5352350000000 1.0
C      1  0.4865340000000  0.5554950000000  0.4599930000000 1.0
C      1  0.4936310000000  0.4293830000000  0.5387780000000 1.0
C      1  0.4435550000000  0.5189820000000  0.5411320000000 1.0
C      1  0.5115740000000  0.5295380000000  0.5492560000000 1.0
C      1  0.4426060000000  0.5803560000000  0.5334040000000 1.0
C      1  0.5535340000000  0.5234050000000  0.5136200000000 1.0
C      1  0.5122110000000  0.4906010000000  0.5334120000000 1.0
C      1  0.4594180000000  0.4381310000000  0.5204700000000 1.0
C      1  0.5249320000000  0.5160100000000  0.4383660000000 1.0
C      1  0.4649510000000  0.5162540000000  0.4847180000000 1.0
C      1  0.5578600000000  0.4676790000000  0.4782990000000 1.0
C      1  0.4668510000000  0.4821840000000  0.4840050000000 1.0
C      1  0.5107350000000  0.4767090000000  0.5081810000000 1.0
C      1  0.4752960000000  0.5441490000000  0.4365450000000 1.0
C      1  0.4804640000000  0.4612980000000  0.5071630000000 1.0
C      1  0.4621640000000  0.5163130000000  0.5682130000000 1.0
C      1  0.5249060000000  0.5576160000000  0.5403100000000 1.0
C      1  0.4252120000000  0.5142440000000  0.4509560000000 1.0
C      1  0.4758480000000  0.5459990000000  0.4840550000000 1.0
C      1  0.5257750000000  0.5217680000000  0.4959360000000 1.0
C      1  0.4684950000000  0.5201810000000  0.5177370000000 1.0
C      1  0.5333770000000  0.5077730000000  0.5601770000000 1.0
C      1  0.4516220000000  0.5054000000000  0.4553780000000 1.0
C      1  0.4903590000000  0.4792530000000  0.5625910000000 1.0
C      1  0.4637470000000  0.4751700000000  0.5333290000000 1.0
C      1  0.5043810000000  0.4375150000000  0.5116350000000 1.0
C      1  0.5141860000000  0.5614610000000  0.4598760000000 1.0
C      1  0.5066710000000  0.5315520000000  0.5163560000000 1.0
C      1  0.5067610000000  0.4679970000000  0.4405220000000 1.0
C      1  0.5425450000000  0.4516330000000  0.5523510000000 1.0
END
