TITL C-27134-4977-108 0.000945525982324192 125000 -329.925664312688 0 0 60 (C1) n - 1
REM
REM in /home/nfs/bkarasulu/CARBON/AIRSS/Generating-Clusters/AIREBO/Higher-Symm/Only-C60
REM
REM
REM
REM
REM
REM ./C.cell (28575a23ae977d3b5fae324c64b13b57)
REM
REM compiler GCC version 9.2.1 20190827 (Red Hat 9.2.1-1)
REM options -cpp -mtune=generic -march=x86-64 -g -O0 -fpre-include=/usr/include/finclude/math-vector-fortran.h
REM seed 1840205839 1989835543 333677795 -1004878778 -2044779375 -1407757964 1097760673 -1555975489 1388059164 -332981122 -1399218781 1867586173 1256171538 1877921644 1516093282 -644251548 939416172 117437450 -805977731 1063561669 -225746666 -2016762236 -2083153458 -598515255 -198996693 480756422 990265419 -2023825110 -966949865 1935575593 1049459396 -2067889207 1547643084
REM
CELL 1.54180   50.00000   50.00000   50.00000   90.00000   90.00000   90.00000
LATT -1
SFAC C  
C      1  0.4502820000000  0.4918060000000  0.5267140000000 1.0
C      1  0.4427230000000  0.4813540000000  0.4976080000000 1.0
C      1  0.4568490000000  0.4939580000000  0.4772840000000 1.0
C      1  0.4440240000000  0.5144990000000  0.4634770000000 1.0
C      1  0.4516770000000  0.5243170000000  0.5168590000000 1.0
C      1  0.5228920000000  0.4892550000000  0.5644630000000 1.0
C      1  0.5272710000000  0.4417690000000  0.5155950000000 1.0
C      1  0.5218730000000  0.4637170000000  0.4494710000000 1.0
C      1  0.5273350000000  0.5306570000000  0.4446610000000 1.0
C      1  0.5246820000000  0.5575680000000  0.5188470000000 1.0
C      1  0.4812440000000  0.5293620000000  0.5077160000000 1.0
C      1  0.4833640000000  0.5011070000000  0.5255670000000 1.0
C      1  0.5025680000000  0.4832120000000  0.5055920000000 1.0
C      1  0.4878500000000  0.4881410000000  0.4767870000000 1.0
C      1  0.4889480000000  0.5197550000000  0.4800500000000 1.0
C      1  0.5340290000000  0.4405620000000  0.5434390000000 1.0
C      1  0.5347800000000  0.4439570000000  0.4652110000000 1.0
C      1  0.5437440000000  0.5092330000000  0.4399090000000 1.0
C      1  0.5396110000000  0.5547830000000  0.4929170000000 1.0
C      1  0.5278150000000  0.5211440000000  0.5589250000000 1.0
C      1  0.4927590000000  0.5144790000000  0.6076880000000 1.0
C      1  0.4752910000000  0.4320860000000  0.5465990000000 1.0
C      1  0.4658750000000  0.4303590000000  0.4542180000000 1.0
C      1  0.4764730000000  0.5686180000000  0.4257440000000 1.0
C      1  0.5002480000000  0.6089400000000  0.5287780000000 1.0
C      1  0.4233170000000  0.4622140000000  0.4947400000000 1.0
C      1  0.4030510000000  0.4458470000000  0.4918530000000 1.0
C      1  0.4244840000000  0.5282600000000  0.4786160000000 1.0
C      1  0.4297380000000  0.5370910000000  0.5049360000000 1.0
C      1  0.4244180000000  0.5001610000000  0.5419360000000 1.0
C      1  0.5339540000000  0.4835900000000  0.4333930000000 1.0
C      1  0.5268700000000  0.5505200000000  0.4694860000000 1.0
C      1  0.5309300000000  0.5407710000000  0.5443640000000 1.0
C      1  0.5314580000000  0.4611030000000  0.5617310000000 1.0
C      1  0.5370290000000  0.4331580000000  0.4904460000000 1.0
C      1  0.4552090000000  0.5270850000000  0.4410970000000 1.0
C      1  0.4150840000000  0.5559690000000  0.5172890000000 1.0
C      1  0.4550510000000  0.4662120000000  0.5421820000000 1.0
C      1  0.4653250000000  0.4251600000000  0.5011400000000 1.0
C      1  0.4638910000000  0.4623890000000  0.4196820000000 1.0
C      1  0.5667210000000  0.5489630000000  0.4943240000000 1.0
C      1  0.5796740000000  0.5178620000000  0.5464590000000 1.0
C      1  0.5786180000000  0.4674280000000  0.5215070000000 1.0
C      1  0.5561860000000  0.4667400000000  0.5005770000000 1.0
C      1  0.5659870000000  0.5088320000000  0.4557880000000 1.0
C      1  0.5813580000000  0.5217320000000  0.4814390000000 1.0
C      1  0.5774650000000  0.5252090000000  0.5139590000000 1.0
C      1  0.5632790000000  0.4976440000000  0.5243270000000 1.0
C      1  0.5344410000000  0.4922380000000  0.5063620000000 1.0
C      1  0.5606720000000  0.4948010000000  0.4845400000000 1.0
C      1  0.5014630000000  0.4536390000000  0.5131770000000 1.0
C      1  0.4946740000000  0.4683590000000  0.4555720000000 1.0
C      1  0.4981740000000  0.5379020000000  0.4581210000000 1.0
C      1  0.4923170000000  0.5550180000000  0.5151230000000 1.0
C      1  0.4939100000000  0.5008400000000  0.5529450000000 1.0
C      1  0.5039340000000  0.5833270000000  0.5228160000000 1.0
C      1  0.4973120000000  0.5084690000000  0.5822930000000 1.0
C      1  0.4792940000000  0.4379210000000  0.5204810000000 1.0
C      1  0.4742910000000  0.4534620000000  0.4429890000000 1.0
C      1  0.4762160000000  0.5454500000000  0.4401910000000 1.0
END
