TITL C-27144-3922-19 0.002499753568576 125000 -363.871567260112 0 0 60 (C1) n - 1
REM
REM in /home/nfs/bkarasulu/CARBON/AIRSS/Generating-Clusters/AIREBO/Higher-Symm/Only-C60
REM
REM
REM
REM
REM
REM ./C.cell (28575a23ae977d3b5fae324c64b13b57)
REM
REM compiler GCC version 9.2.1 20190827 (Red Hat 9.2.1-1)
REM options -cpp -mtune=generic -march=x86-64 -g -O0 -fpre-include=/usr/include/finclude/math-vector-fortran.h
REM seed -1205140526 -2013756001 2036076206 1798914911 490739595 -342410537 -741437637 -1000260068 -1099772306 524859634 1263838892 -600495078 -1853356865 -2087281407 -2032816181 227883919 1141636280 641600114 1429164585 849769096 -1588608797 1512577846 1653024650 1592068086 825784205 -1591245441 -884567997 1445686053 30030655 4280584 -1009974345 1983172185 -67420222
REM
CELL 1.54180   50.00000   50.00000   50.00000   90.00000   90.00000   90.00000
LATT -1
SFAC C  
C      1  0.4875510000000  0.4775170000000  0.4607860000000 1.0
C      1  0.5204100000000  0.4817880000000  0.5437510000000 1.0
C      1  0.4855870000000  0.5262750000000  0.4573460000000 1.0
C      1  0.5361730000000  0.5331950000000  0.5532870000000 1.0
C      1  0.5195170000000  0.4764010000000  0.4589140000000 1.0
C      1  0.4903710000000  0.4883000000000  0.5451550000000 1.0
C      1  0.5125750000000  0.5270610000000  0.4529330000000 1.0
C      1  0.4746970000000  0.5180720000000  0.5401760000000 1.0
C      1  0.5263840000000  0.5532370000000  0.4626200000000 1.0
C      1  0.4853570000000  0.5462550000000  0.5379690000000 1.0
C      1  0.5266680000000  0.4442270000000  0.4632350000000 1.0
C      1  0.4688320000000  0.4641160000000  0.5433800000000 1.0
C      1  0.4735940000000  0.5539370000000  0.4643130000000 1.0
C      1  0.5163260000000  0.5484240000000  0.5342980000000 1.0
C      1  0.4744180000000  0.4491140000000  0.4602310000000 1.0
C      1  0.5233050000000  0.4504420000000  0.5432410000000 1.0
C      1  0.5619720000000  0.4689800000000  0.4851760000000 1.0
C      1  0.4306930000000  0.4608780000000  0.5113760000000 1.0
C      1  0.5741410000000  0.5304870000000  0.4880170000000 1.0
C      1  0.4377810000000  0.5288860000000  0.5081210000000 1.0
C      1  0.4244940000000  0.4574100000000  0.4845710000000 1.0
C      1  0.5597260000000  0.4697270000000  0.5133810000000 1.0
C      1  0.4360710000000  0.5257420000000  0.4799090000000 1.0
C      1  0.5678540000000  0.5367220000000  0.5147350000000 1.0
C      1  0.4445860000000  0.4505910000000  0.4600960000000 1.0
C      1  0.5501980000000  0.4454900000000  0.5244870000000 1.0
C      1  0.4429860000000  0.5495660000000  0.4656730000000 1.0
C      1  0.5561590000000  0.5627250000000  0.5162860000000 1.0
C      1  0.5572440000000  0.4441330000000  0.4713630000000 1.0
C      1  0.4536980000000  0.4449080000000  0.5223320000000 1.0
C      1  0.5550680000000  0.5448540000000  0.4656390000000 1.0
C      1  0.4444460000000  0.5557550000000  0.5149450000000 1.0
C      1  0.5134110000000  0.4304880000000  0.4384420000000 1.0
C      1  0.4808490000000  0.4455500000000  0.5655100000000 1.0
C      1  0.5121370000000  0.5736990000000  0.4426940000000 1.0
C      1  0.4955050000000  0.5576950000000  0.5670490000000 1.0
C      1  0.4881630000000  0.4336950000000  0.4363650000000 1.0
C      1  0.5049260000000  0.4379900000000  0.5640380000000 1.0
C      1  0.4865390000000  0.5736290000000  0.4433580000000 1.0
C      1  0.5192250000000  0.5512610000000  0.5740680000000 1.0
C      1  0.4721950000000  0.5606400000000  0.5151230000000 1.0
C      1  0.5139620000000  0.5627440000000  0.4899640000000 1.0
C      1  0.4669450000000  0.4276390000000  0.5053630000000 1.0
C      1  0.5114600000000  0.4344480000000  0.4882590000000 1.0
C      1  0.5280480000000  0.5624000000000  0.5137590000000 1.0
C      1  0.4861670000000  0.5622690000000  0.4912210000000 1.0
C      1  0.5228070000000  0.4365730000000  0.5122970000000 1.0
C      1  0.4844250000000  0.4336530000000  0.4848090000000 1.0
C      1  0.5563000000000  0.5180630000000  0.5330580000000 1.0
C      1  0.4454900000000  0.5021050000000  0.4671190000000 1.0
C      1  0.5487440000000  0.4919220000000  0.5275320000000 1.0
C      1  0.4305500000000  0.4791540000000  0.4621200000000 1.0
C      1  0.4490330000000  0.5097850000000  0.5255020000000 1.0
C      1  0.5580770000000  0.5131220000000  0.4670600000000 1.0
C      1  0.4447100000000  0.4830790000000  0.5274850000000 1.0
C      1  0.5476850000000  0.4887130000000  0.4708660000000 1.0
C      1  0.4808370000000  0.5056490000000  0.5712240000000 1.0
C      1  0.4733190000000  0.5015580000000  0.4612820000000 1.0
C      1  0.5356980000000  0.5025870000000  0.5636280000000 1.0
C      1  0.5239090000000  0.5046760000000  0.4430670000000 1.0
END
