TITL C-27142-7278-105 -0.000769703814805419 125000 -298.491218026853 0 0 60 (C1) n - 1
REM
REM in /home/nfs/bkarasulu/CARBON/AIRSS/Generating-Clusters/AIREBO/Higher-Symm/Only-C60
REM
REM
REM
REM
REM
REM ./C.cell (28575a23ae977d3b5fae324c64b13b57)
REM
REM compiler GCC version 9.2.1 20190827 (Red Hat 9.2.1-1)
REM options -cpp -mtune=generic -march=x86-64 -g -O0 -fpre-include=/usr/include/finclude/math-vector-fortran.h
REM seed 1008633237 -1781841951 -108174685 -1102537651 -993869232 394736116 -2105129188 -622120951 19233960 1828517403 -1611548891 372492988 -22951041 -901775999 -2037799655 -672692179 1067345793 -656953809 206188705 1283349012 -551294962 -779659702 1530407387 718868450 372569923 1466458590 -1862135965 -1207772227 1799908579 -1301315055 1163758808 1977828946 -279558371
REM
CELL 1.54180   50.00000   50.00000   50.00000   90.00000   90.00000   90.00000
LATT -1
SFAC C  
C      1  0.4550120000000  0.5284370000000  0.4558850000000 1.0
C      1  0.4467460000000  0.5286610000000  0.5061520000000 1.0
C      1  0.4657420000000  0.5283290000000  0.5536450000000 1.0
C      1  0.5124040000000  0.5321790000000  0.5546720000000 1.0
C      1  0.5529900000000  0.5321450000000  0.5258860000000 1.0
C      1  0.5477090000000  0.5262600000000  0.4754410000000 1.0
C      1  0.5076120000000  0.5306750000000  0.4440350000000 1.0
C      1  0.4660600000000  0.4492480000000  0.4821390000000 1.0
C      1  0.4752640000000  0.4489150000000  0.5313400000000 1.0
C      1  0.4996250000000  0.4401600000000  0.5424540000000 1.0
C      1  0.5234030000000  0.4529190000000  0.5299440000000 1.0
C      1  0.5658460000000  0.4352560000000  0.4566110000000 1.0
C      1  0.5437490000000  0.4351260000000  0.4388530000000 1.0
C      1  0.4655700000000  0.4287020000000  0.4591280000000 1.0
C      1  0.5548580000000  0.4605610000000  0.5323510000000 1.0
C      1  0.5651020000000  0.4545030000000  0.4798890000000 1.0
C      1  0.5201510000000  0.4541620000000  0.4442240000000 1.0
C      1  0.4672710000000  0.4553500000000  0.4427690000000 1.0
C      1  0.4389920000000  0.4625540000000  0.4923500000000 1.0
C      1  0.4499440000000  0.4552940000000  0.5512160000000 1.0
C      1  0.5110960000000  0.4564040000000  0.5677400000000 1.0
C      1  0.4515190000000  0.5117330000000  0.4785560000000 1.0
C      1  0.4551670000000  0.5132690000000  0.5315770000000 1.0
C      1  0.4905430000000  0.5165150000000  0.5623380000000 1.0
C      1  0.5340640000000  0.5170500000000  0.5455210000000 1.0
C      1  0.5601240000000  0.5108620000000  0.5003310000000 1.0
C      1  0.5228670000000  0.5089790000000  0.4605270000000 1.0
C      1  0.4785410000000  0.5226760000000  0.4418470000000 1.0
C      1  0.4941100000000  0.4662900000000  0.4418860000000 1.0
C      1  0.4410450000000  0.4698770000000  0.4591960000000 1.0
C      1  0.4400230000000  0.4672940000000  0.5205860000000 1.0
C      1  0.4780190000000  0.4644040000000  0.5678420000000 1.0
C      1  0.5408300000000  0.4669780000000  0.5629310000000 1.0
C      1  0.5674310000000  0.4750460000000  0.5042750000000 1.0
C      1  0.5391540000000  0.4631290000000  0.4669310000000 1.0
C      1  0.5325900000000  0.5548000000000  0.4860670000000 1.0
C      1  0.5169030000000  0.5597580000000  0.4559370000000 1.0
C      1  0.4911960000000  0.5603940000000  0.4757270000000 1.0
C      1  0.4594910000000  0.5535090000000  0.4867200000000 1.0
C      1  0.4769130000000  0.5640090000000  0.5139760000000 1.0
C      1  0.5027720000000  0.5570120000000  0.5349260000000 1.0
C      1  0.5308230000000  0.5558290000000  0.5156910000000 1.0
C      1  0.5504910000000  0.5544430000000  0.4566270000000 1.0
C      1  0.5134450000000  0.5817100000000  0.4373190000000 1.0
C      1  0.4416570000000  0.5553250000000  0.4583360000000 1.0
C      1  0.4426320000000  0.5619060000000  0.5150340000000 1.0
C      1  0.4742240000000  0.5568920000000  0.5534130000000 1.0
C      1  0.5251430000000  0.5826110000000  0.5360990000000 1.0
C      1  0.5764060000000  0.5429820000000  0.5372610000000 1.0
C      1  0.5362970000000  0.4882700000000  0.4776570000000 1.0
C      1  0.4925000000000  0.4950550000000  0.4537300000000 1.0
C      1  0.4686140000000  0.4825250000000  0.4745770000000 1.0
C      1  0.4692450000000  0.4823370000000  0.5293140000000 1.0
C      1  0.4935980000000  0.4887820000000  0.5521500000000 1.0
C      1  0.5246270000000  0.4855440000000  0.5394920000000 1.0
C      1  0.5384640000000  0.4896220000000  0.5105260000000 1.0
C      1  0.4846390000000  0.4860950000000  0.5026670000000 1.0
C      1  0.4948310000000  0.5144740000000  0.5026710000000 1.0
C      1  0.4946750000000  0.5400810000000  0.4996970000000 1.0
C      1  0.5002340000000  0.4586460000000  0.4957000000000 1.0
END
