TITL C-27134-4977-167 0.000697702238997677 125000 -326.143371271201 0 0 60 (C1) n - 1
REM
REM in /home/nfs/bkarasulu/CARBON/AIRSS/Generating-Clusters/AIREBO/Higher-Symm/Only-C60
REM
REM
REM
REM
REM
REM ./C.cell (28575a23ae977d3b5fae324c64b13b57)
REM
REM compiler GCC version 9.2.1 20190827 (Red Hat 9.2.1-1)
REM options -cpp -mtune=generic -march=x86-64 -g -O0 -fpre-include=/usr/include/finclude/math-vector-fortran.h
REM seed -1685015704 871136253 1467307356 191065059 1540253584 -1023500144 -1683824310 313960338 -1452241122 1483524865 -1833316107 -94153542 763920740 1799588173 739971920 -533184135 2145764990 -1782946401 1921554677 1334371932 1559689580 -1605000587 -1742995154 -641901215 -1135680556 -204842538 -79028642 2020353489 -2038365098 208642676 -1011429497 1928901895 1928572652
REM
CELL 1.54180   50.00000   50.00000   50.00000   90.00000   90.00000   90.00000
LATT -1
SFAC C  
C      1  0.4687070000000  0.4952630000000  0.4461720000000 1.0
C      1  0.4671380000000  0.4947730000000  0.5496250000000 1.0
C      1  0.5629020000000  0.4934230000000  0.5057970000000 1.0
C      1  0.5299270000000  0.4968810000000  0.4422460000000 1.0
C      1  0.5344230000000  0.4987330000000  0.5523010000000 1.0
C      1  0.4379080000000  0.4908750000000  0.4994850000000 1.0
C      1  0.4451820000000  0.5395170000000  0.5618790000000 1.0
C      1  0.5840520000000  0.5402300000000  0.5032330000000 1.0
C      1  0.4519750000000  0.5243340000000  0.4362320000000 1.0
C      1  0.5537270000000  0.5485390000000  0.5573520000000 1.0
C      1  0.4179500000000  0.5404520000000  0.5088230000000 1.0
C      1  0.5458820000000  0.5265240000000  0.4318120000000 1.0
C      1  0.5490040000000  0.4566450000000  0.4987960000000 1.0
C      1  0.4761020000000  0.4584240000000  0.4595770000000 1.0
C      1  0.4691850000000  0.4524380000000  0.5205040000000 1.0
C      1  0.4474310000000  0.4448980000000  0.4981020000000 1.0
C      1  0.5251730000000  0.4607940000000  0.4586390000000 1.0
C      1  0.5194420000000  0.4564530000000  0.5391000000000 1.0
C      1  0.5158580000000  0.4379230000000  0.4723800000000 1.0
C      1  0.4724010000000  0.4251370000000  0.4919230000000 1.0
C      1  0.5146330000000  0.4343850000000  0.5215910000000 1.0
C      1  0.4876600000000  0.4353720000000  0.4701170000000 1.0
C      1  0.5301220000000  0.4353340000000  0.4975190000000 1.0
C      1  0.4874180000000  0.4278420000000  0.5194020000000 1.0
C      1  0.5294000000000  0.5660350000000  0.5032680000000 1.0
C      1  0.4878870000000  0.5700630000000  0.4810910000000 1.0
C      1  0.4894880000000  0.5678580000000  0.5283880000000 1.0
C      1  0.4756210000000  0.5790260000000  0.5056390000000 1.0
C      1  0.5158000000000  0.5772140000000  0.4804820000000 1.0
C      1  0.5172670000000  0.5752050000000  0.5277430000000 1.0
C      1  0.5530270000000  0.4747680000000  0.4537970000000 1.0
C      1  0.4361720000000  0.4664790000000  0.4829140000000 1.0
C      1  0.5115490000000  0.4985640000000  0.5739650000000 1.0
C      1  0.4474280000000  0.4702470000000  0.4568650000000 1.0
C      1  0.5656930000000  0.4743280000000  0.4786670000000 1.0
C      1  0.4870660000000  0.4939420000000  0.5730170000000 1.0
C      1  0.4848720000000  0.4868900000000  0.4746770000000 1.0
C      1  0.4805240000000  0.4813790000000  0.5249750000000 1.0
C      1  0.5316170000000  0.4844800000000  0.5004010000000 1.0
C      1  0.5160260000000  0.4918060000000  0.4728710000000 1.0
C      1  0.5138760000000  0.4879140000000  0.5274600000000 1.0
C      1  0.4700720000000  0.4965930000000  0.4999950000000 1.0
C      1  0.5111460000000  0.4827640000000  0.4201120000000 1.0
C      1  0.4232220000000  0.4895980000000  0.5284070000000 1.0
C      1  0.5603680000000  0.4817430000000  0.5530940000000 1.0
C      1  0.4859470000000  0.4836690000000  0.4214270000000 1.0
C      1  0.5739270000000  0.4800060000000  0.5316830000000 1.0
C      1  0.4365010000000  0.4867500000000  0.5497590000000 1.0
C      1  0.5135040000000  0.5266590000000  0.4419010000000 1.0
C      1  0.4409620000000  0.5213260000000  0.5118210000000 1.0
C      1  0.5435430000000  0.5273000000000  0.5386740000000 1.0
C      1  0.4828600000000  0.5259090000000  0.4503660000000 1.0
C      1  0.5599660000000  0.5234140000000  0.5100100000000 1.0
C      1  0.4593440000000  0.5238030000000  0.5398260000000 1.0
C      1  0.4861890000000  0.5377030000000  0.5292410000000 1.0
C      1  0.5307710000000  0.5351950000000  0.5017090000000 1.0
C      1  0.4848880000000  0.5400930000000  0.4781530000000 1.0
C      1  0.5122380000000  0.5222660000000  0.5265630000000 1.0
C      1  0.4717930000000  0.5281870000000  0.5021890000000 1.0
C      1  0.5152430000000  0.5256320000000  0.4762430000000 1.0
END
