TITL C-27138-9601-113 -0.00193292666124933 125000 -332.872532180033 0 0 60 (C1) n - 1
REM
REM in /home/nfs/bkarasulu/CARBON/AIRSS/Generating-Clusters/AIREBO/Higher-Symm/Only-C60
REM
REM
REM
REM
REM
REM ./C.cell (28575a23ae977d3b5fae324c64b13b57)
REM
REM compiler GCC version 9.2.1 20190827 (Red Hat 9.2.1-1)
REM options -cpp -mtune=generic -march=x86-64 -g -O0 -fpre-include=/usr/include/finclude/math-vector-fortran.h
REM seed -986738570 -1828338935 -467746195 1017970709 1857274834 -1069213329 188905323 -445534200 -551853188 511515115 -1509843988 1772250321 363589022 1536515105 -17438679 -1291602303 -1975696437 -1640917947 936725174 -1019902776 -1449211301 -1889994750 -435082774 -624983477 552378560 6209661 226274400 -1867789154 -1797149475 -873413978 -346053406 -923454408 -151394672
REM
CELL 1.54180   50.00000   50.00000   50.00000   90.00000   90.00000   90.00000
LATT -1
SFAC C  
C      1  0.5372980000000  0.5433380000000  0.5475260000000 1.0
C      1  0.5342760000000  0.4538090000000  0.4518880000000 1.0
C      1  0.5506000000000  0.4507760000000  0.4901080000000 1.0
C      1  0.5488300000000  0.5490810000000  0.5056970000000 1.0
C      1  0.5475810000000  0.5477580000000  0.4783340000000 1.0
C      1  0.5538830000000  0.4513040000000  0.5178660000000 1.0
C      1  0.5567520000000  0.4996070000000  0.5431130000000 1.0
C      1  0.5512940000000  0.4990440000000  0.4494800000000 1.0
C      1  0.5189960000000  0.5042490000000  0.5726560000000 1.0
C      1  0.5098340000000  0.4866660000000  0.4243190000000 1.0
C      1  0.5417080000000  0.5171850000000  0.5616710000000 1.0
C      1  0.5353830000000  0.4789990000000  0.4348240000000 1.0
C      1  0.4866100000000  0.4927200000000  0.4466560000000 1.0
C      1  0.4906540000000  0.5018770000000  0.5539760000000 1.0
C      1  0.4581420000000  0.5365200000000  0.4731770000000 1.0
C      1  0.4625130000000  0.4580260000000  0.5310960000000 1.0
C      1  0.5355250000000  0.5237630000000  0.4590870000000 1.0
C      1  0.5399790000000  0.4737920000000  0.5348100000000 1.0
C      1  0.5274720000000  0.4787860000000  0.4739390000000 1.0
C      1  0.5286430000000  0.5203080000000  0.5240420000000 1.0
C      1  0.5085130000000  0.4770460000000  0.5222540000000 1.0
C      1  0.5074660000000  0.5281800000000  0.4780230000000 1.0
C      1  0.4502800000000  0.5277620000000  0.5501340000000 1.0
C      1  0.4472600000000  0.4638400000000  0.4615540000000 1.0
C      1  0.4692810000000  0.4441170000000  0.4653660000000 1.0
C      1  0.4705840000000  0.5467440000000  0.5426550000000 1.0
C      1  0.4246880000000  0.5286890000000  0.5380440000000 1.0
C      1  0.4311590000000  0.4687630000000  0.4859270000000 1.0
C      1  0.4790280000000  0.5359610000000  0.5133570000000 1.0
C      1  0.4830730000000  0.4599020000000  0.4854740000000 1.0
C      1  0.4609480000000  0.5012030000000  0.5512940000000 1.0
C      1  0.4570350000000  0.4908860000000  0.4541590000000 1.0
C      1  0.4977330000000  0.4814480000000  0.4735270000000 1.0
C      1  0.5000740000000  0.5212950000000  0.5323690000000 1.0
C      1  0.5018660000000  0.4282940000000  0.5006830000000 1.0
C      1  0.4975190000000  0.5702870000000  0.5044400000000 1.0
C      1  0.5044750000000  0.5194370000000  0.4464910000000 1.0
C      1  0.5132100000000  0.4766230000000  0.5555810000000 1.0
C      1  0.4924830000000  0.5660600000000  0.5356940000000 1.0
C      1  0.4926780000000  0.4245940000000  0.4698810000000 1.0
C      1  0.5622320000000  0.5252050000000  0.5220620000000 1.0
C      1  0.5608910000000  0.4774330000000  0.4740010000000 1.0
C      1  0.4855910000000  0.5483730000000  0.4855220000000 1.0
C      1  0.4888430000000  0.4541030000000  0.5153500000000 1.0
C      1  0.4491990000000  0.5106840000000  0.4730720000000 1.0
C      1  0.4508940000000  0.4826970000000  0.5323810000000 1.0
C      1  0.5239410000000  0.5608650000000  0.5229910000000 1.0
C      1  0.5246250000000  0.4355080000000  0.4774630000000 1.0
C      1  0.4410700000000  0.4965290000000  0.5029070000000 1.0
C      1  0.3527050000000  0.5255970000000  0.4688210000000 1.0
C      1  0.4182170000000  0.5156340000000  0.5138930000000 1.0
C      1  0.5953410000000  0.5094330000000  0.4999750000000 1.0
C      1  0.3737270000000  0.5233650000000  0.4843140000000 1.0
C      1  0.6406860000000  0.5332940000000  0.5126240000000 1.0
C      1  0.6185460000000  0.5214520000000  0.5051090000000 1.0
C      1  0.4735080000000  0.5053750000000  0.5079630000000 1.0
C      1  0.3950460000000  0.5185500000000  0.4995370000000 1.0
C      1  0.5724800000000  0.4995570000000  0.4931900000000 1.0
C      1  0.5390770000000  0.4990780000000  0.4995750000000 1.0
C      1  0.5051370000000  0.5010220000000  0.4983610000000 1.0
END
