TITL C-27138-9601-25 6.1203184369371e-06 125000 -370.319217560976 0 0 60 (C1) n - 1
REM
REM in /home/nfs/bkarasulu/CARBON/AIRSS/Generating-Clusters/AIREBO/Higher-Symm/Only-C60
REM
REM
REM
REM
REM
REM ./C.cell (28575a23ae977d3b5fae324c64b13b57)
REM
REM compiler GCC version 9.2.1 20190827 (Red Hat 9.2.1-1)
REM options -cpp -mtune=generic -march=x86-64 -g -O0 -fpre-include=/usr/include/finclude/math-vector-fortran.h
REM seed 1190185024 1261463074 675040523 1129740224 788550924 1781203920 1140317721 457444254 1116618495 -1443494982 -1763008832 1035389418 -45832406 -11124423 -1631441974 -1250270074 890144471 -801635168 -1101832745 -191025780 -1286686357 -212564705 -833586898 1169884920 -1903963690 802066819 844866563 479410794 -1479826195 -165256213 75778331 1547954964 689382162
REM
CELL 1.54180   50.00000   50.00000   50.00000   90.00000   90.00000   90.00000
LATT -1
SFAC C  
C      1  0.4704100000000  0.4318610000000  0.4840810000000 1.0
C      1  0.4844580000000  0.4692620000000  0.4325630000000 1.0
C      1  0.4232410000000  0.4835800000000  0.4632950000000 1.0
C      1  0.5330380000000  0.5677360000000  0.4841780000000 1.0
C      1  0.5304890000000  0.4318220000000  0.5159260000000 1.0
C      1  0.4652250000000  0.5718860000000  0.5140250000000 1.0
C      1  0.5160430000000  0.5334600000000  0.4289170000000 1.0
C      1  0.5170350000000  0.4670320000000  0.5711120000000 1.0
C      1  0.4846660000000  0.5313730000000  0.5718470000000 1.0
C      1  0.5668900000000  0.5144460000000  0.4662060000000 1.0
C      1  0.5717800000000  0.4876570000000  0.5347470000000 1.0
C      1  0.4350390000000  0.5151670000000  0.5330820000000 1.0
C      1  0.4668450000000  0.4268790000000  0.5147870000000 1.0
C      1  0.4863440000000  0.4660080000000  0.5768900000000 1.0
C      1  0.4360140000000  0.4835990000000  0.5319180000000 1.0
C      1  0.5321020000000  0.5643580000000  0.5153340000000 1.0
C      1  0.5345050000000  0.4268250000000  0.4852720000000 1.0
C      1  0.4665960000000  0.5688580000000  0.4828830000000 1.0
C      1  0.5157760000000  0.5323140000000  0.5713260000000 1.0
C      1  0.5147440000000  0.4680310000000  0.4252540000000 1.0
C      1  0.4846600000000  0.5349030000000  0.4265760000000 1.0
C      1  0.5702050000000  0.5193310000000  0.5360960000000 1.0
C      1  0.5652340000000  0.4829880000000  0.4656870000000 1.0
C      1  0.4220150000000  0.5148700000000  0.4643730000000 1.0
C      1  0.5765730000000  0.5341100000000  0.5153930000000 1.0
C      1  0.5132210000000  0.5685000000000  0.5324690000000 1.0
C      1  0.5350670000000  0.5157190000000  0.5771120000000 1.0
C      1  0.4306340000000  0.4669640000000  0.5128360000000 1.0
C      1  0.4284900000000  0.5319360000000  0.4830460000000 1.0
C      1  0.5705910000000  0.4673030000000  0.4858380000000 1.0
C      1  0.4816440000000  0.4318880000000  0.5356980000000 1.0
C      1  0.4843060000000  0.5745930000000  0.4645930000000 1.0
C      1  0.5195510000000  0.4323980000000  0.4645470000000 1.0
C      1  0.4661790000000  0.4825920000000  0.5774850000000 1.0
C      1  0.4651840000000  0.5184630000000  0.4322840000000 1.0
C      1  0.5345170000000  0.4846870000000  0.4214390000000 1.0
C      1  0.5719560000000  0.5317170000000  0.4846490000000 1.0
C      1  0.5155040000000  0.5731190000000  0.4658750000000 1.0
C      1  0.5343290000000  0.5159300000000  0.4226850000000 1.0
C      1  0.4303410000000  0.4662950000000  0.4816010000000 1.0
C      1  0.4286110000000  0.5319380000000  0.5142700000000 1.0
C      1  0.5670990000000  0.4696370000000  0.5168390000000 1.0
C      1  0.4884200000000  0.4284520000000  0.4658540000000 1.0
C      1  0.4821180000000  0.5662860000000  0.5331050000000 1.0
C      1  0.5128520000000  0.4283150000000  0.5344410000000 1.0
C      1  0.4660730000000  0.4870860000000  0.4293500000000 1.0
C      1  0.4661780000000  0.5138750000000  0.5777300000000 1.0
C      1  0.5357630000000  0.4844390000000  0.5760370000000 1.0
C      1  0.4992650000000  0.5596020000000  0.5613810000000 1.0
C      1  0.4420450000000  0.4984450000000  0.5607110000000 1.0
C      1  0.5595770000000  0.4997780000000  0.4376150000000 1.0
C      1  0.5002480000000  0.4392320000000  0.5628640000000 1.0
C      1  0.5005520000000  0.5613060000000  0.4385630000000 1.0
C      1  0.5008090000000  0.4404620000000  0.4376730000000 1.0
C      1  0.5611330000000  0.5595070000000  0.4997140000000 1.0
C      1  0.4376530000000  0.5007830000000  0.4385830000000 1.0
C      1  0.4407980000000  0.4389840000000  0.4979450000000 1.0
C      1  0.4384040000000  0.5597580000000  0.4986570000000 1.0
C      1  0.5596750000000  0.4405040000000  0.5021370000000 1.0
C      1  0.5612870000000  0.5011490000000  0.5626020000000 1.0
END
