TITL C-27137-4574-69 -0.0010735906886394 125000 -303.410218213356 0 0 60 (C1) n - 1
REM
REM in /home/nfs/bkarasulu/CARBON/AIRSS/Generating-Clusters/AIREBO/Higher-Symm/Only-C60
REM
REM
REM
REM
REM
REM ./C.cell (28575a23ae977d3b5fae324c64b13b57)
REM
REM compiler GCC version 9.2.1 20190827 (Red Hat 9.2.1-1)
REM options -cpp -mtune=generic -march=x86-64 -g -O0 -fpre-include=/usr/include/finclude/math-vector-fortran.h
REM seed 1386530523 1397577078 1373528735 186199833 1934948799 545427511 590050358 -2146175251 -926003820 -808748028 -275827518 -860802476 933289871 1692374137 151867262 1326155625 -394620490 1950374564 1690379708 537789807 -166354324 992750767 1719812429 -1077438482 -1412706335 -1841444658 2005074786 -638446242 511699321 502576879 -1284702616 -711602961 1254059504
REM
CELL 1.54180   50.00000   50.00000   50.00000   90.00000   90.00000   90.00000
LATT -1
SFAC C  
C      1  0.4963650000000  0.5432550000000  0.4426440000000 1.0
C      1  0.5001690000000  0.4376930000000  0.4925190000000 1.0
C      1  0.4975540000000  0.5249600000000  0.5626070000000 1.0
C      1  0.5194640000000  0.4785870000000  0.4921290000000 1.0
C      1  0.5273210000000  0.5050680000000  0.5293660000000 1.0
C      1  0.5230990000000  0.5177130000000  0.4851620000000 1.0
C      1  0.4349850000000  0.4766510000000  0.4744780000000 1.0
C      1  0.4180400000000  0.4682980000000  0.5368580000000 1.0
C      1  0.4210480000000  0.5449330000000  0.4798800000000 1.0
C      1  0.5518200000000  0.5170880000000  0.5001230000000 1.0
C      1  0.5502920000000  0.4874160000000  0.4835420000000 1.0
C      1  0.5531030000000  0.4879280000000  0.5169760000000 1.0
C      1  0.5061590000000  0.5567200000000  0.5043800000000 1.0
C      1  0.4992000000000  0.4827500000000  0.4493510000000 1.0
C      1  0.5012140000000  0.4616830000000  0.5558230000000 1.0
C      1  0.5384120000000  0.5597970000000  0.4624350000000 1.0
C      1  0.5412480000000  0.4541080000000  0.4583300000000 1.0
C      1  0.5338350000000  0.5011540000000  0.5770880000000 1.0
C      1  0.4579840000000  0.4624490000000  0.5038630000000 1.0
C      1  0.4387210000000  0.5289200000000  0.5307590000000 1.0
C      1  0.4468350000000  0.5165970000000  0.4431200000000 1.0
C      1  0.4744160000000  0.4808590000000  0.5628460000000 1.0
C      1  0.4805330000000  0.5468110000000  0.4859300000000 1.0
C      1  0.4760740000000  0.4578910000000  0.4513220000000 1.0
C      1  0.5423900000000  0.4411030000000  0.5358960000000 1.0
C      1  0.5473660000000  0.5490380000000  0.5434250000000 1.0
C      1  0.5369230000000  0.5011980000000  0.4402280000000 1.0
C      1  0.4727650000000  0.4289270000000  0.4878380000000 1.0
C      1  0.4690950000000  0.5266520000000  0.5662960000000 1.0
C      1  0.4700700000000  0.5573290000000  0.4437720000000 1.0
C      1  0.4697050000000  0.5178880000000  0.5176690000000 1.0
C      1  0.4736350000000  0.5145100000000  0.4777860000000 1.0
C      1  0.4768610000000  0.4756330000000  0.5265240000000 1.0
C      1  0.5280970000000  0.4292410000000  0.5099910000000 1.0
C      1  0.5209340000000  0.5495960000000  0.5641570000000 1.0
C      1  0.5202850000000  0.5271490000000  0.4257700000000 1.0
C      1  0.5586900000000  0.5420110000000  0.5133520000000 1.0
C      1  0.5538250000000  0.4810700000000  0.4533640000000 1.0
C      1  0.5592400000000  0.4617550000000  0.5308870000000 1.0
C      1  0.5042220000000  0.4466790000000  0.5254320000000 1.0
C      1  0.5085600000000  0.5400780000000  0.5339530000000 1.0
C      1  0.4903270000000  0.5112130000000  0.4329750000000 1.0
C      1  0.4430010000000  0.4767870000000  0.5296700000000 1.0
C      1  0.4458460000000  0.5327390000000  0.4996980000000 1.0
C      1  0.4445420000000  0.5007550000000  0.4685760000000 1.0
C      1  0.5363520000000  0.5200550000000  0.5545210000000 1.0
C      1  0.5333860000000  0.5297980000000  0.4570350000000 1.0
C      1  0.5377720000000  0.4500950000000  0.4887180000000 1.0
C      1  0.5133690000000  0.4888460000000  0.4190440000000 1.0
C      1  0.5265200000000  0.4417070000000  0.5581320000000 1.0
C      1  0.5348240000000  0.5641710000000  0.5159910000000 1.0
C      1  0.5013800000000  0.5177730000000  0.5113910000000 1.0
C      1  0.4980770000000  0.4983410000000  0.4767320000000 1.0
C      1  0.5076300000000  0.4794850000000  0.5207330000000 1.0
C      1  0.5057860000000  0.4926250000000  0.5691580000000 1.0
C      1  0.5083460000000  0.5577700000000  0.4703650000000 1.0
C      1  0.5079130000000  0.4528110000000  0.4629360000000 1.0
C      1  0.4530050000000  0.5397990000000  0.4672080000000 1.0
C      1  0.4552530000000  0.4522620000000  0.4735990000000 1.0
C      1  0.4561170000000  0.5037830000000  0.5456500000000 1.0
END
