TITL C-27141-4733-46 -0.00179632309628579 125000 -357.229750153915 0 0 60 (C1) n - 1
REM
REM in /home/nfs/bkarasulu/CARBON/AIRSS/Generating-Clusters/AIREBO/Higher-Symm/Only-C60
REM
REM
REM
REM
REM
REM ./C.cell (28575a23ae977d3b5fae324c64b13b57)
REM
REM compiler GCC version 9.2.1 20190827 (Red Hat 9.2.1-1)
REM options -cpp -mtune=generic -march=x86-64 -g -O0 -fpre-include=/usr/include/finclude/math-vector-fortran.h
REM seed -975225223 923654413 -1684549920 1490524251 -2014089073 -1414698306 514127371 1843631844 -1788524594 -675932684 -1365397782 -1545243037 793958830 -584208953 1207621046 61922058 -208851271 -1188720138 -484954751 -1900009516 1980804388 185116336 46963127 -2097084530 1047721897 1021085361 1177116080 -989874734 -1028247923 687068214 1788774589 -50136812 982892373
REM
CELL 1.54180   50.00000   50.00000   50.00000   90.00000   90.00000   90.00000
LATT -1
SFAC C  
C      1  0.4633910000000  0.4263060000000  0.5133810000000 1.0
C      1  0.4617640000000  0.5272180000000  0.4292100000000 1.0
C      1  0.4596760000000  0.5497320000000  0.5585410000000 1.0
C      1  0.4641760000000  0.4262500000000  0.4880250000000 1.0
C      1  0.4608170000000  0.5277990000000  0.5713300000000 1.0
C      1  0.4621260000000  0.5490210000000  0.4422170000000 1.0
C      1  0.4860280000000  0.5277640000000  0.4865970000000 1.0
C      1  0.4867300000000  0.5028670000000  0.5318580000000 1.0
C      1  0.4883580000000  0.4749870000000  0.4846630000000 1.0
C      1  0.4828070000000  0.5272120000000  0.5159380000000 1.0
C      1  0.4860320000000  0.5020100000000  0.4688390000000 1.0
C      1  0.4863820000000  0.4752420000000  0.5167300000000 1.0
C      1  0.4656630000000  0.5491560000000  0.4729510000000 1.0
C      1  0.4658930000000  0.5013260000000  0.5562060000000 1.0
C      1  0.4678870000000  0.4527420000000  0.4727230000000 1.0
C      1  0.4629320000000  0.5498560000000  0.5277010000000 1.0
C      1  0.4657170000000  0.5005260000000  0.4442490000000 1.0
C      1  0.4662750000000  0.4528780000000  0.5288130000000 1.0
C      1  0.4484840000000  0.4763240000000  0.4863530000000 1.0
C      1  0.4462180000000  0.5247840000000  0.4861520000000 1.0
C      1  0.4469820000000  0.5006620000000  0.5282990000000 1.0
C      1  0.4466530000000  0.4762040000000  0.5146160000000 1.0
C      1  0.4432120000000  0.5255540000000  0.5143450000000 1.0
C      1  0.4463750000000  0.5001670000000  0.4719480000000 1.0
C      1  0.5572400000000  0.4729250000000  0.5149170000000 1.0
C      1  0.5573180000000  0.5006340000000  0.4700020000000 1.0
C      1  0.5599640000000  0.5267610000000  0.5166070000000 1.0
C      1  0.5589340000000  0.4745360000000  0.4848930000000 1.0
C      1  0.5569000000000  0.4973370000000  0.5310100000000 1.0
C      1  0.5562230000000  0.5260990000000  0.4833530000000 1.0
C      1  0.5345960000000  0.4949800000000  0.5533550000000 1.0
C      1  0.5421900000000  0.4515720000000  0.4684670000000 1.0
C      1  0.5338090000000  0.5484380000000  0.4765900000000 1.0
C      1  0.5376950000000  0.4980210000000  0.4441030000000 1.0
C      1  0.5343830000000  0.4515960000000  0.5282970000000 1.0
C      1  0.5348810000000  0.5488830000000  0.5244480000000 1.0
C      1  0.5215190000000  0.4185350000000  0.5620720000000 1.0
C      1  0.5199550000000  0.4936800000000  0.3983870000000 1.0
C      1  0.5175470000000  0.5852910000000  0.5495140000000 1.0
C      1  0.5197590000000  0.4161590000000  0.4415110000000 1.0
C      1  0.5197750000000  0.4984290000000  0.5994950000000 1.0
C      1  0.5195870000000  0.5890370000000  0.4540710000000 1.0
C      1  0.5146390000000  0.5667140000000  0.5300550000000 1.0
C      1  0.5162540000000  0.4407800000000  0.5478110000000 1.0
C      1  0.5165550000000  0.4903420000000  0.4249450000000 1.0
C      1  0.5149760000000  0.5688990000000  0.4713730000000 1.0
C      1  0.5175050000000  0.4406460000000  0.4529790000000 1.0
C      1  0.5154420000000  0.4919090000000  0.5737490000000 1.0
C      1  0.5177680000000  0.4962770000000  0.4679330000000 1.0
C      1  0.5281490000000  0.5199550000000  0.5111630000000 1.0
C      1  0.5176320000000  0.4705680000000  0.5113860000000 1.0
C      1  0.5173100000000  0.4981700000000  0.5268400000000 1.0
C      1  0.5165710000000  0.5225490000000  0.4839880000000 1.0
C      1  0.5196910000000  0.4685360000000  0.4814980000000 1.0
C      1  0.4907890000000  0.4556860000000  0.5512410000000 1.0
C      1  0.4915130000000  0.4799470000000  0.4360430000000 1.0
C      1  0.4897610000000  0.5663370000000  0.5148210000000 1.0
C      1  0.4920770000000  0.4553550000000  0.4500960000000 1.0
C      1  0.4904150000000  0.4804470000000  0.5646890000000 1.0
C      1  0.4900970000000  0.5673860000000  0.4866160000000 1.0
END
