TITL C-27142-7278-75 -0.00201354048317715 125000 -306.99728490309 0 0 60 (C1) n - 1
REM
REM in /home/nfs/bkarasulu/CARBON/AIRSS/Generating-Clusters/AIREBO/Higher-Symm/Only-C60
REM
REM
REM
REM
REM
REM ./C.cell (28575a23ae977d3b5fae324c64b13b57)
REM
REM compiler GCC version 9.2.1 20190827 (Red Hat 9.2.1-1)
REM options -cpp -mtune=generic -march=x86-64 -g -O0 -fpre-include=/usr/include/finclude/math-vector-fortran.h
REM seed -925728826 -953756401 1056710631 1396353078 -528858156 104876236 -1575156535 871200198 -192647557 485573872 1417473962 -200321040 -673787222 1109609560 1999081837 -1606052789 -730336826 -724054814 -1858177316 -1117723766 823707481 740576843 1297217346 -213305712 1716658586 -1584624732 -1808025145 1548643215 -552315782 432640107 -1619717719 845798202 -165442668
REM
CELL 1.54180   50.00000   50.00000   50.00000   90.00000   90.00000   90.00000
LATT -1
SFAC C  
C      1  0.4291320000000  0.4644100000000  0.4815010000000 1.0
C      1  0.5280430000000  0.4386020000000  0.4803230000000 1.0
C      1  0.5654330000000  0.5337830000000  0.4772480000000 1.0
C      1  0.4672620000000  0.5633440000000  0.4763040000000 1.0
C      1  0.5685320000000  0.4647390000000  0.5216170000000 1.0
C      1  0.4713980000000  0.4384040000000  0.5177320000000 1.0
C      1  0.4335740000000  0.5327620000000  0.5175080000000 1.0
C      1  0.5339120000000  0.5644640000000  0.5221590000000 1.0
C      1  0.5522950000000  0.5134260000000  0.4536890000000 1.0
C      1  0.4871020000000  0.5497710000000  0.4534800000000 1.0
C      1  0.4325440000000  0.4790440000000  0.4510010000000 1.0
C      1  0.5102930000000  0.4509950000000  0.4541000000000 1.0
C      1  0.4472440000000  0.5111920000000  0.5394950000000 1.0
C      1  0.5152970000000  0.5511040000000  0.5465090000000 1.0
C      1  0.5577220000000  0.4858280000000  0.5460170000000 1.0
C      1  0.4912250000000  0.4484520000000  0.5426510000000 1.0
C      1  0.4800400000000  0.4896350000000  0.4626290000000 1.0
C      1  0.5115780000000  0.4842260000000  0.4523080000000 1.0
C      1  0.5221600000000  0.5149120000000  0.4443390000000 1.0
C      1  0.4904510000000  0.5179540000000  0.4503010000000 1.0
C      1  0.5248030000000  0.4884430000000  0.5541380000000 1.0
C      1  0.4921210000000  0.4819740000000  0.5466350000000 1.0
C      1  0.4799940000000  0.5136010000000  0.5435790000000 1.0
C      1  0.5110970000000  0.5177210000000  0.5441330000000 1.0
C      1  0.4682990000000  0.5444690000000  0.5436590000000 1.0
C      1  0.4607330000000  0.4737700000000  0.5418880000000 1.0
C      1  0.5298180000000  0.4577270000000  0.5467350000000 1.0
C      1  0.5429570000000  0.5227550000000  0.5435610000000 1.0
C      1  0.5262180000000  0.5433650000000  0.4582630000000 1.0
C      1  0.5409160000000  0.4757540000000  0.4606870000000 1.0
C      1  0.4613800000000  0.4649160000000  0.4535850000000 1.0
C      1  0.4581210000000  0.5225250000000  0.4536750000000 1.0
C      1  0.5617720000000  0.5134850000000  0.5646620000000 1.0
C      1  0.4865710000000  0.5616040000000  0.5569030000000 1.0
C      1  0.4404510000000  0.4862500000000  0.5603490000000 1.0
C      1  0.5149740000000  0.4372570000000  0.5630300000000 1.0
C      1  0.4370600000000  0.5094390000000  0.4416690000000 1.0
C      1  0.5145640000000  0.5662950000000  0.4431510000000 1.0
C      1  0.5640640000000  0.4836010000000  0.4434810000000 1.0
C      1  0.4809710000000  0.4464210000000  0.4394920000000 1.0
C      1  0.5440870000000  0.4731190000000  0.4914340000000 1.0
C      1  0.5285680000000  0.5422120000000  0.4896790000000 1.0
C      1  0.4565290000000  0.5260050000000  0.4856810000000 1.0
C      1  0.4687180000000  0.4605820000000  0.4846310000000 1.0
C      1  0.4531370000000  0.4734250000000  0.5121890000000 1.0
C      1  0.4713700000000  0.5437980000000  0.5107420000000 1.0
C      1  0.5486290000000  0.5272720000000  0.5129550000000 1.0
C      1  0.5302670000000  0.4546900000000  0.5167920000000 1.0
C      1  0.5636240000000  0.4976170000000  0.5160020000000 1.0
C      1  0.5020580000000  0.5567790000000  0.5157760000000 1.0
C      1  0.4367270000000  0.5008700000000  0.5095350000000 1.0
C      1  0.5044550000000  0.4394570000000  0.5126300000000 1.0
C      1  0.4457920000000  0.4938680000000  0.4786180000000 1.0
C      1  0.4985500000000  0.5562980000000  0.4840920000000 1.0
C      1  0.5596940000000  0.5018270000000  0.4844180000000 1.0
C      1  0.4948930000000  0.4461470000000  0.4835280000000 1.0
C      1  0.5560110000000  0.4422740000000  0.4993420000000 1.0
C      1  0.4430040000000  0.5554350000000  0.4960320000000 1.0
C      1  0.5573170000000  0.5571750000000  0.4999770000000 1.0
C      1  0.4444510000000  0.4427300000000  0.5004120000000 1.0
END
