TITL C-27141-4733-135 -0.00132046889914496 125000 -306.627310293932 0 0 60 (C1) n - 1
REM
REM in /home/nfs/bkarasulu/CARBON/AIRSS/Generating-Clusters/AIREBO/Higher-Symm/Only-C60
REM
REM
REM
REM
REM
REM ./C.cell (28575a23ae977d3b5fae324c64b13b57)
REM
REM compiler GCC version 9.2.1 20190827 (Red Hat 9.2.1-1)
REM options -cpp -mtune=generic -march=x86-64 -g -O0 -fpre-include=/usr/include/finclude/math-vector-fortran.h
REM seed -1682748207 1205932758 430498989 354709218 1096552741 481727670 -1683238904 -1485786460 -351264569 1322274365 1364047393 317115427 -829617367 743136620 -599569584 660812288 1210035797 1234847791 -207216826 1340340699 -768386847 -453665462 382070990 -149328384 -1991981918 -303253258 -1965156061 1793839637 -2071628625 1480532918 -11855800 -685816526 -364604991
REM
CELL 1.54180   50.00000   50.00000   50.00000   90.00000   90.00000   90.00000
LATT -1
SFAC C  
C      1  0.5155830000000  0.5489320000000  0.5504560000000 1.0
C      1  0.5120400000000  0.5588950000000  0.4514950000000 1.0
C      1  0.5130430000000  0.4546860000000  0.4406460000000 1.0
C      1  0.5110120000000  0.4436840000000  0.5517010000000 1.0
C      1  0.4852880000000  0.5444860000000  0.5576290000000 1.0
C      1  0.4793470000000  0.5598370000000  0.4474210000000 1.0
C      1  0.4816290000000  0.4596300000000  0.4413420000000 1.0
C      1  0.4775130000000  0.4445650000000  0.5505630000000 1.0
C      1  0.4547390000000  0.5101610000000  0.4721950000000 1.0
C      1  0.4493970000000  0.4730570000000  0.4858830000000 1.0
C      1  0.4520170000000  0.4788100000000  0.5257580000000 1.0
C      1  0.4518560000000  0.5245530000000  0.5168080000000 1.0
C      1  0.5428630000000  0.5161430000000  0.4717890000000 1.0
C      1  0.5455710000000  0.4760590000000  0.4820870000000 1.0
C      1  0.5448300000000  0.4813350000000  0.5236980000000 1.0
C      1  0.5434070000000  0.5263130000000  0.5187950000000 1.0
C      1  0.5359660000000  0.4750020000000  0.4528080000000 1.0
C      1  0.5302670000000  0.4505360000000  0.5260610000000 1.0
C      1  0.5295160000000  0.5248100000000  0.5457410000000 1.0
C      1  0.5341800000000  0.5466590000000  0.4735960000000 1.0
C      1  0.4546220000000  0.4733310000000  0.4542280000000 1.0
C      1  0.4626150000000  0.4492810000000  0.5245500000000 1.0
C      1  0.4592830000000  0.5241300000000  0.5494570000000 1.0
C      1  0.4566960000000  0.5534530000000  0.4719650000000 1.0
C      1  0.5298360000000  0.4717630000000  0.5526740000000 1.0
C      1  0.5239440000000  0.5674100000000  0.5316170000000 1.0
C      1  0.5302330000000  0.5352970000000  0.4391370000000 1.0
C      1  0.5232080000000  0.4455260000000  0.4700960000000 1.0
C      1  0.4668450000000  0.4687400000000  0.5683880000000 1.0
C      1  0.4657030000000  0.5521810000000  0.5309830000000 1.0
C      1  0.4650050000000  0.5303950000000  0.4481390000000 1.0
C      1  0.4656010000000  0.4427310000000  0.4661390000000 1.0
C      1  0.4741650000000  0.4985410000000  0.4466980000000 1.0
C      1  0.4595680000000  0.4438110000000  0.4963550000000 1.0
C      1  0.4660350000000  0.4944480000000  0.5496140000000 1.0
C      1  0.4716930000000  0.5553750000000  0.5008150000000 1.0
C      1  0.5274450000000  0.5046510000000  0.4448000000000 1.0
C      1  0.5208590000000  0.4612430000000  0.4987740000000 1.0
C      1  0.5144540000000  0.4980630000000  0.5513770000000 1.0
C      1  0.5290900000000  0.5520470000000  0.5038910000000 1.0
C      1  0.4247400000000  0.5289090000000  0.5085650000000 1.0
C      1  0.4251390000000  0.5060160000000  0.4758830000000 1.0
C      1  0.4176220000000  0.4761810000000  0.4869730000000 1.0
C      1  0.4207160000000  0.4815390000000  0.5262800000000 1.0
C      1  0.5744250000000  0.5252440000000  0.5195030000000 1.0
C      1  0.5718770000000  0.5122080000000  0.4710480000000 1.0
C      1  0.5738370000000  0.4752140000000  0.4859240000000 1.0
C      1  0.5732770000000  0.4857110000000  0.5243240000000 1.0
C      1  0.4978130000000  0.5111640000000  0.4995830000000 1.0
C      1  0.4963670000000  0.4777800000000  0.5009490000000 1.0
C      1  0.4918930000000  0.4915820000000  0.5317210000000 1.0
C      1  0.5001290000000  0.5402770000000  0.4957010000000 1.0
C      1  0.5008830000000  0.5192530000000  0.5728550000000 1.0
C      1  0.4932700000000  0.5679840000000  0.4776860000000 1.0
C      1  0.5017680000000  0.4875020000000  0.4368500000000 1.0
C      1  0.4948900000000  0.4192490000000  0.5652070000000 1.0
C      1  0.4665510000000  0.4978790000000  0.5016280000000 1.0
C      1  0.5308200000000  0.5010680000000  0.4998020000000 1.0
C      1  0.4072090000000  0.5025790000000  0.5050010000000 1.0
C      1  0.5870050000000  0.5035170000000  0.4988150000000 1.0
END
