TITL C-27145-253-25 -0.00055849687591751 125000 -302.313054408447 0 0 60 (C1) n - 1
REM
REM in /home/nfs/bkarasulu/CARBON/AIRSS/Generating-Clusters/AIREBO/Higher-Symm/Only-C60
REM
REM
REM
REM
REM
REM ./C.cell (28575a23ae977d3b5fae324c64b13b57)
REM
REM compiler GCC version 9.2.1 20190827 (Red Hat 9.2.1-1)
REM options -cpp -mtune=generic -march=x86-64 -g -O0 -fpre-include=/usr/include/finclude/math-vector-fortran.h
REM seed -1444375756 -1973168899 -1969676124 -2087716111 1761109217 228566563 2108683952 765448579 -633024835 1765689681 -1181048046 -773466450 318324854 982311722 -849919400 970126138 -284073089 -324796777 -2001993558 632935170 -783933510 -232106377 -1890349500 -82919625 -379165323 -878950946 1011281170 1462262814 -1831142280 -102624822 180901512 178158398 -556428961
REM
CELL 1.54180   50.00000   50.00000   50.00000   90.00000   90.00000   90.00000
LATT -1
SFAC C  
C      1  0.4433280000000  0.4666840000000  0.5030310000000 1.0
C      1  0.4404360000000  0.4763240000000  0.4758440000000 1.0
C      1  0.4268120000000  0.5000440000000  0.4705050000000 1.0
C      1  0.4400290000000  0.5224420000000  0.4807170000000 1.0
C      1  0.4372730000000  0.5272700000000  0.5096500000000 1.0
C      1  0.4267660000000  0.5075540000000  0.5262040000000 1.0
C      1  0.4357440000000  0.4810400000000  0.5275320000000 1.0
C      1  0.4630790000000  0.5646570000000  0.4662490000000 1.0
C      1  0.4733630000000  0.5678950000000  0.5302090000000 1.0
C      1  0.4734430000000  0.5200420000000  0.5640510000000 1.0
C      1  0.4705970000000  0.4604220000000  0.5646330000000 1.0
C      1  0.4748920000000  0.4270110000000  0.5111160000000 1.0
C      1  0.4606510000000  0.4425170000000  0.4464240000000 1.0
C      1  0.4664740000000  0.5075190000000  0.4327960000000 1.0
C      1  0.5197540000000  0.5508870000000  0.4709290000000 1.0
C      1  0.5266140000000  0.5730490000000  0.5128710000000 1.0
C      1  0.5289890000000  0.5416090000000  0.5638840000000 1.0
C      1  0.5276600000000  0.4720310000000  0.5584770000000 1.0
C      1  0.5277620000000  0.4181730000000  0.4977400000000 1.0
C      1  0.5182720000000  0.4535530000000  0.4576520000000 1.0
C      1  0.5259870000000  0.5078490000000  0.4341330000000 1.0
C      1  0.5747200000000  0.5278440000000  0.4899650000000 1.0
C      1  0.5803500000000  0.5267040000000  0.5174530000000 1.0
C      1  0.5642390000000  0.5118360000000  0.5354950000000 1.0
C      1  0.5676120000000  0.4793340000000  0.5342360000000 1.0
C      1  0.5658020000000  0.4569860000000  0.5074190000000 1.0
C      1  0.5808850000000  0.4770220000000  0.4838150000000 1.0
C      1  0.5721890000000  0.5043570000000  0.4720480000000 1.0
C      1  0.5017250000000  0.5280880000000  0.5479480000000 1.0
C      1  0.4970390000000  0.4760230000000  0.5494330000000 1.0
C      1  0.5026850000000  0.4411350000000  0.4975360000000 1.0
C      1  0.4923810000000  0.4516750000000  0.4528340000000 1.0
C      1  0.4992610000000  0.5062660000000  0.4357220000000 1.0
C      1  0.4938000000000  0.5530180000000  0.4676480000000 1.0
C      1  0.4975790000000  0.5555830000000  0.5097050000000 1.0
C      1  0.4581360000000  0.5387650000000  0.4438090000000 1.0
C      1  0.4591230000000  0.5718550000000  0.4992650000000 1.0
C      1  0.4689690000000  0.5502610000000  0.5530040000000 1.0
C      1  0.4676650000000  0.4939840000000  0.5696150000000 1.0
C      1  0.4680050000000  0.4413650000000  0.5351040000000 1.0
C      1  0.4673420000000  0.4346950000000  0.4788520000000 1.0
C      1  0.4571840000000  0.4746910000000  0.4338940000000 1.0
C      1  0.4770230000000  0.4633890000000  0.4957000000000 1.0
C      1  0.4716510000000  0.4759490000000  0.4645550000000 1.0
C      1  0.4888600000000  0.5027860000000  0.4653740000000 1.0
C      1  0.4727780000000  0.5266470000000  0.4720050000000 1.0
C      1  0.4683900000000  0.5393780000000  0.5032240000000 1.0
C      1  0.4819390000000  0.5203190000000  0.5251940000000 1.0
C      1  0.4665740000000  0.4753310000000  0.5343360000000 1.0
C      1  0.5345340000000  0.4763260000000  0.4734930000000 1.0
C      1  0.5426640000000  0.5032890000000  0.4598930000000 1.0
C      1  0.5433590000000  0.5308060000000  0.4802280000000 1.0
C      1  0.5280990000000  0.5406310000000  0.5086580000000 1.0
C      1  0.5331440000000  0.5218120000000  0.5365440000000 1.0
C      1  0.5214810000000  0.4922150000000  0.5337650000000 1.0
C      1  0.5358830000000  0.4486480000000  0.4932290000000 1.0
C      1  0.4794650000000  0.4943610000000  0.5127590000000 1.0
C      1  0.5257470000000  0.4851470000000  0.5051390000000 1.0
C      1  0.5001020000000  0.4877250000000  0.4899450000000 1.0
C      1  0.5563640000000  0.4878350000000  0.5046880000000 1.0
END
