TITL C-27131-4585-1 -49.6475874938565 125000 -297.805681830684 0 0 60 (C1) n - 1
REM
REM in /home/nfs/bkarasulu/CARBON/AIRSS/Generating-Clusters/AIREBO/Higher-Symm/Only-C60
REM
REM
REM
REM
REM
REM ./C.cell (28575a23ae977d3b5fae324c64b13b57)
REM
REM compiler GCC version 9.2.1 20190827 (Red Hat 9.2.1-1)
REM options -cpp -mtune=generic -march=x86-64 -g -O0 -fpre-include=/usr/include/finclude/math-vector-fortran.h
REM seed 1877931762 -591627151 969586649 516361298 -1858137555 -484544942 -358004431 816898658 -2090027245 -874401212 -1950904741 1395843286 232496066 -409755298 1218437287 391167451 -890202588 791593247 -820152105 1826202436 1324561816 -1755979522 1189083845 592782598 -1400872806 530736453 1562255917 2074681019 1921403709 1798223979 -321518035 55818956 1351362360
REM
CELL 1.54180   50.00000   50.00000   50.00000   90.00000   90.00000   90.00000
LATT -1
SFAC C  
C      1  0.4455550000000  0.5106410000000  0.5346950000000 1.0
C      1  0.5530380000000  0.5022950000000  0.4704890000000 1.0
C      1  0.5536570000000  0.5100490000000  0.5360610000000 1.0
C      1  0.4478640000000  0.5031850000000  0.4692490000000 1.0
C      1  0.4720160000000  0.4370520000000  0.5157740000000 1.0
C      1  0.5352740000000  0.4573690000000  0.5345470000000 1.0
C      1  0.5287280000000  0.4352800000000  0.5131320000000 1.0
C      1  0.4645140000000  0.4567290000000  0.5388370000000 1.0
C      1  0.5341470000000  0.4944590000000  0.4562140000000 1.0
C      1  0.4655620000000  0.5091570000000  0.5495230000000 1.0
C      1  0.4664920000000  0.4950250000000  0.4548240000000 1.0
C      1  0.5334810000000  0.5093260000000  0.5506870000000 1.0
C      1  0.4998530000000  0.4978540000000  0.4221890000000 1.0
C      1  0.4981220000000  0.5223660000000  0.5799360000000 1.0
C      1  0.5022740000000  0.5500770000000  0.5787970000000 1.0
C      1  0.5007130000000  0.5248940000000  0.4340570000000 1.0
C      1  0.4931030000000  0.4415620000000  0.4637960000000 1.0
C      1  0.5067660000000  0.4586010000000  0.5625110000000 1.0
C      1  0.4983370000000  0.5690400000000  0.5591590000000 1.0
C      1  0.4982060000000  0.5545070000000  0.4391280000000 1.0
C      1  0.4999780000000  0.4744260000000  0.5424610000000 1.0
C      1  0.4967560000000  0.4646520000000  0.4763740000000 1.0
C      1  0.4464570000000  0.5149600000000  0.5009790000000 1.0
C      1  0.5538150000000  0.5142260000000  0.5023170000000 1.0
C      1  0.5322210000000  0.4883100000000  0.5065780000000 1.0
C      1  0.4674870000000  0.4888400000000  0.5066060000000 1.0
C      1  0.5039510000000  0.4843450000000  0.3994300000000 1.0
C      1  0.4923940000000  0.5071690000000  0.6019310000000 1.0
C      1  0.5029770000000  0.5642430000000  0.4642220000000 1.0
C      1  0.5007540000000  0.5617230000000  0.5325880000000 1.0
C      1  0.5002870000000  0.4913380000000  0.4558120000000 1.0
C      1  0.4995290000000  0.5076050000000  0.5499290000000 1.0
C      1  0.4701720000000  0.5363840000000  0.5016300000000 1.0
C      1  0.5305470000000  0.5355710000000  0.5010250000000 1.0
C      1  0.4979410000000  0.5240280000000  0.4648600000000 1.0
C      1  0.4995920000000  0.5329270000000  0.5284300000000 1.0
C      1  0.5663580000000  0.4580150000000  0.4834100000000 1.0
C      1  0.4294390000000  0.4584910000000  0.4920690000000 1.0
C      1  0.5759450000000  0.5400260000000  0.5013180000000 1.0
C      1  0.4247450000000  0.5410290000000  0.4986220000000 1.0
C      1  0.5635870000000  0.5654430000000  0.4994560000000 1.0
C      1  0.4371900000000  0.5663130000000  0.4963850000000 1.0
C      1  0.4516470000000  0.4619370000000  0.5075920000000 1.0
C      1  0.5471100000000  0.4607460000000  0.5024780000000 1.0
C      1  0.4656010000000  0.5648520000000  0.4974590000000 1.0
C      1  0.5349950000000  0.5642110000000  0.4989840000000 1.0
C      1  0.5002820000000  0.3764320000000  0.4853050000000 1.0
C      1  0.5024520000000  0.6493900000000  0.4999710000000 1.0
C      1  0.5071710000000  0.3025010000000  0.4572110000000 1.0
C      1  0.5037510000000  0.6755610000000  0.4993330000000 1.0
C      1  0.4992170000000  0.4307360000000  0.5024490000000 1.0
C      1  0.5011430000000  0.4638250000000  0.5101100000000 1.0
C      1  0.5024330000000  0.5964340000000  0.4991510000000 1.0
C      1  0.5022350000000  0.6228090000000  0.4982650000000 1.0
C      1  0.4993230000000  0.4961320000000  0.5029590000000 1.0
C      1  0.5005390000000  0.5286580000000  0.4947820000000 1.0
C      1  0.5027030000000  0.3512530000000  0.4769590000000 1.0
C      1  0.5003170000000  0.4011770000000  0.4944890000000 1.0
C      1  0.5037940000000  0.3267950000000  0.4664570000000 1.0
C      1  0.5002400000000  0.5625150000000  0.4980790000000 1.0
END
