TITL C-27133-8107-159 -0.00371757416877268 125000 -341.748375759472 0 0 60 (C1) n - 1
REM
REM in /home/nfs/bkarasulu/CARBON/AIRSS/Generating-Clusters/AIREBO/Higher-Symm/Only-C60
REM
REM
REM
REM
REM
REM ./C.cell (28575a23ae977d3b5fae324c64b13b57)
REM
REM compiler GCC version 9.2.1 20190827 (Red Hat 9.2.1-1)
REM options -cpp -mtune=generic -march=x86-64 -g -O0 -fpre-include=/usr/include/finclude/math-vector-fortran.h
REM seed 506308578 809955544 558564381 1307763428 -1198762000 1391394922 159232455 1365653753 960605711 -1587201348 -1576096974 1492696378 538570214 829029651 -1020468869 -1180782657 -1164062760 -746406895 1389403371 -1050023468 -1607967161 56870224 -601830224 -1854335415 -1468544833 -2048702168 1772706953 -1013325691 725468154 -608885841 552166134 -1693146251 -620809618
REM
CELL 1.54180   50.00000   50.00000   50.00000   90.00000   90.00000   90.00000
LATT -1
SFAC C  
C      1  0.4713240000000  0.4721080000000  0.4428500000000 1.0
C      1  0.5591070000000  0.4903480000000  0.5211390000000 1.0
C      1  0.4796470000000  0.4365460000000  0.5510840000000 1.0
C      1  0.5264500000000  0.5117410000000  0.4794750000000 1.0
C      1  0.4826650000000  0.5081790000000  0.5426750000000 1.0
C      1  0.5310790000000  0.4904380000000  0.5614100000000 1.0
C      1  0.4705790000000  0.4526000000000  0.4655980000000 1.0
C      1  0.5248210000000  0.4794840000000  0.4139220000000 1.0
C      1  0.4907050000000  0.4708130000000  0.5106510000000 1.0
C      1  0.4762830000000  0.5184030000000  0.4272180000000 1.0
C      1  0.4786990000000  0.4792990000000  0.5368160000000 1.0
C      1  0.5012010000000  0.4410420000000  0.5058710000000 1.0
C      1  0.5176430000000  0.4569500000000  0.4605140000000 1.0
C      1  0.5108700000000  0.5785980000000  0.5172330000000 1.0
C      1  0.5122100000000  0.5038720000000  0.5891450000000 1.0
C      1  0.5506960000000  0.5380070000000  0.5590010000000 1.0
C      1  0.5022170000000  0.5457810000000  0.5151530000000 1.0
C      1  0.5470950000000  0.4766750000000  0.5414150000000 1.0
C      1  0.4748330000000  0.4361950000000  0.5228320000000 1.0
C      1  0.5012670000000  0.5303350000000  0.5771150000000 1.0
C      1  0.5006790000000  0.4965230000000  0.4689960000000 1.0
C      1  0.4505000000000  0.4905020000000  0.4856750000000 1.0
C      1  0.5412330000000  0.4613590000000  0.4754540000000 1.0
C      1  0.4589370000000  0.4993960000000  0.4399510000000 1.0
C      1  0.5033720000000  0.4784660000000  0.4403110000000 1.0
C      1  0.4966200000000  0.4439670000000  0.4743650000000 1.0
C      1  0.4462540000000  0.4774790000000  0.5310230000000 1.0
C      1  0.5032460000000  0.5321670000000  0.4869260000000 1.0
C      1  0.5406710000000  0.4495580000000  0.5367870000000 1.0
C      1  0.5061570000000  0.4753400000000  0.5756820000000 1.0
C      1  0.4852400000000  0.5497100000000  0.4647500000000 1.0
C      1  0.5465610000000  0.4883230000000  0.4895280000000 1.0
C      1  0.5028160000000  0.5067200000000  0.4213900000000 1.0
C      1  0.4389140000000  0.5313110000000  0.4863410000000 1.0
C      1  0.4787150000000  0.5409310000000  0.5651430000000 1.0
C      1  0.5497200000000  0.5119400000000  0.4575630000000 1.0
C      1  0.4830450000000  0.4857510000000  0.4882510000000 1.0
C      1  0.4877140000000  0.4624780000000  0.5604740000000 1.0
C      1  0.4362720000000  0.5022870000000  0.5499830000000 1.0
C      1  0.5736050000000  0.5069930000000  0.4982510000000 1.0
C      1  0.4533310000000  0.4518650000000  0.5134510000000 1.0
C      1  0.5473770000000  0.4389280000000  0.4915210000000 1.0
C      1  0.4578470000000  0.5199880000000  0.5545310000000 1.0
C      1  0.4528810000000  0.4596180000000  0.4864590000000 1.0
C      1  0.4735810000000  0.5499810000000  0.5332530000000 1.0
C      1  0.4620510000000  0.5556870000000  0.4843940000000 1.0
C      1  0.5044230000000  0.5249120000000  0.5377120000000 1.0
C      1  0.4847340000000  0.5797710000000  0.5264630000000 1.0
C      1  0.5302830000000  0.5265820000000  0.4259340000000 1.0
C      1  0.4478490000000  0.5392480000000  0.5188050000000 1.0
C      1  0.4716420000000  0.5237710000000  0.4916710000000 1.0
C      1  0.4528500000000  0.5060470000000  0.5137930000000 1.0
C      1  0.5505450000000  0.5449760000000  0.4352290000000 1.0
C      1  0.4782110000000  0.5441010000000  0.4383790000000 1.0
C      1  0.5302410000000  0.4368820000000  0.5139080000000 1.0
C      1  0.5837360000000  0.5277920000000  0.4823210000000 1.0
C      1  0.5383010000000  0.4967180000000  0.4359340000000 1.0
C      1  0.4435860000000  0.5079900000000  0.4619150000000 1.0
C      1  0.5280380000000  0.5222100000000  0.5577850000000 1.0
C      1  0.5688320000000  0.5343170000000  0.4585880000000 1.0
END
