TITL C-27132-7279-212 -664.78900883055 125000 -198.780115182598 0 0 60 (Th) n - 1
REM
REM in /home/nfs/bkarasulu/CARBON/AIRSS/Generating-Clusters/AIREBO/Higher-Symm/Only-C60
REM
REM
REM
REM
REM
REM ./C.cell (28575a23ae977d3b5fae324c64b13b57)
REM
REM compiler GCC version 9.2.1 20190827 (Red Hat 9.2.1-1)
REM options -cpp -mtune=generic -march=x86-64 -g -O0 -fpre-include=/usr/include/finclude/math-vector-fortran.h
REM seed 1562031048 -1903694844 1496031990 2111213794 -1380456481 -1375841751 773025628 -1487046593 1861722237 469868266 -1186557549 -233563557 -10139109 1408080319 -604295627 -1479616620 253592859 402158992 1234621346 342688033 -2112710866 1395728922 1146112725 -96268507 -403062816 302372484 -1647337232 282157714 -422899800 -142952844 289970467 1492693739 554604833
REM
CELL 1.54180   50.00000   50.00000   50.00000   90.00000   90.00000   90.00000
LATT -1
SFAC C  
C      1  0.5288610000000  0.5443060000000  0.4833920000000 1.0
C      1  0.4834430000000  0.5289020000000  0.5443310000000 1.0
C      1  0.5443530000000  0.4834090000000  0.5288970000000 1.0
C      1  0.4711360000000  0.5443040000000  0.5166090000000 1.0
C      1  0.5288680000000  0.4556220000000  0.5165810000000 1.0
C      1  0.4711330000000  0.4556220000000  0.4834150000000 1.0
C      1  0.5165540000000  0.5289040000000  0.4556700000000 1.0
C      1  0.4833980000000  0.4711320000000  0.4557370000000 1.0
C      1  0.5165990000000  0.4711290000000  0.5442600000000 1.0
C      1  0.4556450000000  0.4834090000000  0.4711030000000 1.0
C      1  0.5443390000000  0.5165930000000  0.4711620000000 1.0
C      1  0.4556580000000  0.5165910000000  0.5288380000000 1.0
C      1  0.5288640000000  0.4556310000000  0.4834170000000 1.0
C      1  0.4834010000000  0.4711490000000  0.5442530000000 1.0
C      1  0.5443730000000  0.5165780000000  0.5289090000000 1.0
C      1  0.4711350000000  0.4556310000000  0.5165790000000 1.0
C      1  0.5288650000000  0.5443430000000  0.5165720000000 1.0
C      1  0.4711320000000  0.5443430000000  0.4834280000000 1.0
C      1  0.5165960000000  0.4711490000000  0.4557450000000 1.0
C      1  0.4833700000000  0.5288660000000  0.4557180000000 1.0
C      1  0.5166260000000  0.5288650000000  0.5442810000000 1.0
C      1  0.4556240000000  0.5165780000000  0.4710900000000 1.0
C      1  0.5443450000000  0.4834280000000  0.4711180000000 1.0
C      1  0.4556520000000  0.4834250000000  0.5288800000000 1.0
C      1  0.5159310000000  0.4378180000000  0.5511750000000 1.0
C      1  0.5511650000000  0.5159510000000  0.4378550000000 1.0
C      1  0.4378160000000  0.5511730000000  0.5159230000000 1.0
C      1  0.4840830000000  0.4378450000000  0.4488150000000 1.0
C      1  0.5159180000000  0.5622280000000  0.4488140000000 1.0
C      1  0.4840940000000  0.5622020000000  0.5511950000000 1.0
C      1  0.4488410000000  0.5159640000000  0.5621700000000 1.0
C      1  0.5511840000000  0.4840540000000  0.5622040000000 1.0
C      1  0.4488150000000  0.4840550000000  0.4377960000000 1.0
C      1  0.5621810000000  0.5511740000000  0.4840770000000 1.0
C      1  0.4378240000000  0.4488060000000  0.4840820000000 1.0
C      1  0.5622020000000  0.4488140000000  0.5159310000000 1.0
C      1  0.5159610000000  0.5621840000000  0.5511570000000 1.0
C      1  0.5511730000000  0.4840860000000  0.4377890000000 1.0
C      1  0.4378020000000  0.4488220000000  0.5159380000000 1.0
C      1  0.4840510000000  0.5621610000000  0.4488350000000 1.0
C      1  0.5159470000000  0.4378380000000  0.4488290000000 1.0
C      1  0.4840680000000  0.4378620000000  0.5511760000000 1.0
C      1  0.4488180000000  0.4840990000000  0.5621850000000 1.0
C      1  0.5511860000000  0.5159210000000  0.5622420000000 1.0
C      1  0.4488110000000  0.5159220000000  0.4377580000000 1.0
C      1  0.5621740000000  0.4488160000000  0.4840750000000 1.0
C      1  0.4378310000000  0.5511990000000  0.4840700000000 1.0
C      1  0.5621660000000  0.5511990000000  0.5159300000000 1.0
C      1  0.4999990000000  0.4377490000000  0.5183630000000 1.0
C      1  0.5183520000000  0.5000050000000  0.4378460000000 1.0
C      1  0.4377740000000  0.5183580000000  0.4999740000000 1.0
C      1  0.5000010000000  0.4377470000000  0.4816340000000 1.0
C      1  0.5000070000000  0.5622070000000  0.4816360000000 1.0
C      1  0.4999890000000  0.5622060000000  0.5183650000000 1.0
C      1  0.4816460000000  0.5000030000000  0.5621540000000 1.0
C      1  0.5183710000000  0.4999900000000  0.5621480000000 1.0
C      1  0.4816280000000  0.4999920000000  0.4378480000000 1.0
C      1  0.5622240000000  0.5183590000000  0.5000260000000 1.0
C      1  0.4378050000000  0.4816420000000  0.4999940000000 1.0
C      1  0.5621900000000  0.4816430000000  0.5000050000000 1.0
END
