TITL C-27138-9601-140 -0.00017646176594068 125000 -288.833164264431 0 0 60 (C1) n - 1
REM
REM in /home/nfs/bkarasulu/CARBON/AIRSS/Generating-Clusters/AIREBO/Higher-Symm/Only-C60
REM
REM
REM
REM
REM
REM ./C.cell (28575a23ae977d3b5fae324c64b13b57)
REM
REM compiler GCC version 9.2.1 20190827 (Red Hat 9.2.1-1)
REM options -cpp -mtune=generic -march=x86-64 -g -O0 -fpre-include=/usr/include/finclude/math-vector-fortran.h
REM seed 1038027827 -1486233226 1611844900 614623521 -1477710653 -645606881 -1895344412 -7771009 1096112271 -732275235 -453034826 -544930791 1374576066 -1443706335 -376221952 -1389949681 1876932044 1538925457 1122198846 -423002992 347753143 -1917676795 1566453232 1360326044 -1046464217 184253913 898259701 1896987530 1590824097 1435966347 731815651 1071868232 -1202485176
REM
CELL 1.54180   50.00000   50.00000   50.00000   90.00000   90.00000   90.00000
LATT -1
SFAC C  
C      1  0.4738080000000  0.5210780000000  0.5437710000000 1.0
C      1  0.4647920000000  0.4659770000000  0.5375160000000 1.0
C      1  0.5353450000000  0.4767550000000  0.5417940000000 1.0
C      1  0.5290280000000  0.5395730000000  0.5393820000000 1.0
C      1  0.5339010000000  0.5245740000000  0.4599410000000 1.0
C      1  0.5244020000000  0.4672110000000  0.4620150000000 1.0
C      1  0.4661940000000  0.4751720000000  0.4594810000000 1.0
C      1  0.4757700000000  0.5323400000000  0.4619920000000 1.0
C      1  0.4881880000000  0.5310660000000  0.4937490000000 1.0
C      1  0.4676890000000  0.4876540000000  0.4913060000000 1.0
C      1  0.5115800000000  0.4686900000000  0.4936480000000 1.0
C      1  0.5322870000000  0.5128790000000  0.4921150000000 1.0
C      1  0.5177090000000  0.5324350000000  0.5081180000000 1.0
C      1  0.5302560000000  0.4851010000000  0.5092540000000 1.0
C      1  0.4814740000000  0.4681690000000  0.5089320000000 1.0
C      1  0.4701160000000  0.5134890000000  0.5108270000000 1.0
C      1  0.5682400000000  0.4738110000000  0.5142340000000 1.0
C      1  0.5281720000000  0.5704930000000  0.5129330000000 1.0
C      1  0.4296310000000  0.5282890000000  0.5130170000000 1.0
C      1  0.4714720000000  0.4299670000000  0.5131600000000 1.0
C      1  0.4365800000000  0.4677730000000  0.4744690000000 1.0
C      1  0.4682950000000  0.5616360000000  0.4775630000000 1.0
C      1  0.5631280000000  0.5321650000000  0.4755820000000 1.0
C      1  0.5314110000000  0.4378620000000  0.4776980000000 1.0
C      1  0.5006180000000  0.5592680000000  0.5193870000000 1.0
C      1  0.4390990000000  0.5013450000000  0.5156240000000 1.0
C      1  0.4986740000000  0.4419660000000  0.5202750000000 1.0
C      1  0.5583650000000  0.5010160000000  0.5198660000000 1.0
C      1  0.5020530000000  0.5575840000000  0.4775920000000 1.0
C      1  0.5588880000000  0.4984450000000  0.4766190000000 1.0
C      1  0.4978340000000  0.4420800000000  0.4775470000000 1.0
C      1  0.4409740000000  0.5014640000000  0.4757380000000 1.0
C      1  0.4397800000000  0.4739700000000  0.5200110000000 1.0
C      1  0.5254250000000  0.4490300000000  0.5256020000000 1.0
C      1  0.5545000000000  0.5282390000000  0.5231610000000 1.0
C      1  0.4747060000000  0.5501290000000  0.5261070000000 1.0
C      1  0.5552640000000  0.4705230000000  0.4766260000000 1.0
C      1  0.4701690000000  0.4456670000000  0.4764480000000 1.0
C      1  0.4446750000000  0.5294890000000  0.4760740000000 1.0
C      1  0.5297570000000  0.5541540000000  0.4765930000000 1.0
C      1  0.5337590000000  0.5612450000000  0.5556370000000 1.0
C      1  0.4590990000000  0.5335560000000  0.5670740000000 1.0
C      1  0.4623320000000  0.4412600000000  0.5503830000000 1.0
C      1  0.5606130000000  0.4735150000000  0.5534750000000 1.0
C      1  0.4616340000000  0.5575060000000  0.4439940000000 1.0
C      1  0.5592740000000  0.5383040000000  0.4419210000000 1.0
C      1  0.5388590000000  0.4419990000000  0.4443370000000 1.0
C      1  0.4411760000000  0.4615020000000  0.4409270000000 1.0
C      1  0.4726480000000  0.4887990000000  0.5550930000000 1.0
C      1  0.4944720000000  0.4831980000000  0.5709120000000 1.0
C      1  0.5166040000000  0.4940940000000  0.5576920000000 1.0
C      1  0.5077460000000  0.5189440000000  0.5468200000000 1.0
C      1  0.5206460000000  0.4967440000000  0.4455730000000 1.0
C      1  0.4961610000000  0.4720600000000  0.4436990000000 1.0
C      1  0.4801570000000  0.5028850000000  0.4455640000000 1.0
C      1  0.5040630000000  0.5272220000000  0.4438320000000 1.0
C      1  0.4531110000000  0.5487580000000  0.5028040000000 1.0
C      1  0.4470660000000  0.4498100000000  0.5001840000000 1.0
C      1  0.5476390000000  0.4498280000000  0.5025140000000 1.0
C      1  0.5526920000000  0.5502430000000  0.5008250000000 1.0
END
