TITL C-27137-4574-204 -0.00141183117274361 125000 -289.37653248539 0 0 60 (C1) n - 1
REM
REM in /home/nfs/bkarasulu/CARBON/AIRSS/Generating-Clusters/AIREBO/Higher-Symm/Only-C60
REM
REM
REM
REM
REM
REM ./C.cell (28575a23ae977d3b5fae324c64b13b57)
REM
REM compiler GCC version 9.2.1 20190827 (Red Hat 9.2.1-1)
REM options -cpp -mtune=generic -march=x86-64 -g -O0 -fpre-include=/usr/include/finclude/math-vector-fortran.h
REM seed -1720520156 -1407762777 -243932761 63252762 -259934208 -1422906249 -1621887530 -1093822569 -1444268558 1834912328 -1508265270 645885758 -1874243851 1642188165 681368866 -1696802727 -1009280925 -763748005 797043926 -1176936491 1084301723 1624276427 -124316312 1654428311 1071271923 899420230 706561728 1447494766 -1472935818 2005038775 -155108865 264094917 288752745
REM
CELL 1.54180   50.00000   50.00000   50.00000   90.00000   90.00000   90.00000
LATT -1
SFAC C  
C      1  0.5069390000000  0.4656380000000  0.5469340000000 1.0
C      1  0.4779470000000  0.4368610000000  0.4770700000000 1.0
C      1  0.4932080000000  0.5039760000000  0.4347780000000 1.0
C      1  0.4948060000000  0.5550910000000  0.4851060000000 1.0
C      1  0.4978330000000  0.5294180000000  0.5462010000000 1.0
C      1  0.4993510000000  0.4589190000000  0.4618510000000 1.0
C      1  0.4981670000000  0.4493160000000  0.5184020000000 1.0
C      1  0.4962350000000  0.5014610000000  0.5655110000000 1.0
C      1  0.4897460000000  0.5666550000000  0.5166940000000 1.0
C      1  0.4856780000000  0.5256780000000  0.4598500000000 1.0
C      1  0.4938650000000  0.5298360000000  0.4126920000000 1.0
C      1  0.4960350000000  0.5889940000000  0.4820660000000 1.0
C      1  0.4861860000000  0.5521330000000  0.5654280000000 1.0
C      1  0.4851660000000  0.4408630000000  0.5552680000000 1.0
C      1  0.4815840000000  0.4281360000000  0.4444930000000 1.0
C      1  0.4885190000000  0.5289330000000  0.5850160000000 1.0
C      1  0.4927850000000  0.5991900000000  0.5072850000000 1.0
C      1  0.4931780000000  0.5552420000000  0.4244300000000 1.0
C      1  0.4897180000000  0.4539220000000  0.4315230000000 1.0
C      1  0.4785760000000  0.4197940000000  0.5366460000000 1.0
C      1  0.5244160000000  0.5006990000000  0.4480660000000 1.0
C      1  0.5283510000000  0.5497110000000  0.4865770000000 1.0
C      1  0.5309280000000  0.5274490000000  0.5385850000000 1.0
C      1  0.5403430000000  0.4700880000000  0.5423960000000 1.0
C      1  0.5408560000000  0.4477210000000  0.4853280000000 1.0
C      1  0.5291080000000  0.4987690000000  0.5568280000000 1.0
C      1  0.5206380000000  0.5520120000000  0.5174200000000 1.0
C      1  0.5354530000000  0.5254700000000  0.4638170000000 1.0
C      1  0.5307670000000  0.4716540000000  0.4646020000000 1.0
C      1  0.5322240000000  0.4474880000000  0.5183150000000 1.0
C      1  0.4505870000000  0.5232060000000  0.4989880000000 1.0
C      1  0.4518630000000  0.5066310000000  0.5235390000000 1.0
C      1  0.4452890000000  0.5030730000000  0.4761020000000 1.0
C      1  0.4479780000000  0.4790740000000  0.5162460000000 1.0
C      1  0.4421310000000  0.4766590000000  0.4883160000000 1.0
C      1  0.5032230000000  0.4741970000000  0.4982110000000 1.0
C      1  0.4969210000000  0.4903190000000  0.4746860000000 1.0
C      1  0.4969100000000  0.5213270000000  0.4886390000000 1.0
C      1  0.4988640000000  0.5151200000000  0.5177100000000 1.0
C      1  0.5023890000000  0.4887440000000  0.5228540000000 1.0
C      1  0.5432800000000  0.4773270000000  0.4321310000000 1.0
C      1  0.5497920000000  0.4228600000000  0.5027950000000 1.0
C      1  0.5484950000000  0.4779690000000  0.5754720000000 1.0
C      1  0.5432240000000  0.5582360000000  0.4588610000000 1.0
C      1  0.5416080000000  0.5603410000000  0.5428590000000 1.0
C      1  0.4693080000000  0.5109870000000  0.5443300000000 1.0
C      1  0.4624880000000  0.5051820000000  0.4534480000000 1.0
C      1  0.4669600000000  0.4606360000000  0.5257740000000 1.0
C      1  0.4651680000000  0.5473120000000  0.4998790000000 1.0
C      1  0.4492790000000  0.4514980000000  0.4776510000000 1.0
C      1  0.5710170000000  0.4732790000000  0.5007520000000 1.0
C      1  0.5580260000000  0.4864440000000  0.4785480000000 1.0
C      1  0.5519380000000  0.5131100000000  0.4874450000000 1.0
C      1  0.5610230000000  0.4867780000000  0.5243470000000 1.0
C      1  0.5514080000000  0.5128030000000  0.5159530000000 1.0
C      1  0.4796740000000  0.5718300000000  0.5476630000000 1.0
C      1  0.4853440000000  0.4220240000000  0.5056760000000 1.0
C      1  0.4880790000000  0.4770010000000  0.4180720000000 1.0
C      1  0.4899940000000  0.5545600000000  0.4511880000000 1.0
C      1  0.4852250000000  0.4703580000000  0.5726840000000 1.0
END
