TITL C-27136-4842-157 -0.000152222670636743 125000 -339.507355941487 0 0 60 (C1) n - 1
REM
REM in /home/nfs/bkarasulu/CARBON/AIRSS/Generating-Clusters/AIREBO/Higher-Symm/Only-C60
REM
REM
REM
REM
REM
REM ./C.cell (28575a23ae977d3b5fae324c64b13b57)
REM
REM compiler GCC version 9.2.1 20190827 (Red Hat 9.2.1-1)
REM options -cpp -mtune=generic -march=x86-64 -g -O0 -fpre-include=/usr/include/finclude/math-vector-fortran.h
REM seed -1569970880 -25909219 -1486756507 -1904888532 -841939625 1386506046 -391064057 -249267068 -303398156 347109520 -119683110 -1441603929 45890161 1555171358 1112213108 -721631126 883090356 1109536616 -318657984 2093750 792832219 -472677372 1161451166 -1026556008 753990615 -1817200456 715840619 -1868068464 -110661456 -700009091 1117057749 312989882 485485127
REM
CELL 1.54180   50.00000   50.00000   50.00000   90.00000   90.00000   90.00000
LATT -1
SFAC C  
C      1  0.4855400000000  0.5715720000000  0.5150920000000 1.0
C      1  0.5133210000000  0.5707270000000  0.5138080000000 1.0
C      1  0.4488160000000  0.5597600000000  0.4633690000000 1.0
C      1  0.5488550000000  0.5586990000000  0.4610510000000 1.0
C      1  0.4476760000000  0.4995720000000  0.5563870000000 1.0
C      1  0.5518400000000  0.4995750000000  0.5555340000000 1.0
C      1  0.4886150000000  0.4282440000000  0.4933890000000 1.0
C      1  0.5173480000000  0.4299230000000  0.4889390000000 1.0
C      1  0.5449990000000  0.4700340000000  0.4904360000000 1.0
C      1  0.4567710000000  0.4675790000000  0.4899530000000 1.0
C      1  0.4875350000000  0.5247820000000  0.4538970000000 1.0
C      1  0.5164950000000  0.5201460000000  0.4510430000000 1.0
C      1  0.4841050000000  0.5304210000000  0.5460930000000 1.0
C      1  0.5148540000000  0.5298840000000  0.5456790000000 1.0
C      1  0.5420780000000  0.5405780000000  0.5050780000000 1.0
C      1  0.4552560000000  0.5397310000000  0.5060690000000 1.0
C      1  0.4352130000000  0.5252150000000  0.4927480000000 1.0
C      1  0.5631990000000  0.5270220000000  0.4930230000000 1.0
C      1  0.4746350000000  0.5231640000000  0.5174130000000 1.0
C      1  0.5238170000000  0.5230690000000  0.5167180000000 1.0
C      1  0.5609770000000  0.4996210000000  0.4984020000000 1.0
C      1  0.4389600000000  0.4971300000000  0.4967940000000 1.0
C      1  0.4717500000000  0.4678140000000  0.5725880000000 1.0
C      1  0.5280820000000  0.4675260000000  0.5727960000000 1.0
C      1  0.5476610000000  0.4405260000000  0.5304250000000 1.0
C      1  0.4527780000000  0.4404020000000  0.5307950000000 1.0
C      1  0.5079200000000  0.4259780000000  0.4381710000000 1.0
C      1  0.4803930000000  0.4274890000000  0.4422280000000 1.0
C      1  0.4706940000000  0.5124570000000  0.5655130000000 1.0
C      1  0.5287720000000  0.5121440000000  0.5648400000000 1.0
C      1  0.4737280000000  0.4393990000000  0.4671910000000 1.0
C      1  0.5227700000000  0.4364960000000  0.4595150000000 1.0
C      1  0.4681540000000  0.5644550000000  0.4910910000000 1.0
C      1  0.5293060000000  0.5637920000000  0.4883560000000 1.0
C      1  0.5381120000000  0.4410510000000  0.5050410000000 1.0
C      1  0.4631550000000  0.4397970000000  0.5056560000000 1.0
C      1  0.5154170000000  0.5523320000000  0.4606310000000 1.0
C      1  0.4822990000000  0.5549630000000  0.4631850000000 1.0
C      1  0.5244970000000  0.5598100000000  0.5366780000000 1.0
C      1  0.4757210000000  0.5611470000000  0.5388490000000 1.0
C      1  0.4395740000000  0.4705680000000  0.4609530000000 1.0
C      1  0.5674660000000  0.4666100000000  0.4651460000000 1.0
C      1  0.5566000000000  0.4916120000000  0.4552270000000 1.0
C      1  0.4489370000000  0.4964700000000  0.4517040000000 1.0
C      1  0.5382480000000  0.4859850000000  0.5197070000000 1.0
C      1  0.4622350000000  0.4852000000000  0.5185240000000 1.0
C      1  0.4860940000000  0.4921420000000  0.5776410000000 1.0
C      1  0.5137410000000  0.4919460000000  0.5774690000000 1.0
C      1  0.5154600000000  0.4980360000000  0.4975280000000 1.0
C      1  0.4841200000000  0.5003280000000  0.4973430000000 1.0
C      1  0.4869360000000  0.4678890000000  0.4742610000000 1.0
C      1  0.5166360000000  0.4663710000000  0.4720380000000 1.0
C      1  0.4313280000000  0.5372690000000  0.4666190000000 1.0
C      1  0.5668790000000  0.5367160000000  0.4661020000000 1.0
C      1  0.4543200000000  0.4683570000000  0.5446740000000 1.0
C      1  0.5457230000000  0.4678260000000  0.5450150000000 1.0
C      1  0.4735680000000  0.5031450000000  0.4651190000000 1.0
C      1  0.5280490000000  0.4966750000000  0.4659180000000 1.0
C      1  0.4313390000000  0.5177790000000  0.4462300000000 1.0
C      1  0.5706330000000  0.5150490000000  0.4483180000000 1.0
END
