TITL C-27144-3922-12 -0.000784300509118172 125000 -322.225204423993 0 0 60 (C1) n - 1
REM
REM in /home/nfs/bkarasulu/CARBON/AIRSS/Generating-Clusters/AIREBO/Higher-Symm/Only-C60
REM
REM
REM
REM
REM
REM ./C.cell (28575a23ae977d3b5fae324c64b13b57)
REM
REM compiler GCC version 9.2.1 20190827 (Red Hat 9.2.1-1)
REM options -cpp -mtune=generic -march=x86-64 -g -O0 -fpre-include=/usr/include/finclude/math-vector-fortran.h
REM seed -532756704 859382753 -457053056 -641695805 1236221257 -1518499428 -1733935428 1877625696 -1626143378 562558426 -160423766 1453817941 1483635339 625317638 1156598769 -1393461663 1004276006 1642827780 2050029720 -1286349212 1318716785 -168446643 -2119039979 -661839106 -1243374685 -1010102639 -1003500754 -693623591 -1640256795 429225154 -289453327 -1342242973 -983452902
REM
CELL 1.54180   50.00000   50.00000   50.00000   90.00000   90.00000   90.00000
LATT -1
SFAC C  
C      1  0.4465970000000  0.4484760000000  0.4970670000000 1.0
C      1  0.4475130000000  0.5548270000000  0.5023940000000 1.0
C      1  0.4741660000000  0.4757450000000  0.4412190000000 1.0
C      1  0.4746100000000  0.5243310000000  0.5558980000000 1.0
C      1  0.4642490000000  0.5172260000000  0.5263770000000 1.0
C      1  0.4629610000000  0.4910060000000  0.4694750000000 1.0
C      1  0.4424100000000  0.5077470000000  0.4874910000000 1.0
C      1  0.4436750000000  0.4938960000000  0.5149310000000 1.0
C      1  0.5232580000000  0.4473710000000  0.4657770000000 1.0
C      1  0.5206060000000  0.5533330000000  0.5345870000000 1.0
C      1  0.5376350000000  0.5496740000000  0.4772690000000 1.0
C      1  0.5418270000000  0.4481160000000  0.5278690000000 1.0
C      1  0.4775470000000  0.5523020000000  0.5594350000000 1.0
C      1  0.4777850000000  0.4457670000000  0.4407080000000 1.0
C      1  0.5250670000000  0.4746890000000  0.4520690000000 1.0
C      1  0.5231220000000  0.5251850000000  0.5490220000000 1.0
C      1  0.4788350000000  0.4592250000000  0.5652760000000 1.0
C      1  0.4732250000000  0.5276170000000  0.4383630000000 1.0
C      1  0.4766590000000  0.5630810000000  0.5127410000000 1.0
C      1  0.4767350000000  0.4411850000000  0.4883350000000 1.0
C      1  0.5753550000000  0.4794760000000  0.4986500000000 1.0
C      1  0.5769640000000  0.5187760000000  0.5005210000000 1.0
C      1  0.5118460000000  0.4972780000000  0.4737660000000 1.0
C      1  0.5105060000000  0.5024600000000  0.5266160000000 1.0
C      1  0.5432910000000  0.5170850000000  0.4996760000000 1.0
C      1  0.5418690000000  0.4847950000000  0.4982860000000 1.0
C      1  0.4642770000000  0.5470030000000  0.4575440000000 1.0
C      1  0.4545800000000  0.4492650000000  0.5433970000000 1.0
C      1  0.4776150000000  0.4733530000000  0.4936510000000 1.0
C      1  0.4804800000000  0.5322030000000  0.5040950000000 1.0
C      1  0.5005780000000  0.5179270000000  0.4381880000000 1.0
C      1  0.5039260000000  0.4811240000000  0.5665530000000 1.0
C      1  0.5274560000000  0.5285440000000  0.4520850000000 1.0
C      1  0.5264660000000  0.4721950000000  0.5472880000000 1.0
C      1  0.5693860000000  0.5008260000000  0.4741330000000 1.0
C      1  0.5681450000000  0.4986060000000  0.5249870000000 1.0
C      1  0.5104630000000  0.4751320000000  0.4976610000000 1.0
C      1  0.5124820000000  0.5240970000000  0.5033960000000 1.0
C      1  0.4451550000000  0.4652130000000  0.5204880000000 1.0
C      1  0.4473380000000  0.5363870000000  0.4805780000000 1.0
C      1  0.5015800000000  0.4892620000000  0.4359580000000 1.0
C      1  0.4978870000000  0.5094120000000  0.5638060000000 1.0
C      1  0.4827250000000  0.4896400000000  0.5224730000000 1.0
C      1  0.4855310000000  0.5140550000000  0.4757740000000 1.0
C      1  0.4858650000000  0.5663620000000  0.4659110000000 1.0
C      1  0.4862770000000  0.4374960000000  0.5408130000000 1.0
C      1  0.4920520000000  0.4366930000000  0.4626390000000 1.0
C      1  0.4916290000000  0.5641280000000  0.5390810000000 1.0
C      1  0.5047740000000  0.5416570000000  0.4737670000000 1.0
C      1  0.5090010000000  0.4556980000000  0.5232210000000 1.0
C      1  0.4952410000000  0.4279530000000  0.5091670000000 1.0
C      1  0.4950150000000  0.5755280000000  0.4926590000000 1.0
C      1  0.4682480000000  0.4855610000000  0.5495440000000 1.0
C      1  0.4560380000000  0.5044060000000  0.4387550000000 1.0
C      1  0.5419410000000  0.4510530000000  0.4939520000000 1.0
C      1  0.5426200000000  0.5495210000000  0.5098620000000 1.0
C      1  0.5432990000000  0.5013610000000  0.4608390000000 1.0
C      1  0.5421740000000  0.4990570000000  0.5385150000000 1.0
C      1  0.5209100000000  0.4247220000000  0.4913020000000 1.0
C      1  0.5205330000000  0.5738880000000  0.5040980000000 1.0
END
