TITL C-27131-4585-102 0.000851987159578521 125000 -319.895864874216 0 0 60 (C1) n - 1
REM
REM in /home/nfs/bkarasulu/CARBON/AIRSS/Generating-Clusters/AIREBO/Higher-Symm/Only-C60
REM
REM
REM
REM
REM
REM ./C.cell (28575a23ae977d3b5fae324c64b13b57)
REM
REM compiler GCC version 9.2.1 20190827 (Red Hat 9.2.1-1)
REM options -cpp -mtune=generic -march=x86-64 -g -O0 -fpre-include=/usr/include/finclude/math-vector-fortran.h
REM seed -1935564899 -114825569 -1377264175 -1066820558 -1107512670 1034245497 -393292072 -1392904648 -234902758 -28099691 -1089385899 1148864683 -1377343412 -16872709 -1989405067 -13983962 -451245401 -1471657748 571219116 -20477602 -1519644649 711134758 339924097 309298645 726078266 390544107 -1377859901 871526679 356003688 1052761108 -1381196744 -244947209 854022648
REM
CELL 1.54180   50.00000   50.00000   50.00000   90.00000   90.00000   90.00000
LATT -1
SFAC C  
C      1  0.5462220000000  0.5594500000000  0.4976510000000 1.0
C      1  0.4363300000000  0.4674850000000  0.4763430000000 1.0
C      1  0.5429900000000  0.5085550000000  0.5312330000000 1.0
C      1  0.4383560000000  0.4932230000000  0.4564350000000 1.0
C      1  0.4995730000000  0.4432320000000  0.5527510000000 1.0
C      1  0.4608100000000  0.5207460000000  0.5049440000000 1.0
C      1  0.4417980000000  0.4756360000000  0.5030230000000 1.0
C      1  0.4869710000000  0.4556790000000  0.5176410000000 1.0
C      1  0.4655560000000  0.5363280000000  0.4648540000000 1.0
C      1  0.5471270000000  0.4675840000000  0.5027070000000 1.0
C      1  0.4850100000000  0.5307820000000  0.4414890000000 1.0
C      1  0.4378410000000  0.4854390000000  0.5309220000000 1.0
C      1  0.4666660000000  0.5641460000000  0.4770250000000 1.0
C      1  0.5157100000000  0.5250810000000  0.4938290000000 1.0
C      1  0.5338470000000  0.4784850000000  0.4567800000000 1.0
C      1  0.4501100000000  0.4668210000000  0.5540030000000 1.0
C      1  0.4678550000000  0.5430220000000  0.5232170000000 1.0
C      1  0.5066700000000  0.4694190000000  0.4701020000000 1.0
C      1  0.4682160000000  0.4808250000000  0.4573340000000 1.0
C      1  0.5108810000000  0.4382800000000  0.5210600000000 1.0
C      1  0.4804920000000  0.5180090000000  0.5561290000000 1.0
C      1  0.4657460000000  0.5676240000000  0.5091310000000 1.0
C      1  0.5220500000000  0.5759930000000  0.5331060000000 1.0
C      1  0.5150500000000  0.5547760000000  0.5104150000000 1.0
C      1  0.5769590000000  0.4911050000000  0.4659670000000 1.0
C      1  0.4619400000000  0.4369300000000  0.4931040000000 1.0
C      1  0.5276800000000  0.5463230000000  0.4713100000000 1.0
C      1  0.5389300000000  0.5022820000000  0.4424690000000 1.0
C      1  0.5002370000000  0.5138880000000  0.5815290000000 1.0
C      1  0.5340930000000  0.4988950000000  0.5054230000000 1.0
C      1  0.4772560000000  0.4666980000000  0.4869580000000 1.0
C      1  0.5101090000000  0.4393070000000  0.4749330000000 1.0
C      1  0.5592300000000  0.5372910000000  0.4717680000000 1.0
C      1  0.5189480000000  0.5088130000000  0.5503130000000 1.0
C      1  0.4869530000000  0.4972390000000  0.4360580000000 1.0
C      1  0.4712700000000  0.4912100000000  0.5097750000000 1.0
C      1  0.5666580000000  0.5236380000000  0.5276120000000 1.0
C      1  0.5752780000000  0.4586230000000  0.5116760000000 1.0
C      1  0.4590220000000  0.4271100000000  0.5181950000000 1.0
C      1  0.4372700000000  0.5200920000000  0.4630480000000 1.0
C      1  0.5149420000000  0.5159820000000  0.4314200000000 1.0
C      1  0.4570820000000  0.4976680000000  0.5540100000000 1.0
C      1  0.4340460000000  0.5246660000000  0.4909310000000 1.0
C      1  0.4971300000000  0.5372010000000  0.5333650000000 1.0
C      1  0.4675080000000  0.4459180000000  0.5432860000000 1.0
C      1  0.5690070000000  0.5380230000000  0.5043270000000 1.0
C      1  0.5271880000000  0.4402280000000  0.4986290000000 1.0
C      1  0.5017490000000  0.5004070000000  0.4656520000000 1.0
C      1  0.5119890000000  0.4698450000000  0.5454240000000 1.0
C      1  0.4933180000000  0.5720760000000  0.4935700000000 1.0
C      1  0.5368860000000  0.4692470000000  0.5350900000000 1.0
C      1  0.5141410000000  0.5458360000000  0.4453770000000 1.0
C      1  0.4861190000000  0.5185110000000  0.4846180000000 1.0
C      1  0.5203430000000  0.5342810000000  0.5811210000000 1.0
C      1  0.5634790000000  0.5141620000000  0.4540810000000 1.0
C      1  0.4818080000000  0.4313700000000  0.4688120000000 1.0
C      1  0.4922860000000  0.4936470000000  0.5355510000000 1.0
C      1  0.4577430000000  0.4498410000000  0.4564410000000 1.0
C      1  0.5559090000000  0.4726650000000  0.4727040000000 1.0
C      1  0.5236150000000  0.5423590000000  0.5533300000000 1.0
END
