TITL C-27141-4733-37 0.0010764160228446 125000 -359.475291941559 0 0 60 (C1) n - 1
REM
REM in /home/nfs/bkarasulu/CARBON/AIRSS/Generating-Clusters/AIREBO/Higher-Symm/Only-C60
REM
REM
REM
REM
REM
REM ./C.cell (28575a23ae977d3b5fae324c64b13b57)
REM
REM compiler GCC version 9.2.1 20190827 (Red Hat 9.2.1-1)
REM options -cpp -mtune=generic -march=x86-64 -g -O0 -fpre-include=/usr/include/finclude/math-vector-fortran.h
REM seed -1860920542 -2064577196 -1118269370 -821930036 -903314320 -1926806388 702091981 1906004473 2025809104 168878286 -1246302035 610420667 913265680 1662197700 -2033972049 1428416666 -464481924 -1811014077 223172485 482430111 -1400377961 -12190698 -921865140 853295671 -789461826 -1238207836 -2011067076 -1330353133 994024459 -1312606447 1872997946 -1497760652 -192961473
REM
CELL 1.54180   50.00000   50.00000   50.00000   90.00000   90.00000   90.00000
LATT -1
SFAC C  
C      1  0.4727480000000  0.4392040000000  0.5351510000000 1.0
C      1  0.4729330000000  0.4329370000000  0.4827920000000 1.0
C      1  0.4919560000000  0.4646610000000  0.4385570000000 1.0
C      1  0.4719490000000  0.5632770000000  0.4599210000000 1.0
C      1  0.4727560000000  0.5742150000000  0.5105160000000 1.0
C      1  0.4942910000000  0.5287970000000  0.5749350000000 1.0
C      1  0.4741030000000  0.4557000000000  0.4575260000000 1.0
C      1  0.4893220000000  0.4317470000000  0.5074650000000 1.0
C      1  0.4833620000000  0.4805370000000  0.5646770000000 1.0
C      1  0.4783400000000  0.5466100000000  0.5593200000000 1.0
C      1  0.4892340000000  0.5733140000000  0.4860150000000 1.0
C      1  0.4825510000000  0.5155220000000  0.4329170000000 1.0
C      1  0.4558070000000  0.5412920000000  0.4652010000000 1.0
C      1  0.4565660000000  0.5510380000000  0.5149000000000 1.0
C      1  0.4520440000000  0.5093870000000  0.5430550000000 1.0
C      1  0.4542210000000  0.4596620000000  0.5334720000000 1.0
C      1  0.4465600000000  0.4522910000000  0.4859680000000 1.0
C      1  0.4436020000000  0.4961990000000  0.4526380000000 1.0
C      1  0.4603630000000  0.5360690000000  0.5391250000000 1.0
C      1  0.4440460000000  0.5415270000000  0.4911190000000 1.0
C      1  0.4594340000000  0.5190030000000  0.4489410000000 1.0
C      1  0.4491330000000  0.4718900000000  0.4639530000000 1.0
C      1  0.4365860000000  0.4566950000000  0.5117130000000 1.0
C      1  0.4613070000000  0.4830770000000  0.5468300000000 1.0
C      1  0.4869590000000  0.5136730000000  0.5972570000000 1.0
C      1  0.5022410000000  0.4349810000000  0.5450600000000 1.0
C      1  0.4858910000000  0.4175230000000  0.4578620000000 1.0
C      1  0.4837480000000  0.4727430000000  0.4126880000000 1.0
C      1  0.5014230000000  0.5646180000000  0.4490490000000 1.0
C      1  0.4852060000000  0.5851730000000  0.5330390000000 1.0
C      1  0.4794880000000  0.4999570000000  0.4094410000000 1.0
C      1  0.5096770000000  0.4279490000000  0.4489580000000 1.0
C      1  0.4966940000000  0.4076490000000  0.5305950000000 1.0
C      1  0.4799650000000  0.4875470000000  0.5917390000000 1.0
C      1  0.4967000000000  0.5659790000000  0.5494740000000 1.0
C      1  0.4977550000000  0.5937640000000  0.4600630000000 1.0
C      1  0.5321770000000  0.4496450000000  0.4867770000000 1.0
C      1  0.5191710000000  0.4798100000000  0.4480660000000 1.0
C      1  0.5196580000000  0.5416030000000  0.4603070000000 1.0
C      1  0.5274160000000  0.5503670000000  0.5109550000000 1.0
C      1  0.5191980000000  0.5188760000000  0.5572010000000 1.0
C      1  0.5216630000000  0.4585380000000  0.5371030000000 1.0
C      1  0.5147040000000  0.4484880000000  0.5078010000000 1.0
C      1  0.5109740000000  0.4860460000000  0.5539910000000 1.0
C      1  0.5205530000000  0.5494510000000  0.5422600000000 1.0
C      1  0.5121180000000  0.5535890000000  0.4885910000000 1.0
C      1  0.5097970000000  0.5125290000000  0.4456040000000 1.0
C      1  0.5218980000000  0.4502220000000  0.4606130000000 1.0
C      1  0.5551230000000  0.5138610000000  0.5569820000000 1.0
C      1  0.5537590000000  0.4642910000000  0.5383270000000 1.0
C      1  0.5588850000000  0.4580140000000  0.4898400000000 1.0
C      1  0.5527610000000  0.4845460000000  0.4491690000000 1.0
C      1  0.5523590000000  0.5366270000000  0.4602510000000 1.0
C      1  0.5561390000000  0.5413780000000  0.5087900000000 1.0
C      1  0.5429280000000  0.5117850000000  0.4481700000000 1.0
C      1  0.5689530000000  0.4699530000000  0.4664080000000 1.0
C      1  0.5686740000000  0.4569950000000  0.5161560000000 1.0
C      1  0.5438390000000  0.4877360000000  0.5525630000000 1.0
C      1  0.5514590000000  0.5361300000000  0.5390160000000 1.0
C      1  0.5668350000000  0.5433120000000  0.4831270000000 1.0
END
