TITL C-27134-4977-86 0.000182306692706587 125000 -330.577779858441 0 0 60 (C1) n - 1
REM
REM in /home/nfs/bkarasulu/CARBON/AIRSS/Generating-Clusters/AIREBO/Higher-Symm/Only-C60
REM
REM
REM
REM
REM
REM ./C.cell (28575a23ae977d3b5fae324c64b13b57)
REM
REM compiler GCC version 9.2.1 20190827 (Red Hat 9.2.1-1)
REM options -cpp -mtune=generic -march=x86-64 -g -O0 -fpre-include=/usr/include/finclude/math-vector-fortran.h
REM seed 640911097 -1067425932 -908105403 17775374 1126720583 -871690623 1694117049 493495585 -503198769 -1945103519 2014734076 1674641198 786939986 238497686 -286691977 -250984809 -1020321195 -565369176 247383554 415102287 -529052562 2081070132 809520511 1113663277 373644982 -1427300197 1299663345 -100615538 929247544 544988648 -923224633 1356304936 1913102121
REM
CELL 1.54180   50.00000   50.00000   50.00000   90.00000   90.00000   90.00000
LATT -1
SFAC C  
C      1  0.5437460000000  0.5227910000000  0.5284140000000 1.0
C      1  0.4592110000000  0.5406630000000  0.5074880000000 1.0
C      1  0.5663540000000  0.4778040000000  0.5252300000000 1.0
C      1  0.4235130000000  0.4887460000000  0.5077120000000 1.0
C      1  0.4997670000000  0.5693700000000  0.4913940000000 1.0
C      1  0.5058430000000  0.5030170000000  0.5675930000000 1.0
C      1  0.4555820000000  0.4268280000000  0.4862410000000 1.0
C      1  0.4451840000000  0.4680530000000  0.5180480000000 1.0
C      1  0.4942410000000  0.4950200000000  0.5308690000000 1.0
C      1  0.5011290000000  0.4572030000000  0.5417630000000 1.0
C      1  0.5033200000000  0.4732090000000  0.4345580000000 1.0
C      1  0.4720920000000  0.5091590000000  0.4741520000000 1.0
C      1  0.4976660000000  0.4568100000000  0.5124710000000 1.0
C      1  0.4497020000000  0.4559030000000  0.5430490000000 1.0
C      1  0.5484700000000  0.5509080000000  0.4805720000000 1.0
C      1  0.5287640000000  0.4827280000000  0.4462850000000 1.0
C      1  0.5232490000000  0.5732580000000  0.4805800000000 1.0
C      1  0.5224210000000  0.5392440000000  0.5469910000000 1.0
C      1  0.4961060000000  0.4317420000000  0.4814350000000 1.0
C      1  0.4710710000000  0.4715590000000  0.5025230000000 1.0
C      1  0.4987640000000  0.5572450000000  0.5459970000000 1.0
C      1  0.5229100000000  0.5007140000000  0.4922000000000 1.0
C      1  0.4631420000000  0.4305940000000  0.5384880000000 1.0
C      1  0.5791860000000  0.4850340000000  0.4881000000000 1.0
C      1  0.5336410000000  0.5098400000000  0.4480310000000 1.0
C      1  0.4224220000000  0.4645660000000  0.4855280000000 1.0
C      1  0.5507190000000  0.5826270000000  0.4685360000000 1.0
C      1  0.5471200000000  0.4624960000000  0.5200950000000 1.0
C      1  0.4629130000000  0.5196430000000  0.5339560000000 1.0
C      1  0.4868940000000  0.5184300000000  0.4301500000000 1.0
C      1  0.4971510000000  0.4862610000000  0.4762420000000 1.0
C      1  0.5677780000000  0.5067930000000  0.5116260000000 1.0
C      1  0.4452600000000  0.4509140000000  0.4786220000000 1.0
C      1  0.5679760000000  0.4636220000000  0.4759050000000 1.0
C      1  0.5232340000000  0.4675710000000  0.5000870000000 1.0
C      1  0.5772480000000  0.5118140000000  0.4749230000000 1.0
C      1  0.5146990000000  0.5277040000000  0.4395650000000 1.0
C      1  0.5376040000000  0.4637290000000  0.4707320000000 1.0
C      1  0.4773490000000  0.4299180000000  0.5097380000000 1.0
C      1  0.4594630000000  0.4845270000000  0.4453740000000 1.0
C      1  0.4816650000000  0.4906920000000  0.4297630000000 1.0
C      1  0.5052680000000  0.4557910000000  0.4638330000000 1.0
C      1  0.5715670000000  0.5358730000000  0.5387500000000 1.0
C      1  0.4875090000000  0.4792190000000  0.5602390000000 1.0
C      1  0.4440320000000  0.5074760000000  0.4550080000000 1.0
C      1  0.4460020000000  0.5018650000000  0.5534820000000 1.0
C      1  0.4751280000000  0.5481960000000  0.5433870000000 1.0
C      1  0.5122160000000  0.5198320000000  0.5171270000000 1.0
C      1  0.4575880000000  0.4771110000000  0.5607160000000 1.0
C      1  0.4682140000000  0.4696170000000  0.4697050000000 1.0
C      1  0.5747090000000  0.5376680000000  0.4925740000000 1.0
C      1  0.4734250000000  0.5034200000000  0.5059790000000 1.0
C      1  0.5203070000000  0.5228100000000  0.5721550000000 1.0
C      1  0.4906110000000  0.5323330000000  0.4616940000000 1.0
C      1  0.4907780000000  0.5376450000000  0.4948390000000 1.0
C      1  0.5450860000000  0.5180680000000  0.4744560000000 1.0
C      1  0.4714330000000  0.5713880000000  0.5012390000000 1.0
C      1  0.4322180000000  0.5217280000000  0.5085660000000 1.0
C      1  0.5861650000000  0.5442040000000  0.5194140000000 1.0
C      1  0.4231770000000  0.5070090000000  0.5358110000000 1.0
END
