TITL C-27143-4867-3 0.00152133557508009 125000 -324.628856158778 0 0 60 (C1) n - 1
REM
REM in /home/nfs/bkarasulu/CARBON/AIRSS/Generating-Clusters/AIREBO/Higher-Symm/Only-C60
REM
REM
REM
REM
REM
REM ./C.cell (28575a23ae977d3b5fae324c64b13b57)
REM
REM compiler GCC version 9.2.1 20190827 (Red Hat 9.2.1-1)
REM options -cpp -mtune=generic -march=x86-64 -g -O0 -fpre-include=/usr/include/finclude/math-vector-fortran.h
REM seed -1243441934 1238450495 774060469 919177123 456244571 -788458585 797113302 -382965599 -874832450 -686657069 -1667586219 93453919 1828761097 -1928120355 -1420466627 -658852983 1391544261 -874357653 -1838812247 -1989167965 1446698270 1312667594 -680519662 -680275618 -1278885590 1504105547 2091622146 1115913080 -1130784270 2121421004 1327865495 1180388639 721062651
REM
CELL 1.54180   50.00000   50.00000   50.00000   90.00000   90.00000   90.00000
LATT -1
SFAC C  
C      1  0.5205910000000  0.5097510000000  0.4850770000000 1.0
C      1  0.4812870000000  0.5167150000000  0.4827170000000 1.0
C      1  0.5144560000000  0.4873230000000  0.5322250000000 1.0
C      1  0.4832600000000  0.4814450000000  0.5359820000000 1.0
C      1  0.4697710000000  0.5527810000000  0.4479590000000 1.0
C      1  0.5388790000000  0.5547570000000  0.4787480000000 1.0
C      1  0.5303080000000  0.5105070000000  0.5138210000000 1.0
C      1  0.4732300000000  0.5006620000000  0.5105940000000 1.0
C      1  0.4854030000000  0.4419420000000  0.4629400000000 1.0
C      1  0.5150460000000  0.4407240000000  0.4583170000000 1.0
C      1  0.4033300000000  0.5326070000000  0.4919960000000 1.0
C      1  0.6030030000000  0.5206670000000  0.4930160000000 1.0
C      1  0.5149250000000  0.5007070000000  0.5828780000000 1.0
C      1  0.4877730000000  0.5033080000000  0.5839530000000 1.0
C      1  0.4707560000000  0.5508180000000  0.5169910000000 1.0
C      1  0.5239220000000  0.5572160000000  0.5423530000000 1.0
C      1  0.4412040000000  0.5030430000000  0.5136630000000 1.0
C      1  0.5605760000000  0.5105070000000  0.5163610000000 1.0
C      1  0.5128510000000  0.5394640000000  0.4706400000000 1.0
C      1  0.4814890000000  0.5499260000000  0.4786270000000 1.0
C      1  0.5617780000000  0.5456600000000  0.4819640000000 1.0
C      1  0.4517290000000  0.5433970000000  0.4941890000000 1.0
C      1  0.4821860000000  0.5317520000000  0.4342400000000 1.0
C      1  0.5127850000000  0.5334880000000  0.4378640000000 1.0
C      1  0.4363760000000  0.4972690000000  0.4745230000000 1.0
C      1  0.5649280000000  0.4962490000000  0.4723330000000 1.0
C      1  0.5122170000000  0.4546070000000  0.5405830000000 1.0
C      1  0.4853250000000  0.4463510000000  0.5447360000000 1.0
C      1  0.4750010000000  0.4702860000000  0.4554120000000 1.0
C      1  0.5227700000000  0.4693900000000  0.4496910000000 1.0
C      1  0.4831110000000  0.5263040000000  0.5306550000000 1.0
C      1  0.5138480000000  0.5296440000000  0.5345260000000 1.0
C      1  0.4730340000000  0.5200710000000  0.5593240000000 1.0
C      1  0.5266040000000  0.5072070000000  0.5535070000000 1.0
C      1  0.4826560000000  0.4360870000000  0.4918320000000 1.0
C      1  0.5150380000000  0.4377220000000  0.4891110000000 1.0
C      1  0.4406690000000  0.4734060000000  0.4868090000000 1.0
C      1  0.5597090000000  0.4719310000000  0.4833640000000 1.0
C      1  0.5138840000000  0.4769390000000  0.4816610000000 1.0
C      1  0.4807680000000  0.4758790000000  0.4885420000000 1.0
C      1  0.5402830000000  0.4569510000000  0.5314150000000 1.0
C      1  0.4584080000000  0.4503530000000  0.5341670000000 1.0
C      1  0.4826830000000  0.5033230000000  0.4528940000000 1.0
C      1  0.5172330000000  0.5028900000000  0.4515710000000 1.0
C      1  0.5554740000000  0.4743550000000  0.5478420000000 1.0
C      1  0.4459370000000  0.4712480000000  0.5477170000000 1.0
C      1  0.4293670000000  0.4874000000000  0.5320340000000 1.0
C      1  0.5712810000000  0.4930910000000  0.5340050000000 1.0
C      1  0.4887090000000  0.5717030000000  0.5037230000000 1.0
C      1  0.5032290000000  0.5936990000000  0.5082130000000 1.0
C      1  0.5355730000000  0.4591100000000  0.5009970000000 1.0
C      1  0.4605160000000  0.4538770000000  0.5047370000000 1.0
C      1  0.4292710000000  0.5229270000000  0.4922140000000 1.0
C      1  0.5750360000000  0.5187780000000  0.4907380000000 1.0
C      1  0.4487410000000  0.5029290000000  0.4509230000000 1.0
C      1  0.5511840000000  0.5040280000000  0.4500960000000 1.0
C      1  0.4828610000000  0.4755480000000  0.4242480000000 1.0
C      1  0.5084330000000  0.4766720000000  0.4218370000000 1.0
C      1  0.4667920000000  0.4874770000000  0.5640000000000 1.0
C      1  0.5425110000000  0.4851300000000  0.5729020000000 1.0
END
