TITL C-27137-4574-155 -0.000188879539775242 125000 -321.490058512165 0 0 60 (C2) n - 1
REM
REM in /home/nfs/bkarasulu/CARBON/AIRSS/Generating-Clusters/AIREBO/Higher-Symm/Only-C60
REM
REM
REM
REM
REM
REM ./C.cell (28575a23ae977d3b5fae324c64b13b57)
REM
REM compiler GCC version 9.2.1 20190827 (Red Hat 9.2.1-1)
REM options -cpp -mtune=generic -march=x86-64 -g -O0 -fpre-include=/usr/include/finclude/math-vector-fortran.h
REM seed -1364827769 -1071654922 868696551 -55209856 -1983855928 564831474 1235524060 -596370175 1549341118 253462763 -410353799 -520900391 646851969 2000261760 -1237233430 -957384376 91754258 925953341 -2113190541 152566338 1782893220 2054671535 2144892189 -464409294 1579146907 -2053267853 -661921799 -1748114516 169034438 1009780124 2025487155 -2012612418 -501041626
REM
CELL 1.54180   50.00000   50.00000   50.00000   90.00000   90.00000   90.00000
LATT -1
SFAC C  
C      1  0.4613970000000  0.4718450000000  0.4321560000000 1.0
C      1  0.5382770000000  0.4889520000000  0.4350060000000 1.0
C      1  0.5739990000000  0.4973480000000  0.5056260000000 1.0
C      1  0.5386030000000  0.4718440000000  0.5678430000000 1.0
C      1  0.4617220000000  0.4889520000000  0.5649940000000 1.0
C      1  0.4260010000000  0.4973480000000  0.4943740000000 1.0
C      1  0.5707080000000  0.4881290000000  0.4760110000000 1.0
C      1  0.5618650000000  0.4647900000000  0.5469120000000 1.0
C      1  0.4786850000000  0.4684260000000  0.5763290000000 1.0
C      1  0.4292920000000  0.4881290000000  0.5239890000000 1.0
C      1  0.4381350000000  0.4647910000000  0.4530880000000 1.0
C      1  0.5213140000000  0.4684270000000  0.4236700000000 1.0
C      1  0.4478180000000  0.5246750000000  0.4561330000000 1.0
C      1  0.5025540000000  0.5187370000000  0.4271760000000 1.0
C      1  0.5641620000000  0.5363330000000  0.4637090000000 1.0
C      1  0.5521830000000  0.5246740000000  0.5438670000000 1.0
C      1  0.4974460000000  0.5187360000000  0.5728250000000 1.0
C      1  0.4358380000000  0.5363330000000  0.5362910000000 1.0
C      1  0.5232000000000  0.4412890000000  0.4897750000000 1.0
C      1  0.5224490000000  0.4300090000000  0.5160790000000 1.0
C      1  0.4965970000000  0.4291760000000  0.5270060000000 1.0
C      1  0.4768000000000  0.4412890000000  0.5102240000000 1.0
C      1  0.4775510000000  0.4300090000000  0.4839200000000 1.0
C      1  0.5034030000000  0.4291760000000  0.4729930000000 1.0
C      1  0.5048030000000  0.4710800000000  0.5637730000000 1.0
C      1  0.4562600000000  0.4863460000000  0.5324370000000 1.0
C      1  0.4412470000000  0.4768810000000  0.4778170000000 1.0
C      1  0.4951970000000  0.4710810000000  0.4362270000000 1.0
C      1  0.5437400000000  0.4863460000000  0.4675630000000 1.0
C      1  0.5587530000000  0.4768800000000  0.5221830000000 1.0
C      1  0.4395660000000  0.5267750000000  0.5052580000000 1.0
C      1  0.4629190000000  0.4988830000000  0.4527180000000 1.0
C      1  0.5201940000000  0.5098400000000  0.4548570000000 1.0
C      1  0.5604340000000  0.5267750000000  0.4947420000000 1.0
C      1  0.5370810000000  0.4988820000000  0.5472820000000 1.0
C      1  0.4798060000000  0.5098400000000  0.5451430000000 1.0
C      1  0.4730290000000  0.4852270000000  0.4825710000000 1.0
C      1  0.5012540000000  0.4843150000000  0.4669590000000 1.0
C      1  0.5243470000000  0.4715330000000  0.4883910000000 1.0
C      1  0.5269710000000  0.4852270000000  0.5174290000000 1.0
C      1  0.4987460000000  0.4843150000000  0.5330410000000 1.0
C      1  0.4756530000000  0.4715330000000  0.5116080000000 1.0
C      1  0.4687780000000  0.5445970000000  0.5064720000000 1.0
C      1  0.4816770000000  0.5476010000000  0.4793510000000 1.0
C      1  0.5106460000000  0.5374470000000  0.4729450000000 1.0
C      1  0.5312220000000  0.5445970000000  0.4935290000000 1.0
C      1  0.5183240000000  0.5476010000000  0.5206490000000 1.0
C      1  0.4893540000000  0.5374470000000  0.5270560000000 1.0
C      1  0.4496370000000  0.5220010000000  0.5550740000000 1.0
C      1  0.4270180000000  0.5239570000000  0.4751220000000 1.0
C      1  0.4804340000000  0.4991550000000  0.4242860000000 1.0
C      1  0.5503630000000  0.5220010000000  0.4449260000000 1.0
C      1  0.5729820000000  0.5239560000000  0.5248780000000 1.0
C      1  0.5195660000000  0.4991540000000  0.5757140000000 1.0
C      1  0.5556490000000  0.5624020000000  0.4779570000000 1.0
C      1  0.5357570000000  0.5473530000000  0.5415830000000 1.0
C      1  0.4920700000000  0.5448980000000  0.5596850000000 1.0
C      1  0.4443520000000  0.5624020000000  0.5220440000000 1.0
C      1  0.4642430000000  0.5473540000000  0.4584180000000 1.0
C      1  0.5079300000000  0.5448990000000  0.4403160000000 1.0
END
