TITL C-27130-3996-152 0.007030852243194 125000 -380.929392870206 0 0 60 (C1) n - 1
REM
REM in /home/nfs/bkarasulu/CARBON/AIRSS/Generating-Clusters/AIREBO/Higher-Symm/Only-C60
REM
REM
REM
REM
REM
REM ./C.cell (28575a23ae977d3b5fae324c64b13b57)
REM
REM compiler GCC version 9.2.1 20190827 (Red Hat 9.2.1-1)
REM options -cpp -mtune=generic -march=x86-64 -g -O0 -fpre-include=/usr/include/finclude/math-vector-fortran.h
REM seed 1037187829 1535585931 2136644072 919962628 1581390921 -1805069090 1213027406 768433424 84351188 2049687300 -351556749 1624182295 -2031540682 -866777765 -14375827 1820658653 -1159784233 -2138141404 580815648 628352586 -841231253 -1103923557 -136757377 1461214572 1187451845 -1105301892 -315379555 -1705273076 1188588300 -129097000 896987326 -649462162 116805708
REM
CELL 1.54180   50.00000   50.00000   50.00000   90.00000   90.00000   90.00000
LATT -1
SFAC C  
C      1  0.4851970000000  0.5532610000000  0.4353420000000 1.0
C      1  0.4368230000000  0.5270150000000  0.4768570000000 1.0
C      1  0.4617500000000  0.5378460000000  0.5638980000000 1.0
C      1  0.5446670000000  0.5246620000000  0.5579150000000 1.0
C      1  0.5614700000000  0.5283560000000  0.4698590000000 1.0
C      1  0.4916310000000  0.4420060000000  0.4299410000000 1.0
C      1  0.4366930000000  0.4659460000000  0.4813610000000 1.0
C      1  0.4709110000000  0.4583740000000  0.5597560000000 1.0
C      1  0.5471430000000  0.4697270000000  0.5561410000000 1.0
C      1  0.5634360000000  0.4731460000000  0.4683780000000 1.0
C      1  0.4819530000000  0.4697070000000  0.4261560000000 1.0
C      1  0.4307320000000  0.4870760000000  0.5056450000000 1.0
C      1  0.4730020000000  0.4904960000000  0.5717260000000 1.0
C      1  0.5644200000000  0.4843330000000  0.5393220000000 1.0
C      1  0.5476170000000  0.4864650000000  0.4494160000000 1.0
C      1  0.4778250000000  0.5257780000000  0.4288290000000 1.0
C      1  0.4304250000000  0.5183860000000  0.5026930000000 1.0
C      1  0.4813230000000  0.5202570000000  0.5739530000000 1.0
C      1  0.5627320000000  0.5127580000000  0.5399210000000 1.0
C      1  0.5460060000000  0.5148820000000  0.4506020000000 1.0
C      1  0.4829660000000  0.4533890000000  0.5131980000000 1.0
C      1  0.5110810000000  0.4527070000000  0.5210260000000 1.0
C      1  0.5271230000000  0.4491990000000  0.4973680000000 1.0
C      1  0.5093130000000  0.4462670000000  0.4751000000000 1.0
C      1  0.4823000000000  0.4517650000000  0.4842890000000 1.0
C      1  0.4833300000000  0.5483640000000  0.5164480000000 1.0
C      1  0.5111130000000  0.5502500000000  0.5240950000000 1.0
C      1  0.5267660000000  0.5530800000000  0.4998900000000 1.0
C      1  0.5085020000000  0.5537330000000  0.4776740000000 1.0
C      1  0.4823500000000  0.5468220000000  0.4876350000000 1.0
C      1  0.4627840000000  0.4584370000000  0.5323990000000 1.0
C      1  0.5204210000000  0.4607650000000  0.5452790000000 1.0
C      1  0.5525700000000  0.4598800000000  0.4944810000000 1.0
C      1  0.5150680000000  0.4469840000000  0.4474330000000 1.0
C      1  0.4614770000000  0.4636440000000  0.4694900000000 1.0
C      1  0.4616980000000  0.5462060000000  0.5335960000000 1.0
C      1  0.5206210000000  0.5424040000000  0.5487360000000 1.0
C      1  0.5514910000000  0.5409820000000  0.4966770000000 1.0
C      1  0.5109260000000  0.5520600000000  0.4497100000000 1.0
C      1  0.4651890000000  0.5328710000000  0.4716440000000 1.0
C      1  0.5724650000000  0.4717060000000  0.5155320000000 1.0
C      1  0.5270820000000  0.4718760000000  0.4372310000000 1.0
C      1  0.4654740000000  0.4796090000000  0.4465680000000 1.0
C      1  0.4425030000000  0.4781250000000  0.5312010000000 1.0
C      1  0.4996690000000  0.4705770000000  0.5674880000000 1.0
C      1  0.5707010000000  0.5275430000000  0.5173370000000 1.0
C      1  0.5239910000000  0.5280490000000  0.4391470000000 1.0
C      1  0.4579470000000  0.5098030000000  0.4476830000000 1.0
C      1  0.4345160000000  0.5337970000000  0.5249300000000 1.0
C      1  0.5079660000000  0.5271940000000  0.5729330000000 1.0
C      1  0.4372860000000  0.5215890000000  0.5531290000000 1.0
C      1  0.5315460000000  0.5089940000000  0.5818370000000 1.0
C      1  0.5806600000000  0.5147090000000  0.4905380000000 1.0
C      1  0.5036510000000  0.5129630000000  0.4253990000000 1.0
C      1  0.4251600000000  0.5083130000000  0.4568130000000 1.0
C      1  0.4444410000000  0.4941180000000  0.5539620000000 1.0
C      1  0.5287450000000  0.4813970000000  0.5781500000000 1.0
C      1  0.5817100000000  0.4865230000000  0.4897070000000 1.0
C      1  0.5061170000000  0.4855340000000  0.4227910000000 1.0
C      1  0.4155280000000  0.4872990000000  0.4737450000000 1.0
END
