TITL C-27133-8107-50 0.000816698317581179 125000 -322.566155634935 0 0 60 (C1) n - 1
REM
REM in /home/nfs/bkarasulu/CARBON/AIRSS/Generating-Clusters/AIREBO/Higher-Symm/Only-C60
REM
REM
REM
REM
REM
REM ./C.cell (28575a23ae977d3b5fae324c64b13b57)
REM
REM compiler GCC version 9.2.1 20190827 (Red Hat 9.2.1-1)
REM options -cpp -mtune=generic -march=x86-64 -g -O0 -fpre-include=/usr/include/finclude/math-vector-fortran.h
REM seed -62408517 2108021139 194714420 -545450096 -1446803907 866236881 1554534890 1872358308 1714240586 732471322 664668915 2007272939 670442385 896662703 -712988022 -1411724497 2029613089 -1681552536 1655173993 -1803722275 -1947316326 1010693766 -1845762763 -1236847144 299532323 -70739432 1122958892 1155431098 -1900774450 2085910973 -83675554 -1384226721 214796779
REM
CELL 1.54180   50.00000   50.00000   50.00000   90.00000   90.00000   90.00000
LATT -1
SFAC C  
C      1  0.4693610000000  0.4791660000000  0.5208420000000 1.0
C      1  0.4690590000000  0.5002690000000  0.4794170000000 1.0
C      1  0.4518110000000  0.5287020000000  0.5180280000000 1.0
C      1  0.5411990000000  0.5283490000000  0.4384040000000 1.0
C      1  0.5376650000000  0.5391510000000  0.5405080000000 1.0
C      1  0.5317190000000  0.4376070000000  0.5199430000000 1.0
C      1  0.4957470000000  0.5484680000000  0.4285380000000 1.0
C      1  0.4908640000000  0.5338140000000  0.5623760000000 1.0
C      1  0.4908520000000  0.4203740000000  0.5006660000000 1.0
C      1  0.5429250000000  0.5704000000000  0.4652030000000 1.0
C      1  0.5382290000000  0.4980770000000  0.5712200000000 1.0
C      1  0.5379360000000  0.4367610000000  0.4698430000000 1.0
C      1  0.4477520000000  0.5078820000000  0.5645390000000 1.0
C      1  0.4514710000000  0.4448140000000  0.4868960000000 1.0
C      1  0.4483470000000  0.5469100000000  0.4726930000000 1.0
C      1  0.4933650000000  0.4332880000000  0.5503770000000 1.0
C      1  0.5047070000000  0.4960990000000  0.4464240000000 1.0
C      1  0.5001040000000  0.5483000000000  0.5087960000000 1.0
C      1  0.5005670000000  0.4902830000000  0.5170450000000 1.0
C      1  0.5023900000000  0.4947430000000  0.4833700000000 1.0
C      1  0.5088410000000  0.5280560000000  0.4859180000000 1.0
C      1  0.4219980000000  0.4838440000000  0.4860070000000 1.0
C      1  0.4207610000000  0.5088570000000  0.4837080000000 1.0
C      1  0.4297280000000  0.4793170000000  0.5246360000000 1.0
C      1  0.5355380000000  0.4873030000000  0.4815510000000 1.0
C      1  0.5398200000000  0.5269940000000  0.4893260000000 1.0
C      1  0.5337130000000  0.4896840000000  0.5222650000000 1.0
C      1  0.4715030000000  0.5376400000000  0.5443360000000 1.0
C      1  0.4728190000000  0.4266380000000  0.5167140000000 1.0
C      1  0.4772820000000  0.5321740000000  0.4326190000000 1.0
C      1  0.4477510000000  0.5233020000000  0.4883030000000 1.0
C      1  0.4503560000000  0.5023740000000  0.5347710000000 1.0
C      1  0.4504790000000  0.4722290000000  0.4942850000000 1.0
C      1  0.5540760000000  0.4578370000000  0.5347620000000 1.0
C      1  0.5520970000000  0.4832370000000  0.4455300000000 1.0
C      1  0.5594980000000  0.5484530000000  0.5161500000000 1.0
C      1  0.5036460000000  0.5531050000000  0.4673500000000 1.0
C      1  0.5044400000000  0.4983810000000  0.5498520000000 1.0
C      1  0.5006260000000  0.4612630000000  0.4775950000000 1.0
C      1  0.5251330000000  0.5535010000000  0.4432050000000 1.0
C      1  0.5219490000000  0.5241680000000  0.5609640000000 1.0
C      1  0.5161890000000  0.4372450000000  0.4920970000000 1.0
C      1  0.4711400000000  0.5551830000000  0.5163590000000 1.0
C      1  0.4692610000000  0.4522200000000  0.5356260000000 1.0
C      1  0.4727260000000  0.5046610000000  0.4475830000000 1.0
C      1  0.5303170000000  0.5008130000000  0.4350530000000 1.0
C      1  0.5198670000000  0.5594790000000  0.5242370000000 1.0
C      1  0.5158050000000  0.4228310000000  0.5413840000000 1.0
C      1  0.4922480000000  0.4827570000000  0.5686340000000 1.0
C      1  0.4856110000000  0.4541230000000  0.4555130000000 1.0
C      1  0.4825970000000  0.5693620000000  0.4708800000000 1.0
C      1  0.5499350000000  0.5579560000000  0.4882110000000 1.0
C      1  0.5443110000000  0.4801860000000  0.5521060000000 1.0
C      1  0.5468760000000  0.4608800000000  0.4633810000000 1.0
C      1  0.4825510000000  0.4744980000000  0.4373430000000 1.0
C      1  0.4676860000000  0.5753170000000  0.4931110000000 1.0
C      1  0.4811020000000  0.4574910000000  0.5658960000000 1.0
C      1  0.5460640000000  0.5166510000000  0.5186620000000 1.0
C      1  0.5444760000000  0.4646360000000  0.5032680000000 1.0
C      1  0.5531120000000  0.5119010000000  0.4656780000000 1.0
END
