TITL C-27140-5627-7 0.00188514168370734 125000 -318.519491778618 0 0 60 (C1) n - 1
REM
REM in /home/nfs/bkarasulu/CARBON/AIRSS/Generating-Clusters/AIREBO/Higher-Symm/Only-C60
REM
REM
REM
REM
REM
REM ./C.cell (28575a23ae977d3b5fae324c64b13b57)
REM
REM compiler GCC version 9.2.1 20190827 (Red Hat 9.2.1-1)
REM options -cpp -mtune=generic -march=x86-64 -g -O0 -fpre-include=/usr/include/finclude/math-vector-fortran.h
REM seed 459219037 -960438077 1876385186 1177266829 1537480032 1199369183 251232798 2115221624 1447771082 -2064211565 1781661887 -526849782 -2020846734 -1668540881 -1522951704 1621727544 -1902522109 -861103766 417484244 -1932265904 1222683462 1463439431 171902494 -1228991956 498058720 330783063 1088043459 2022956415 767560542 -471151839 -485000860 105047396 381707315
REM
CELL 1.54180   50.00000   50.00000   50.00000   90.00000   90.00000   90.00000
LATT -1
SFAC C  
C      1  0.4672060000000  0.5125730000000  0.4498960000000 1.0
C      1  0.4685060000000  0.4834060000000  0.4431010000000 1.0
C      1  0.5251260000000  0.5569150000000  0.4858810000000 1.0
C      1  0.5148210000000  0.4473140000000  0.4890250000000 1.0
C      1  0.5176920000000  0.5115980000000  0.4433580000000 1.0
C      1  0.5215500000000  0.4820280000000  0.4388830000000 1.0
C      1  0.5392690000000  0.5533210000000  0.5171240000000 1.0
C      1  0.5401610000000  0.4510810000000  0.5117900000000 1.0
C      1  0.4438230000000  0.5481740000000  0.4710720000000 1.0
C      1  0.4460460000000  0.4578110000000  0.4845050000000 1.0
C      1  0.5563150000000  0.5456960000000  0.4888330000000 1.0
C      1  0.5615130000000  0.4574990000000  0.4868320000000 1.0
C      1  0.5666340000000  0.5116490000000  0.5245860000000 1.0
C      1  0.5718590000000  0.4856970000000  0.5338770000000 1.0
C      1  0.5409920000000  0.4840830000000  0.4893810000000 1.0
C      1  0.5499940000000  0.5135620000000  0.4980110000000 1.0
C      1  0.4705820000000  0.4770730000000  0.5268870000000 1.0
C      1  0.4725920000000  0.5274270000000  0.5259980000000 1.0
C      1  0.4932770000000  0.5548340000000  0.4872030000000 1.0
C      1  0.4920280000000  0.4325010000000  0.4698070000000 1.0
C      1  0.4679790000000  0.4473180000000  0.5406530000000 1.0
C      1  0.4645150000000  0.5553510000000  0.5436440000000 1.0
C      1  0.4406960000000  0.5151270000000  0.5274190000000 1.0
C      1  0.4394730000000  0.4870450000000  0.5282640000000 1.0
C      1  0.5456070000000  0.5296990000000  0.4454040000000 1.0
C      1  0.5523570000000  0.4781240000000  0.4389470000000 1.0
C      1  0.4876670000000  0.5224420000000  0.4959280000000 1.0
C      1  0.4822140000000  0.4892200000000  0.4973360000000 1.0
C      1  0.5515480000000  0.5321980000000  0.5379520000000 1.0
C      1  0.5502720000000  0.4677040000000  0.5369730000000 1.0
C      1  0.5191490000000  0.5200750000000  0.5082440000000 1.0
C      1  0.5128650000000  0.4783550000000  0.4981650000000 1.0
C      1  0.5109160000000  0.5494420000000  0.5339100000000 1.0
C      1  0.5114600000000  0.4503260000000  0.5285930000000 1.0
C      1  0.4438100000000  0.5140540000000  0.4713990000000 1.0
C      1  0.4591340000000  0.4836620000000  0.4757980000000 1.0
C      1  0.4437040000000  0.5317070000000  0.4989530000000 1.0
C      1  0.4307270000000  0.4614180000000  0.5073450000000 1.0
C      1  0.5029310000000  0.5166120000000  0.5379390000000 1.0
C      1  0.5038140000000  0.4834170000000  0.5305510000000 1.0
C      1  0.4753770000000  0.4050840000000  0.4810820000000 1.0
C      1  0.4771470000000  0.5907280000000  0.4813690000000 1.0
C      1  0.5182110000000  0.5426730000000  0.4584230000000 1.0
C      1  0.5090980000000  0.4566500000000  0.4569200000000 1.0
C      1  0.5633440000000  0.4866320000000  0.4645900000000 1.0
C      1  0.5643690000000  0.5194170000000  0.4676850000000 1.0
C      1  0.4831910000000  0.4191810000000  0.5071850000000 1.0
C      1  0.4842600000000  0.5783290000000  0.5085250000000 1.0
C      1  0.4394770000000  0.4541600000000  0.5369030000000 1.0
C      1  0.4391250000000  0.5488380000000  0.5276710000000 1.0
C      1  0.4907930000000  0.4702050000000  0.4335430000000 1.0
C      1  0.4924920000000  0.5220410000000  0.4622660000000 1.0
C      1  0.5289040000000  0.4771020000000  0.5525430000000 1.0
C      1  0.5320930000000  0.5224570000000  0.5544340000000 1.0
C      1  0.4889580000000  0.5159340000000  0.5669640000000 1.0
C      1  0.5265220000000  0.4825030000000  0.5790930000000 1.0
C      1  0.4664330000000  0.5645350000000  0.4685320000000 1.0
C      1  0.4603280000000  0.4355460000000  0.4789110000000 1.0
C      1  0.4897760000000  0.4330060000000  0.5303430000000 1.0
C      1  0.4892750000000  0.5674390000000  0.5335510000000 1.0
END
