TITL C-27137-4574-51 -0.00051350600958818 125000 -342.910799767003 0 0 60 (C1) n - 1
REM
REM in /home/nfs/bkarasulu/CARBON/AIRSS/Generating-Clusters/AIREBO/Higher-Symm/Only-C60
REM
REM
REM
REM
REM
REM ./C.cell (28575a23ae977d3b5fae324c64b13b57)
REM
REM compiler GCC version 9.2.1 20190827 (Red Hat 9.2.1-1)
REM options -cpp -mtune=generic -march=x86-64 -g -O0 -fpre-include=/usr/include/finclude/math-vector-fortran.h
REM seed 2087882721 396243826 -1351087813 -196936744 -1234249414 729563337 -256432316 -1049238067 -923615093 1699305326 1447571819 -579286859 976084014 -1039509881 459738298 -1734913812 659840075 53657530 -1485469536 -2097696715 -1094927567 974937543 -1874982819 255839603 194172992 -85660931 1579438948 -1506611552 -94198721 -494588389 336762221 646686214 1425285967
REM
CELL 1.54180   50.00000   50.00000   50.00000   90.00000   90.00000   90.00000
LATT -1
SFAC C  
C      1  0.5035030000000  0.5350710000000  0.4521890000000 1.0
C      1  0.4947830000000  0.5284900000000  0.5388550000000 1.0
C      1  0.5052460000000  0.4616290000000  0.5471120000000 1.0
C      1  0.4915850000000  0.4686850000000  0.4431430000000 1.0
C      1  0.4430730000000  0.5236730000000  0.5057170000000 1.0
C      1  0.5430910000000  0.5326070000000  0.4950380000000 1.0
C      1  0.5455500000000  0.4641490000000  0.5049910000000 1.0
C      1  0.4546820000000  0.4598520000000  0.4868670000000 1.0
C      1  0.4386000000000  0.5151200000000  0.5371820000000 1.0
C      1  0.5633240000000  0.5078680000000  0.4853820000000 1.0
C      1  0.4552520000000  0.4852150000000  0.4783300000000 1.0
C      1  0.5598910000000  0.4934320000000  0.5142810000000 1.0
C      1  0.5225340000000  0.5098600000000  0.4489600000000 1.0
C      1  0.4936800000000  0.5126200000000  0.5668150000000 1.0
C      1  0.4722950000000  0.5116280000000  0.4168340000000 1.0
C      1  0.5234230000000  0.5027900000000  0.5677350000000 1.0
C      1  0.4518670000000  0.5495450000000  0.5217430000000 1.0
C      1  0.5400630000000  0.5574850000000  0.4764230000000 1.0
C      1  0.4575560000000  0.4396780000000  0.4677400000000 1.0
C      1  0.5452190000000  0.4410700000000  0.5258230000000 1.0
C      1  0.5201700000000  0.5594870000000  0.4610100000000 1.0
C      1  0.4728300000000  0.5495850000000  0.5351670000000 1.0
C      1  0.4781880000000  0.4413970000000  0.4497910000000 1.0
C      1  0.5279140000000  0.4392090000000  0.5441330000000 1.0
C      1  0.5522830000000  0.4767610000000  0.5423130000000 1.0
C      1  0.4494000000000  0.4932820000000  0.4525330000000 1.0
C      1  0.5708300000000  0.5201470000000  0.4560290000000 1.0
C      1  0.4442070000000  0.5332380000000  0.5587760000000 1.0
C      1  0.5294120000000  0.4783300000000  0.5566410000000 1.0
C      1  0.4698450000000  0.4881380000000  0.4330500000000 1.0
C      1  0.4627050000000  0.5224950000000  0.5764700000000 1.0
C      1  0.5521800000000  0.5205200000000  0.4387340000000 1.0
C      1  0.5613430000000  0.4822660000000  0.4644810000000 1.0
C      1  0.4462840000000  0.4893260000000  0.5459090000000 1.0
C      1  0.5611640000000  0.5156150000000  0.5400240000000 1.0
C      1  0.4385890000000  0.5201900000000  0.4520240000000 1.0
C      1  0.4686780000000  0.4903880000000  0.5683280000000 1.0
C      1  0.5409430000000  0.4829830000000  0.4459500000000 1.0
C      1  0.5403260000000  0.5232330000000  0.5571600000000 1.0
C      1  0.4518640000000  0.5342850000000  0.4302390000000 1.0
C      1  0.5639220000000  0.4594760000000  0.4799060000000 1.0
C      1  0.4439780000000  0.4650150000000  0.5346470000000 1.0
C      1  0.5657620000000  0.5330580000000  0.5174480000000 1.0
C      1  0.4284760000000  0.5286040000000  0.4774650000000 1.0
C      1  0.4829780000000  0.4629090000000  0.5687720000000 1.0
C      1  0.5233650000000  0.4646380000000  0.4352230000000 1.0
C      1  0.5223280000000  0.5427130000000  0.5465970000000 1.0
C      1  0.4837030000000  0.5378200000000  0.4308760000000 1.0
C      1  0.4932190000000  0.5043900000000  0.5161520000000 1.0
C      1  0.4958230000000  0.5149180000000  0.4779300000000 1.0
C      1  0.5078880000000  0.4850000000000  0.4680890000000 1.0
C      1  0.4944920000000  0.4716640000000  0.5194810000000 1.0
C      1  0.5131120000000  0.5284110000000  0.5025470000000 1.0
C      1  0.4674040000000  0.5077340000000  0.4945960000000 1.0
C      1  0.4647130000000  0.4560580000000  0.5143900000000 1.0
C      1  0.5163410000000  0.4680370000000  0.4936500000000 1.0
C      1  0.4944520000000  0.5800760000000  0.5165480000000 1.0
C      1  0.5049640000000  0.4380010000000  0.4950640000000 1.0
C      1  0.4864930000000  0.4332720000000  0.5116600000000 1.0
C      1  0.5022080000000  0.5568620000000  0.5090360000000 1.0
END
