TITL C-27142-7278-43 -0.000127282740942563 125000 -342.710159957977 0 0 60 (C1) n - 1
REM
REM in /home/nfs/bkarasulu/CARBON/AIRSS/Generating-Clusters/AIREBO/Higher-Symm/Only-C60
REM
REM
REM
REM
REM
REM ./C.cell (28575a23ae977d3b5fae324c64b13b57)
REM
REM compiler GCC version 9.2.1 20190827 (Red Hat 9.2.1-1)
REM options -cpp -mtune=generic -march=x86-64 -g -O0 -fpre-include=/usr/include/finclude/math-vector-fortran.h
REM seed -1165534708 -1125683301 -1864659663 1540712485 -1214998080 -837703838 907268611 1960143607 2021457405 -963879978 -1274492363 336200316 1170056484 41310509 -910167632 -2098858645 -325887762 -664020176 1217588109 -607428551 1623203157 -1547370774 -145874560 -2122738405 -893480618 1466855113 1185733155 -370140688 2069467827 -520263526 -260505561 -1286068054 -1890737477
REM
CELL 1.54180   50.00000   50.00000   50.00000   90.00000   90.00000   90.00000
LATT -1
SFAC C  
C      1  0.4782990000000  0.4406420000000  0.5134730000000 1.0
C      1  0.5019040000000  0.4475130000000  0.4686940000000 1.0
C      1  0.5255710000000  0.4337280000000  0.5133690000000 1.0
C      1  0.4760480000000  0.4525360000000  0.4846640000000 1.0
C      1  0.5034160000000  0.4473530000000  0.5289360000000 1.0
C      1  0.5244610000000  0.4348980000000  0.4860950000000 1.0
C      1  0.5487410000000  0.5174600000000  0.5621120000000 1.0
C      1  0.4216200000000  0.5194280000000  0.5115340000000 1.0
C      1  0.5257320000000  0.5053760000000  0.4278280000000 1.0
C      1  0.5480460000000  0.5100080000000  0.4387420000000 1.0
C      1  0.4208680000000  0.5128900000000  0.4870020000000 1.0
C      1  0.5279570000000  0.5104540000000  0.5748540000000 1.0
C      1  0.5248470000000  0.5635760000000  0.4860680000000 1.0
C      1  0.4977970000000  0.5624920000000  0.5315230000000 1.0
C      1  0.4730280000000  0.5614680000000  0.4845930000000 1.0
C      1  0.5233130000000  0.5569670000000  0.5167050000000 1.0
C      1  0.5003980000000  0.5545930000000  0.4713800000000 1.0
C      1  0.4727440000000  0.5551550000000  0.5143390000000 1.0
C      1  0.4496210000000  0.5488920000000  0.5361060000000 1.0
C      1  0.4934870000000  0.5494530000000  0.4402910000000 1.0
C      1  0.5545410000000  0.5562980000000  0.5243710000000 1.0
C      1  0.4524810000000  0.5523980000000  0.4682420000000 1.0
C      1  0.4957080000000  0.5520620000000  0.5572080000000 1.0
C      1  0.5494720000000  0.5560630000000  0.4758840000000 1.0
C      1  0.4509950000000  0.4531970000000  0.4634010000000 1.0
C      1  0.5487600000000  0.4320050000000  0.4718710000000 1.0
C      1  0.4955990000000  0.4503050000000  0.5609560000000 1.0
C      1  0.4556940000000  0.4355880000000  0.5276700000000 1.0
C      1  0.5508330000000  0.4342620000000  0.5257300000000 1.0
C      1  0.4952010000000  0.4257160000000  0.4473260000000 1.0
C      1  0.5135990000000  0.4725790000000  0.4531040000000 1.0
C      1  0.5441260000000  0.4810220000000  0.5324150000000 1.0
C      1  0.4475880000000  0.4809660000000  0.5211770000000 1.0
C      1  0.5170380000000  0.4760390000000  0.5391890000000 1.0
C      1  0.5433850000000  0.4769320000000  0.4606220000000 1.0
C      1  0.4565900000000  0.4773840000000  0.4947270000000 1.0
C      1  0.5502160000000  0.5102910000000  0.5317180000000 1.0
C      1  0.4461680000000  0.5098720000000  0.5280750000000 1.0
C      1  0.4992160000000  0.5025610000000  0.4460130000000 1.0
C      1  0.5504610000000  0.5061420000000  0.4706010000000 1.0
C      1  0.4476920000000  0.5013140000000  0.4722630000000 1.0
C      1  0.5016900000000  0.4994590000000  0.5584930000000 1.0
C      1  0.4996970000000  0.5214690000000  0.4721760000000 1.0
C      1  0.5252270000000  0.5241650000000  0.5159220000000 1.0
C      1  0.4731610000000  0.5230310000000  0.5161880000000 1.0
C      1  0.4992250000000  0.5143020000000  0.5287430000000 1.0
C      1  0.5252690000000  0.5151030000000  0.4873550000000 1.0
C      1  0.4752410000000  0.5133530000000  0.4876690000000 1.0
C      1  0.4564530000000  0.5265090000000  0.5537630000000 1.0
C      1  0.4786550000000  0.5257300000000  0.4384740000000 1.0
C      1  0.5643390000000  0.5320730000000  0.5135660000000 1.0
C      1  0.4549950000000  0.5275690000000  0.4536280000000 1.0
C      1  0.4825410000000  0.5271440000000  0.5633030000000 1.0
C      1  0.5614840000000  0.5317430000000  0.4855990000000 1.0
C      1  0.4404890000000  0.4575780000000  0.5345460000000 1.0
C      1  0.5065160000000  0.4717120000000  0.4217340000000 1.0
C      1  0.5612780000000  0.4589940000000  0.5322650000000 1.0
C      1  0.4426170000000  0.4750590000000  0.4534330000000 1.0
C      1  0.4889030000000  0.4722400000000  0.5720100000000 1.0
C      1  0.5589590000000  0.4548910000000  0.4602650000000 1.0
END
