TITL C-27141-4733-71 -0.00142121048587131 125000 -300.406083907375 0 0 60 (C2) n - 1
REM
REM in /home/nfs/bkarasulu/CARBON/AIRSS/Generating-Clusters/AIREBO/Higher-Symm/Only-C60
REM
REM
REM
REM
REM
REM ./C.cell (28575a23ae977d3b5fae324c64b13b57)
REM
REM compiler GCC version 9.2.1 20190827 (Red Hat 9.2.1-1)
REM options -cpp -mtune=generic -march=x86-64 -g -O0 -fpre-include=/usr/include/finclude/math-vector-fortran.h
REM seed 557585590 -630594858 151133805 1931127336 467622823 -138708063 404816315 1705615582 595270161 93943702 -713841174 934115006 1349186843 589158263 -551243630 -142343101 451928455 948688069 692087055 388823429 1210121406 1124676717 -1575394513 367135161 379973653 -273504136 456897992 -286936834 1209111389 2041081093 119869814 1632774190 -1300135301
REM
CELL 1.54180   50.00000   50.00000   50.00000   90.00000   90.00000   90.00000
LATT -1
SFAC C  
C      1  0.4853770000000  0.4403460000000  0.4899290000000 1.0
C      1  0.4820570000000  0.5404670000000  0.4511450000000 1.0
C      1  0.4815940000000  0.5163560000000  0.5564100000000 1.0
C      1  0.5179470000000  0.5625450000000  0.4893760000000 1.0
C      1  0.5183910000000  0.4593320000000  0.4576260000000 1.0
C      1  0.5146170000000  0.4789050000000  0.5566980000000 1.0
C      1  0.5602440000000  0.5065640000000  0.5204380000000 1.0
C      1  0.5571320000000  0.4739470000000  0.4823190000000 1.0
C      1  0.5524750000000  0.5076100000000  0.4812330000000 1.0
C      1  0.4428450000000  0.5022660000000  0.5314630000000 1.0
C      1  0.4475490000000  0.5200560000000  0.5027620000000 1.0
C      1  0.4397450000000  0.4855790000000  0.4840860000000 1.0
C      1  0.4868460000000  0.4776920000000  0.5476330000000 1.0
C      1  0.4912260000000  0.4749680000000  0.4708250000000 1.0
C      1  0.4903400000000  0.5458330000000  0.4896930000000 1.0
C      1  0.5087610000000  0.5127600000000  0.5362700000000 1.0
C      1  0.5096670000000  0.5318410000000  0.4654580000000 1.0
C      1  0.5131510000000  0.4475930000000  0.4954990000000 1.0
C      1  0.4686710000000  0.4638890000000  0.4479190000000 1.0
C      1  0.4647340000000  0.5672850000000  0.4917330000000 1.0
C      1  0.4579830000000  0.4707230000000  0.5642020000000 1.0
C      1  0.5352650000000  0.5408050000000  0.4458590000000 1.0
C      1  0.5420340000000  0.4297940000000  0.4932460000000 1.0
C      1  0.5313270000000  0.5270640000000  0.5573020000000 1.0
C      1  0.4361920000000  0.5030600000000  0.4577260000000 1.0
C      1  0.4333230000000  0.5343740000000  0.5313680000000 1.0
C      1  0.4356900000000  0.4557890000000  0.5214240000000 1.0
C      1  0.5666790000000  0.4899770000000  0.4545250000000 1.0
C      1  0.5643090000000  0.4593730000000  0.5275760000000 1.0
C      1  0.5638160000000  0.5381290000000  0.5184740000000 1.0
C      1  0.4750910000000  0.4919830000000  0.4326770000000 1.0
C      1  0.4747620000000  0.5609920000000  0.5231240000000 1.0
C      1  0.4707330000000  0.4510150000000  0.5392780000000 1.0
C      1  0.5252420000000  0.5104700000000  0.4356140000000 1.0
C      1  0.5292750000000  0.4415080000000  0.5227770000000 1.0
C      1  0.5249350000000  0.5543160000000  0.5405930000000 1.0
C      1  0.4393810000000  0.5522050000000  0.5030580000000 1.0
C      1  0.4355360000000  0.4752920000000  0.5416660000000 1.0
C      1  0.4395380000000  0.4712270000000  0.4556440000000 1.0
C      1  0.5644630000000  0.4516130000000  0.5005590000000 1.0
C      1  0.5604590000000  0.5240240000000  0.5470850000000 1.0
C      1  0.5606340000000  0.5235040000000  0.4532740000000 1.0
C      1  0.5235490000000  0.4783490000000  0.4853480000000 1.0
C      1  0.5276960000000  0.5240150000000  0.4932540000000 1.0
C      1  0.5284430000000  0.4967250000000  0.5135410000000 1.0
C      1  0.4723230000000  0.5178390000000  0.4825750000000 1.0
C      1  0.4715360000000  0.4866300000000  0.4960700000000 1.0
C      1  0.4764210000000  0.5018570000000  0.5260820000000 1.0
C      1  0.4664800000000  0.5361580000000  0.5340890000000 1.0
C      1  0.4658230000000  0.4550290000000  0.5072700000000 1.0
C      1  0.4634380000000  0.5161240000000  0.4497970000000 1.0
C      1  0.5341710000000  0.4712330000000  0.5353140000000 1.0
C      1  0.5365800000000  0.5515480000000  0.5111230000000 1.0
C      1  0.5335160000000  0.4885490000000  0.4516320000000 1.0
C      1  0.5215370000000  0.5006070000000  0.5722780000000 1.0
C      1  0.5296690000000  0.4330510000000  0.4622010000000 1.0
C      1  0.5280470000000  0.5672600000000  0.4637460000000 1.0
C      1  0.4703390000000  0.4992480000000  0.5768900000000 1.0
C      1  0.4719470000000  0.5650160000000  0.4598780000000 1.0
C      1  0.4784500000000  0.4376930000000  0.4633480000000 1.0
END
