TITL C-27143-4867-59 0.00261620295474726 125000 -341.794938227557 0 0 60 (C1) n - 1
REM
REM in /home/nfs/bkarasulu/CARBON/AIRSS/Generating-Clusters/AIREBO/Higher-Symm/Only-C60
REM
REM
REM
REM
REM
REM ./C.cell (28575a23ae977d3b5fae324c64b13b57)
REM
REM compiler GCC version 9.2.1 20190827 (Red Hat 9.2.1-1)
REM options -cpp -mtune=generic -march=x86-64 -g -O0 -fpre-include=/usr/include/finclude/math-vector-fortran.h
REM seed 1951477255 -1564306635 1526726138 -709739477 -855463997 2051637372 -865668426 1088441743 -904799321 -899923026 135305241 1254381873 -556511932 -1357507880 1456706318 1151482783 -1309335380 1063782034 500284311 -586271726 -853715199 232372951 -850956380 -1284776817 -291911418 2016191640 1952943292 377087636 1896133010 -551134633 -704881943 26520408 -726594891
REM
CELL 1.54180   50.00000   50.00000   50.00000   90.00000   90.00000   90.00000
LATT -1
SFAC C  
C      1  0.5683640000000  0.4650710000000  0.5025680000000 1.0
C      1  0.4660270000000  0.4725260000000  0.4455250000000 1.0
C      1  0.4725910000000  0.4744750000000  0.5543830000000 1.0
C      1  0.5254450000000  0.5328510000000  0.4815500000000 1.0
C      1  0.4702860000000  0.5386190000000  0.4886640000000 1.0
C      1  0.5009400000000  0.5394440000000  0.5368790000000 1.0
C      1  0.5516220000000  0.4535000000000  0.5225230000000 1.0
C      1  0.4900000000000  0.4537940000000  0.4459920000000 1.0
C      1  0.4599490000000  0.4574720000000  0.5346980000000 1.0
C      1  0.5051840000000  0.4763420000000  0.5289290000000 1.0
C      1  0.5237260000000  0.4492060000000  0.4604740000000 1.0
C      1  0.4731870000000  0.4705370000000  0.4844680000000 1.0
C      1  0.4943930000000  0.5572810000000  0.4841590000000 1.0
C      1  0.4747320000000  0.5586820000000  0.5330140000000 1.0
C      1  0.5169210000000  0.5563450000000  0.5046100000000 1.0
C      1  0.4671950000000  0.5054040000000  0.5449340000000 1.0
C      1  0.5581120000000  0.4868410000000  0.4879610000000 1.0
C      1  0.4787530000000  0.5034600000000  0.4446010000000 1.0
C      1  0.4686490000000  0.5415120000000  0.4379690000000 1.0
C      1  0.4560570000000  0.5393510000000  0.5626270000000 1.0
C      1  0.5657000000000  0.5365180000000  0.5098760000000 1.0
C      1  0.4745640000000  0.5085620000000  0.4959170000000 1.0
C      1  0.5204560000000  0.5131540000000  0.5276660000000 1.0
C      1  0.5189810000000  0.5016040000000  0.4736890000000 1.0
C      1  0.4906180000000  0.4943820000000  0.4726360000000 1.0
C      1  0.4885880000000  0.5023350000000  0.5218010000000 1.0
C      1  0.5348620000000  0.4993490000000  0.5010580000000 1.0
C      1  0.5292960000000  0.4789610000000  0.4504960000000 1.0
C      1  0.4482310000000  0.4864430000000  0.4964380000000 1.0
C      1  0.5265370000000  0.4875790000000  0.5492420000000 1.0
C      1  0.5254670000000  0.5608660000000  0.5328640000000 1.0
C      1  0.5107370000000  0.5536890000000  0.4588980000000 1.0
C      1  0.4572910000000  0.5528150000000  0.5135650000000 1.0
C      1  0.5553620000000  0.4932200000000  0.4595870000000 1.0
C      1  0.4518050000000  0.4973700000000  0.4644280000000 1.0
C      1  0.4964220000000  0.4984160000000  0.5608030000000 1.0
C      1  0.5281810000000  0.4395520000000  0.5128140000000 1.0
C      1  0.4936200000000  0.4308950000000  0.4708780000000 1.0
C      1  0.4781020000000  0.4409820000000  0.5189440000000 1.0
C      1  0.5525160000000  0.5217020000000  0.4546490000000 1.0
C      1  0.4349590000000  0.5211860000000  0.4819130000000 1.0
C      1  0.5135710000000  0.5255630000000  0.5720160000000 1.0
C      1  0.5241060000000  0.4317610000000  0.4859190000000 1.0
C      1  0.4755030000000  0.4440820000000  0.4907160000000 1.0
C      1  0.5045940000000  0.4492260000000  0.5250450000000 1.0
C      1  0.4954160000000  0.5273140000000  0.4336230000000 1.0
C      1  0.4434880000000  0.5251150000000  0.5388390000000 1.0
C      1  0.5499110000000  0.5295340000000  0.5322090000000 1.0
C      1  0.4838440000000  0.5361380000000  0.5647610000000 1.0
C      1  0.5571200000000  0.5357200000000  0.4828980000000 1.0
C      1  0.4537720000000  0.5377070000000  0.4614810000000 1.0
C      1  0.5686990000000  0.4671110000000  0.5671890000000 1.0
C      1  0.5148040000000  0.4650440000000  0.4005350000000 1.0
C      1  0.4122250000000  0.4694650000000  0.5274430000000 1.0
C      1  0.5122590000000  0.4648450000000  0.4263640000000 1.0
C      1  0.4385090000000  0.4701740000000  0.5199220000000 1.0
C      1  0.5497520000000  0.4683360000000  0.5474740000000 1.0
C      1  0.5345960000000  0.5397840000000  0.5580810000000 1.0
C      1  0.5262790000000  0.5310560000000  0.4416740000000 1.0
C      1  0.4371260000000  0.5297330000000  0.5091220000000 1.0
END
