TITL C-27139-4854-53 5.1758974803934e-05 125000 -349.034901055392 0 0 60 (C1) n - 1
REM
REM in /home/nfs/bkarasulu/CARBON/AIRSS/Generating-Clusters/AIREBO/Higher-Symm/Only-C60
REM
REM
REM
REM
REM
REM ./C.cell (28575a23ae977d3b5fae324c64b13b57)
REM
REM compiler GCC version 9.2.1 20190827 (Red Hat 9.2.1-1)
REM options -cpp -mtune=generic -march=x86-64 -g -O0 -fpre-include=/usr/include/finclude/math-vector-fortran.h
REM seed 157699674 620856142 1231516041 1479660329 -1738463215 -193512483 2101474542 1437485888 -176805555 120800026 -854628349 229299459 734014283 1037784020 558281179 443945468 934096837 1207799107 2006939758 1557585942 -1849991459 987130114 2017459849 -315021538 -711983740 -1580755755 -855054164 -2025549873 -1574857931 -1665713429 245828486 1389186374 -407552325
REM
CELL 1.54180   50.00000   50.00000   50.00000   90.00000   90.00000   90.00000
LATT -1
SFAC C  
C      1  0.5370190000000  0.5621090000000  0.4674640000000 1.0
C      1  0.5065800000000  0.5640290000000  0.5469260000000 1.0
C      1  0.4573150000000  0.5659540000000  0.4872960000000 1.0
C      1  0.4729360000000  0.5185870000000  0.4544020000000 1.0
C      1  0.5566960000000  0.5160260000000  0.5030650000000 1.0
C      1  0.4702540000000  0.5177920000000  0.5459570000000 1.0
C      1  0.5057540000000  0.4960660000000  0.5919380000000 1.0
C      1  0.4196220000000  0.4959000000000  0.4585170000000 1.0
C      1  0.5720420000000  0.4949530000000  0.4383380000000 1.0
C      1  0.5196460000000  0.5186490000000  0.5841910000000 1.0
C      1  0.4182310000000  0.5183340000000  0.4747170000000 1.0
C      1  0.5568510000000  0.5166750000000  0.4305640000000 1.0
C      1  0.6068090000000  0.5009960000000  0.5005160000000 1.0
C      1  0.4532500000000  0.4966400000000  0.5919970000000 1.0
C      1  0.4399690000000  0.5048560000000  0.4160240000000 1.0
C      1  0.4828960000000  0.5306840000000  0.4910790000000 1.0
C      1  0.5237360000000  0.5289700000000  0.4854580000000 1.0
C      1  0.5070630000000  0.5282570000000  0.5144690000000 1.0
C      1  0.5302730000000  0.4685310000000  0.5410230000000 1.0
C      1  0.4498990000000  0.4693420000000  0.5053000000000 1.0
C      1  0.5172620000000  0.4672770000000  0.4550570000000 1.0
C      1  0.5448090000000  0.4550950000000  0.4566840000000 1.0
C      1  0.5110760000000  0.4558320000000  0.5603460000000 1.0
C      1  0.4477800000000  0.4575760000000  0.4776580000000 1.0
C      1  0.5374340000000  0.4462780000000  0.5207180000000 1.0
C      1  0.4572720000000  0.4461110000000  0.5238010000000 1.0
C      1  0.4984450000000  0.4460110000000  0.4635250000000 1.0
C      1  0.4554280000000  0.5121160000000  0.4358990000000 1.0
C      1  0.5818210000000  0.5088940000000  0.5005590000000 1.0
C      1  0.4626200000000  0.5075190000000  0.5700730000000 1.0
C      1  0.5647460000000  0.4690630000000  0.4433780000000 1.0
C      1  0.5076410000000  0.4698790000000  0.5841150000000 1.0
C      1  0.4281780000000  0.4700260000000  0.4620900000000 1.0
C      1  0.4888110000000  0.5439600000000  0.4573080000000 1.0
C      1  0.5443210000000  0.5425700000000  0.5127250000000 1.0
C      1  0.4631000000000  0.5424850000000  0.5346230000000 1.0
C      1  0.4880160000000  0.5029600000000  0.5265360000000 1.0
C      1  0.4838960000000  0.5004980000000  0.4773780000000 1.0
C      1  0.5304990000000  0.4984720000000  0.4984130000000 1.0
C      1  0.5167990000000  0.4933310000000  0.4349360000000 1.0
C      1  0.5446210000000  0.4960910000000  0.5522200000000 1.0
C      1  0.4330100000000  0.4958830000000  0.5121600000000 1.0
C      1  0.4553940000000  0.5393730000000  0.5048350000000 1.0
C      1  0.5187730000000  0.5381890000000  0.4564630000000 1.0
C      1  0.5249210000000  0.5400940000000  0.5378450000000 1.0
C      1  0.4950630000000  0.4331590000000  0.4948270000000 1.0
C      1  0.5273320000000  0.4353650000000  0.4981580000000 1.0
C      1  0.4823180000000  0.4354100000000  0.5232070000000 1.0
C      1  0.4692070000000  0.4411260000000  0.4730370000000 1.0
C      1  0.5438780000000  0.4339570000000  0.4752950000000 1.0
C      1  0.4965760000000  0.4357450000000  0.5472780000000 1.0
C      1  0.5293610000000  0.5176460000000  0.4367620000000 1.0
C      1  0.5329300000000  0.5198540000000  0.5593200000000 1.0
C      1  0.4325400000000  0.5198110000000  0.4990410000000 1.0
C      1  0.4792650000000  0.5639190000000  0.5432870000000 1.0
C      1  0.4724600000000  0.5675900000000  0.4670100000000 1.0
C      1  0.5444740000000  0.5643610000000  0.4914300000000 1.0
C      1  0.4718860000000  0.4912560000000  0.5043580000000 1.0
C      1  0.5120940000000  0.4909170000000  0.4743980000000 1.0
C      1  0.5171080000000  0.4909460000000  0.5240030000000 1.0
END
