TITL C-27138-9601-17 0.0173958018331213 125000 -321.671955439844 0 0 60 (C1) n - 1
REM
REM in /home/nfs/bkarasulu/CARBON/AIRSS/Generating-Clusters/AIREBO/Higher-Symm/Only-C60
REM
REM
REM
REM
REM
REM ./C.cell (28575a23ae977d3b5fae324c64b13b57)
REM
REM compiler GCC version 9.2.1 20190827 (Red Hat 9.2.1-1)
REM options -cpp -mtune=generic -march=x86-64 -g -O0 -fpre-include=/usr/include/finclude/math-vector-fortran.h
REM seed -541112599 652452677 1618702941 -362478602 909380870 -323046631 -1582916492 2143542564 1675549381 -1749002270 -196073353 -1770832859 697491926 -1385084705 -1473353711 -62647224 1393087086 -1721462266 -937943894 -1616070349 341991766 1591159157 1883177380 103242896 2024319580 2090242401 523262476 2037496022 254830951 454154283 1027902598 1185271840 -1653643052
REM
CELL 1.54180   50.00000   50.00000   50.00000   90.00000   90.00000   90.00000
LATT -1
SFAC C  
C      1  0.5183310000000  0.5489410000000  0.4601390000000 1.0
C      1  0.4448900000000  0.5538630000000  0.4665130000000 1.0
C      1  0.4480030000000  0.4799150000000  0.4707880000000 1.0
C      1  0.5090340000000  0.4422340000000  0.4635840000000 1.0
C      1  0.5703190000000  0.4937710000000  0.4679680000000 1.0
C      1  0.4701310000000  0.5648540000000  0.4581900000000 1.0
C      1  0.4312560000000  0.4995330000000  0.4529830000000 1.0
C      1  0.4808590000000  0.4368860000000  0.4566260000000 1.0
C      1  0.5581710000000  0.4687110000000  0.4600280000000 1.0
C      1  0.5474770000000  0.5416530000000  0.4586210000000 1.0
C      1  0.5607530000000  0.5173920000000  0.5424630000000 1.0
C      1  0.5026980000000  0.5554030000000  0.5368150000000 1.0
C      1  0.4503160000000  0.5205890000000  0.5388990000000 1.0
C      1  0.4441550000000  0.4534390000000  0.5459500000000 1.0
C      1  0.5293930000000  0.4399560000000  0.5421480000000 1.0
C      1  0.4729340000000  0.4978180000000  0.4818350000000 1.0
C      1  0.5064820000000  0.4686300000000  0.4829960000000 1.0
C      1  0.5205750000000  0.4935810000000  0.4945520000000 1.0
C      1  0.5176030000000  0.5182450000000  0.4710980000000 1.0
C      1  0.4947740000000  0.5132450000000  0.4944460000000 1.0
C      1  0.5611370000000  0.5228850000000  0.4749260000000 1.0
C      1  0.4964440000000  0.5637390000000  0.4697080000000 1.0
C      1  0.4360190000000  0.5272970000000  0.4625290000000 1.0
C      1  0.4599580000000  0.4509500000000  0.4727490000000 1.0
C      1  0.5395950000000  0.4495650000000  0.4716670000000 1.0
C      1  0.4948560000000  0.4698580000000  0.5329260000000 1.0
C      1  0.5271850000000  0.4718280000000  0.5418800000000 1.0
C      1  0.5294830000000  0.5273990000000  0.5456550000000 1.0
C      1  0.4980630000000  0.5233560000000  0.5329780000000 1.0
C      1  0.4755790000000  0.4979550000000  0.5364390000000 1.0
C      1  0.5650500000000  0.4975060000000  0.5178450000000 1.0
C      1  0.5232080000000  0.5688500000000  0.5142290000000 1.0
C      1  0.4503850000000  0.5341130000000  0.5099980000000 1.0
C      1  0.4424830000000  0.4599130000000  0.5185620000000 1.0
C      1  0.5168250000000  0.4304760000000  0.5138780000000 1.0
C      1  0.4831000000000  0.5193680000000  0.4326550000000 1.0
C      1  0.4792580000000  0.4958580000000  0.4513130000000 1.0
C      1  0.5011910000000  0.4783310000000  0.4508400000000 1.0
C      1  0.5223790000000  0.4873550000000  0.4307980000000 1.0
C      1  0.5124780000000  0.5149810000000  0.4399630000000 1.0
C      1  0.5395050000000  0.4502280000000  0.5006060000000 1.0
C      1  0.5589330000000  0.5266060000000  0.5035960000000 1.0
C      1  0.4961940000000  0.5626580000000  0.4980520000000 1.0
C      1  0.4375220000000  0.5087880000000  0.4910150000000 1.0
C      1  0.4646610000000  0.4472310000000  0.5005310000000 1.0
C      1  0.4820830000000  0.5379580000000  0.5075740000000 1.0
C      1  0.4566010000000  0.4880080000000  0.5100120000000 1.0
C      1  0.4935710000000  0.4526080000000  0.5078850000000 1.0
C      1  0.5406470000000  0.4799250000000  0.5145050000000 1.0
C      1  0.5412820000000  0.5428310000000  0.5188090000000 1.0
C      1  0.5204260000000  0.5147690000000  0.5723050000000 1.0
C      1  0.4933890000000  0.5205170000000  0.5811000000000 1.0
C      1  0.4761720000000  0.4995160000000  0.5704040000000 1.0
C      1  0.4946660000000  0.4766120000000  0.5643590000000 1.0
C      1  0.5232060000000  0.4863010000000  0.5706390000000 1.0
C      1  0.5347930000000  0.5938040000000  0.5138820000000 1.0
C      1  0.4386000000000  0.5593260000000  0.4945010000000 1.0
C      1  0.4161630000000  0.4561850000000  0.5088680000000 1.0
C      1  0.5135530000000  0.4034680000000  0.5093520000000 1.0
C      1  0.5852030000000  0.4924220000000  0.4938230000000 1.0
END
