TITL C-27134-4977-6 0.00239756270447079 125000 -341.798158426932 0 0 60 (C1) n - 1
REM
REM in /home/nfs/bkarasulu/CARBON/AIRSS/Generating-Clusters/AIREBO/Higher-Symm/Only-C60
REM
REM
REM
REM
REM
REM ./C.cell (28575a23ae977d3b5fae324c64b13b57)
REM
REM compiler GCC version 9.2.1 20190827 (Red Hat 9.2.1-1)
REM options -cpp -mtune=generic -march=x86-64 -g -O0 -fpre-include=/usr/include/finclude/math-vector-fortran.h
REM seed -116269849 1169774741 1478241617 402430685 -1051629679 -817730600 -1494028120 1129331217 57910692 67679947 -942653198 -120629849 -1777532624 1576114218 -1501953075 405625533 -1159538881 -1575650543 -1665544035 -1467421346 -946500371 -683033740 -1464009228 1801101434 1026091975 188924646 -1798862522 984522334 1637911315 445635524 -1301564482 1351684915 -900027924
REM
CELL 1.54180   50.00000   50.00000   50.00000   90.00000   90.00000   90.00000
LATT -1
SFAC C  
C      1  0.4615540000000  0.5302350000000  0.5422050000000 1.0
C      1  0.5057900000000  0.5380020000000  0.5621460000000 1.0
C      1  0.5476560000000  0.5314000000000  0.5288800000000 1.0
C      1  0.5601620000000  0.5387590000000  0.4821480000000 1.0
C      1  0.5189170000000  0.5307910000000  0.4489830000000 1.0
C      1  0.4695670000000  0.5363130000000  0.4483090000000 1.0
C      1  0.4446980000000  0.5303980000000  0.4933830000000 1.0
C      1  0.4802900000000  0.5032400000000  0.5333980000000 1.0
C      1  0.5134190000000  0.4956940000000  0.5374750000000 1.0
C      1  0.5338050000000  0.5053330000000  0.5119890000000 1.0
C      1  0.5370200000000  0.4948410000000  0.4796010000000 1.0
C      1  0.5069610000000  0.5049060000000  0.4672700000000 1.0
C      1  0.4748430000000  0.4952580000000  0.4730040000000 1.0
C      1  0.4626600000000  0.5034520000000  0.5037400000000 1.0
C      1  0.4422000000000  0.5038890000000  0.5455110000000 1.0
C      1  0.5032160000000  0.5099840000000  0.5651390000000 1.0
C      1  0.5597930000000  0.5057460000000  0.5438800000000 1.0
C      1  0.5644410000000  0.5110080000000  0.4841570000000 1.0
C      1  0.5318570000000  0.5061000000000  0.4333600000000 1.0
C      1  0.4642000000000  0.5103810000000  0.4376410000000 1.0
C      1  0.4273630000000  0.5056280000000  0.4826820000000 1.0
C      1  0.4975220000000  0.5708990000000  0.4666700000000 1.0
C      1  0.4730460000000  0.5692320000000  0.4827020000000 1.0
C      1  0.4698230000000  0.5686080000000  0.5112950000000 1.0
C      1  0.4887740000000  0.5712480000000  0.5326600000000 1.0
C      1  0.5176470000000  0.5702530000000  0.5288170000000 1.0
C      1  0.5342660000000  0.5723160000000  0.5049710000000 1.0
C      1  0.5248020000000  0.5710100000000  0.4769950000000 1.0
C      1  0.5032210000000  0.4339560000000  0.5398730000000 1.0
C      1  0.5282310000000  0.4401000000000  0.5294420000000 1.0
C      1  0.5357470000000  0.4391790000000  0.4975810000000 1.0
C      1  0.5208470000000  0.4432180000000  0.4670890000000 1.0
C      1  0.4871870000000  0.4428780000000  0.4712790000000 1.0
C      1  0.4644570000000  0.4422850000000  0.4965820000000 1.0
C      1  0.4712410000000  0.4394870000000  0.5297890000000 1.0
C      1  0.4837900000000  0.4825250000000  0.5601480000000 1.0
C      1  0.5422630000000  0.4849770000000  0.5452780000000 1.0
C      1  0.5731070000000  0.4825060000000  0.4913200000000 1.0
C      1  0.5380750000000  0.4853140000000  0.4497040000000 1.0
C      1  0.4678560000000  0.4805610000000  0.4443210000000 1.0
C      1  0.4427530000000  0.4841990000000  0.4751400000000 1.0
C      1  0.4453580000000  0.4863760000000  0.5241720000000 1.0
C      1  0.5402050000000  0.5491890000000  0.4636220000000 1.0
C      1  0.4950200000000  0.5495340000000  0.4460260000000 1.0
C      1  0.4564470000000  0.5478920000000  0.4709590000000 1.0
C      1  0.4513170000000  0.5476060000000  0.5182690000000 1.0
C      1  0.4818810000000  0.5511720000000  0.5533810000000 1.0
C      1  0.5277040000000  0.5484390000000  0.5461560000000 1.0
C      1  0.5558120000000  0.5519560000000  0.5073420000000 1.0
C      1  0.5444890000000  0.4573250000000  0.5445280000000 1.0
C      1  0.5617980000000  0.4574540000000  0.4920170000000 1.0
C      1  0.5337600000000  0.4577450000000  0.4482790000000 1.0
C      1  0.4709600000000  0.4534620000000  0.4464010000000 1.0
C      1  0.4404640000000  0.4579410000000  0.4809770000000 1.0
C      1  0.4470210000000  0.4593370000000  0.5203770000000 1.0
C      1  0.4857360000000  0.4556910000000  0.5559490000000 1.0
C      1  0.5024300000000  0.4328160000000  0.4999610000000 1.0
C      1  0.5051870000000  0.4648870000000  0.4988770000000 1.0
C      1  0.5036000000000  0.4955510000000  0.4997900000000 1.0
C      1  0.5050110000000  0.5288260000000  0.4986320000000 1.0
END
