TITL C-27136-4842-17 -0.00175670121121583 125000 -313.174692450648 0 0 60 (C1) n - 1
REM
REM in /home/nfs/bkarasulu/CARBON/AIRSS/Generating-Clusters/AIREBO/Higher-Symm/Only-C60
REM
REM
REM
REM
REM
REM ./C.cell (28575a23ae977d3b5fae324c64b13b57)
REM
REM compiler GCC version 9.2.1 20190827 (Red Hat 9.2.1-1)
REM options -cpp -mtune=generic -march=x86-64 -g -O0 -fpre-include=/usr/include/finclude/math-vector-fortran.h
REM seed -1385036295 -940055940 1013488916 46331753 -1162621900 -1418665200 1299127937 832777466 1281245819 1656047636 1368548356 371412152 -97050908 1835837193 930240102 95381268 -1692945884 964250576 398630526 -599143576 1554272080 1127424118 1769557470 1043895101 1760357418 1189516612 -1028650669 493347148 1576380421 1718851023 -783021083 1556543556 2124390732
REM
CELL 1.54180   50.00000   50.00000   50.00000   90.00000   90.00000   90.00000
LATT -1
SFAC C  
C      1  0.5262660000000  0.4580420000000  0.4536120000000 1.0
C      1  0.4576650000000  0.5065220000000  0.4413490000000 1.0
C      1  0.5343260000000  0.5695320000000  0.5325000000000 1.0
C      1  0.5063000000000  0.5705960000000  0.5470830000000 1.0
C      1  0.5085640000000  0.5220380000000  0.5596880000000 1.0
C      1  0.4684360000000  0.4614800000000  0.5435220000000 1.0
C      1  0.5082130000000  0.4890400000000  0.5240830000000 1.0
C      1  0.4688420000000  0.5091780000000  0.5302340000000 1.0
C      1  0.4728650000000  0.4910130000000  0.5526620000000 1.0
C      1  0.4880560000000  0.4382820000000  0.5282610000000 1.0
C      1  0.5158500000000  0.4768270000000  0.5708190000000 1.0
C      1  0.4851360000000  0.5173510000000  0.4518320000000 1.0
C      1  0.4246750000000  0.5286590000000  0.4830930000000 1.0
C      1  0.5208900000000  0.5422790000000  0.5068180000000 1.0
C      1  0.4804360000000  0.4323870000000  0.4981890000000 1.0
C      1  0.5202640000000  0.4629550000000  0.5107520000000 1.0
C      1  0.5427410000000  0.5023320000000  0.4799550000000 1.0
C      1  0.4944650000000  0.4928020000000  0.4700380000000 1.0
C      1  0.4760020000000  0.4690970000000  0.4805310000000 1.0
C      1  0.5143330000000  0.4355140000000  0.4984120000000 1.0
C      1  0.5477450000000  0.4348020000000  0.5049570000000 1.0
C      1  0.5479770000000  0.4059940000000  0.4688400000000 1.0
C      1  0.5314970000000  0.5101920000000  0.5370070000000 1.0
C      1  0.5291740000000  0.4250600000000  0.4710150000000 1.0
C      1  0.4341040000000  0.4742700000000  0.5020330000000 1.0
C      1  0.5048090000000  0.5217660000000  0.4278980000000 1.0
C      1  0.5255540000000  0.5389480000000  0.4366740000000 1.0
C      1  0.4487130000000  0.5303720000000  0.5145130000000 1.0
C      1  0.4560780000000  0.5375240000000  0.4820930000000 1.0
C      1  0.5450030000000  0.5395680000000  0.5287200000000 1.0
C      1  0.5862070000000  0.5193790000000  0.5029870000000 1.0
C      1  0.4836080000000  0.5464150000000  0.4696080000000 1.0
C      1  0.5230740000000  0.4828050000000  0.4639450000000 1.0
C      1  0.5128150000000  0.5584930000000  0.4580020000000 1.0
C      1  0.4924080000000  0.5470170000000  0.5162020000000 1.0
C      1  0.5743490000000  0.5367340000000  0.5201340000000 1.0
C      1  0.5067200000000  0.4349720000000  0.4517530000000 1.0
C      1  0.4946780000000  0.4978580000000  0.5688100000000 1.0
C      1  0.4947420000000  0.5462810000000  0.5557810000000 1.0
C      1  0.4564720000000  0.4561290000000  0.4559030000000 1.0
C      1  0.5759280000000  0.5052180000000  0.4819830000000 1.0
C      1  0.5091730000000  0.5830780000000  0.5155520000000 1.0
C      1  0.4275590000000  0.5049160000000  0.5053030000000 1.0
C      1  0.5395750000000  0.4901920000000  0.5633050000000 1.0
C      1  0.4482090000000  0.4432450000000  0.4928030000000 1.0
C      1  0.5597050000000  0.4574980000000  0.5103840000000 1.0
C      1  0.5161710000000  0.5151450000000  0.4950960000000 1.0
C      1  0.5329770000000  0.5536080000000  0.4805650000000 1.0
C      1  0.4857570000000  0.5014670000000  0.5017620000000 1.0
C      1  0.4281270000000  0.4614100000000  0.4716920000000 1.0
C      1  0.5435830000000  0.4864210000000  0.5099970000000 1.0
C      1  0.4716220000000  0.5705760000000  0.5127600000000 1.0
C      1  0.4682580000000  0.5408850000000  0.5393370000000 1.0
C      1  0.5016450000000  0.4642300000000  0.5455640000000 1.0
C      1  0.4921350000000  0.5740910000000  0.4875300000000 1.0
C      1  0.5415780000000  0.5311540000000  0.4619430000000 1.0
C      1  0.4813800000000  0.4390270000000  0.4654470000000 1.0
C      1  0.4640630000000  0.4659400000000  0.5122160000000 1.0
C      1  0.4557450000000  0.5037350000000  0.4859100000000 1.0
C      1  0.4467560000000  0.4876590000000  0.4605380000000 1.0
END
