TITL C-27135-6010-177 0.00020417348296546 125000 -337.736062406969 0 0 60 (C1) n - 1
REM
REM in /home/nfs/bkarasulu/CARBON/AIRSS/Generating-Clusters/AIREBO/Higher-Symm/Only-C60
REM
REM
REM
REM
REM
REM ./C.cell (28575a23ae977d3b5fae324c64b13b57)
REM
REM compiler GCC version 9.2.1 20190827 (Red Hat 9.2.1-1)
REM options -cpp -mtune=generic -march=x86-64 -g -O0 -fpre-include=/usr/include/finclude/math-vector-fortran.h
REM seed 1594633984 1759185920 1725899243 -2046066935 1134391733 -758067663 1634245994 395243292 389983547 916992170 -1644790876 -1592857633 1244665656 -59123053 -1185036061 -2135511033 250101996 1844943597 -76755493 664995939 -976812825 1235901632 1238657352 944000442 -17620433 -679743555 408915550 1020504749 1490209434 427646086 927042509 2004289845 1146921549
REM
CELL 1.54180   50.00000   50.00000   50.00000   90.00000   90.00000   90.00000
LATT -1
SFAC C  
C      1  0.5254140000000  0.4326000000000  0.5449640000000 1.0
C      1  0.5248560000000  0.4343510000000  0.4548690000000 1.0
C      1  0.4536550000000  0.4278770000000  0.4986080000000 1.0
C      1  0.4702420000000  0.4392700000000  0.5497360000000 1.0
C      1  0.4757410000000  0.4348270000000  0.4533880000000 1.0
C      1  0.5431680000000  0.4268700000000  0.5002020000000 1.0
C      1  0.4713560000000  0.4774420000000  0.5491810000000 1.0
C      1  0.5543460000000  0.4774870000000  0.5007750000000 1.0
C      1  0.4750000000000  0.4850580000000  0.4583280000000 1.0
C      1  0.5233510000000  0.4832240000000  0.5439520000000 1.0
C      1  0.4477990000000  0.4792350000000  0.5000750000000 1.0
C      1  0.5261570000000  0.4845510000000  0.4587400000000 1.0
C      1  0.5315240000000  0.5501870000000  0.4985010000000 1.0
C      1  0.4761020000000  0.5429470000000  0.4717070000000 1.0
C      1  0.4862450000000  0.5494520000000  0.5228400000000 1.0
C      1  0.4657940000000  0.5355150000000  0.5004180000000 1.0
C      1  0.5244350000000  0.5399380000000  0.4736340000000 1.0
C      1  0.5134580000000  0.5393610000000  0.5233230000000 1.0
C      1  0.4505950000000  0.5011020000000  0.5448640000000 1.0
C      1  0.5629040000000  0.5014940000000  0.5196370000000 1.0
C      1  0.4871210000000  0.5039870000000  0.4363420000000 1.0
C      1  0.5490640000000  0.5023590000000  0.5432320000000 1.0
C      1  0.4346660000000  0.4989500000000  0.5222910000000 1.0
C      1  0.5144710000000  0.5037390000000  0.4363050000000 1.0
C      1  0.4682750000000  0.4550860000000  0.4994680000000 1.0
C      1  0.5158130000000  0.4572090000000  0.5287590000000 1.0
C      1  0.5160370000000  0.4587310000000  0.4721450000000 1.0
C      1  0.5307050000000  0.4555190000000  0.5005200000000 1.0
C      1  0.4848690000000  0.4565080000000  0.5260370000000 1.0
C      1  0.4841060000000  0.4586910000000  0.4714990000000 1.0
C      1  0.4841230000000  0.4858800000000  0.5762090000000 1.0
C      1  0.5729040000000  0.4828350000000  0.4767290000000 1.0
C      1  0.4451070000000  0.4897870000000  0.4523630000000 1.0
C      1  0.5129170000000  0.4910180000000  0.5722920000000 1.0
C      1  0.4289720000000  0.4832460000000  0.4758760000000 1.0
C      1  0.5562890000000  0.4890190000000  0.4531720000000 1.0
C      1  0.4703750000000  0.5273080000000  0.4354250000000 1.0
C      1  0.4614080000000  0.5249370000000  0.5564240000000 1.0
C      1  0.5719460000000  0.5234550000000  0.5037120000000 1.0
C      1  0.5313760000000  0.5270990000000  0.4364360000000 1.0
C      1  0.5412560000000  0.5269530000000  0.5561070000000 1.0
C      1  0.4283740000000  0.5222410000000  0.5052390000000 1.0
C      1  0.5580690000000  0.5199450000000  0.4474040000000 1.0
C      1  0.4266950000000  0.5152270000000  0.4767390000000 1.0
C      1  0.5179100000000  0.5219840000000  0.5735350000000 1.0
C      1  0.4435410000000  0.5207930000000  0.4474090000000 1.0
C      1  0.5760480000000  0.5148660000000  0.4759430000000 1.0
C      1  0.4840180000000  0.5182470000000  0.5740710000000 1.0
C      1  0.5154140000000  0.5107330000000  0.4756340000000 1.0
C      1  0.4693120000000  0.5035090000000  0.5031550000000 1.0
C      1  0.5142640000000  0.5081570000000  0.5244840000000 1.0
C      1  0.4849940000000  0.5103930000000  0.4760290000000 1.0
C      1  0.5283910000000  0.4973900000000  0.4999320000000 1.0
C      1  0.4858460000000  0.4964070000000  0.5265630000000 1.0
C      1  0.4387290000000  0.5477260000000  0.5170680000000 1.0
C      1  0.5419590000000  0.5492890000000  0.5368260000000 1.0
C      1  0.5156300000000  0.5512090000000  0.4467930000000 1.0
C      1  0.5595640000000  0.5482970000000  0.5103870000000 1.0
C      1  0.4611050000000  0.5470170000000  0.5383430000000 1.0
C      1  0.4861970000000  0.5514660000000  0.4453620000000 1.0
END
