TITL C-27136-4842-21 -138.843745425054 125000 -302.752591515997 0 0 60 (C3) n - 1
REM
REM in /home/nfs/bkarasulu/CARBON/AIRSS/Generating-Clusters/AIREBO/Higher-Symm/Only-C60
REM
REM
REM
REM
REM
REM ./C.cell (28575a23ae977d3b5fae324c64b13b57)
REM
REM compiler GCC version 9.2.1 20190827 (Red Hat 9.2.1-1)
REM options -cpp -mtune=generic -march=x86-64 -g -O0 -fpre-include=/usr/include/finclude/math-vector-fortran.h
REM seed -1830915524 1533015897 -1721643703 -1998359947 -1642660227 -416419955 -1067434830 -535603165 629654516 1538460278 1439542418 656571866 -1209185980 379135964 -67327963 -1259807476 1583813936 1318665689 1007135511 808689932 1120649206 -453263750 1453367987 1656988530 -362720665 85355253 -1729138649 842915741 1249523879 1445642949 -1800742055 1382248051 1584070860
REM
CELL 1.54180   50.00000   50.00000   50.00000   90.00000   90.00000   90.00000
LATT -1
SFAC C  
C      1  0.5303450000000  0.5543460000000  0.4739030000000 1.0
C      1  0.5074330000000  0.5543480000000  0.5393260000000 1.0
C      1  0.4622300000000  0.5543490000000  0.4867710000000 1.0
C      1  0.5322490000000  0.4447630000000  0.4732110000000 1.0
C      1  0.5070720000000  0.4447630000000  0.5413260000000 1.0
C      1  0.4606710000000  0.4447650000000  0.4854630000000 1.0
C      1  0.5106220000000  0.5168730000000  0.4391780000000 1.0
C      1  0.5473640000000  0.5168710000000  0.5396100000000 1.0
C      1  0.4420160000000  0.5168760000000  0.5212140000000 1.0
C      1  0.5130180000000  0.4833830000000  0.4398440000000 1.0
C      1  0.5455880000000  0.4833810000000  0.5413530000000 1.0
C      1  0.4413930000000  0.4833860000000  0.5188050000000 1.0
C      1  0.4843670000000  0.4626040000000  0.5592760000000 1.0
C      1  0.4564790000000  0.4626070000000  0.4568250000000 1.0
C      1  0.5591480000000  0.4626020000000  0.4838990000000 1.0
C      1  0.4851080000000  0.5397230000000  0.5599660000000 1.0
C      1  0.4555150000000  0.5397260000000  0.4571190000000 1.0
C      1  0.5593820000000  0.5397210000000  0.4829130000000 1.0
C      1  0.5026130000000  0.5208600000000  0.5762310000000 1.0
C      1  0.4326760000000  0.5208640000000  0.4641470000000 1.0
C      1  0.5647140000000  0.5208570000000  0.4596210000000 1.0
C      1  0.4981980000000  0.4870250000000  0.5748070000000 1.0
C      1  0.4361150000000  0.4870290000000  0.4610370000000 1.0
C      1  0.5656850000000  0.4870230000000  0.4641560000000 1.0
C      1  0.4746360000000  0.4435020000000  0.5324740000000 1.0
C      1  0.4845550000000  0.4435030000000  0.4618000000000 1.0
C      1  0.5408010000000  0.4435000000000  0.5057270000000 1.0
C      1  0.4754010000000  0.5550330000000  0.5307130000000 1.0
C      1  0.4857040000000  0.5550320000000  0.4633360000000 1.0
C      1  0.5389050000000  0.5550300000000  0.5059490000000 1.0
C      1  0.5076420000000  0.5305120000000  0.4695630000000 1.0
C      1  0.5225420000000  0.5305120000000  0.5218350000000 1.0
C      1  0.4698210000000  0.5305140000000  0.5086020000000 1.0
C      1  0.5077520000000  0.4658080000000  0.4676320000000 1.0
C      1  0.5241540000000  0.4658070000000  0.5228990000000 1.0
C      1  0.4680890000000  0.4658090000000  0.5094700000000 1.0
C      1  0.4853400000000  0.4212620000000  0.4870390000000 1.0
C      1  0.5185480000000  0.4212610000000  0.4937870000000 1.0
C      1  0.4961010000000  0.4212610000000  0.5191720000000 1.0
C      1  0.4854210000000  0.5788630000000  0.4872250000000 1.0
C      1  0.5183600000000  0.5788620000000  0.4937580000000 1.0
C      1  0.4962320000000  0.5788630000000  0.5190170000000 1.0
C      1  0.4792420000000  0.5261380000000  0.4368660000000 1.0
C      1  0.5650560000000  0.5261340000000  0.5135890000000 1.0
C      1  0.4557080000000  0.5261410000000  0.5495470000000 1.0
C      1  0.4818410000000  0.4761760000000  0.4390390000000 1.0
C      1  0.5618720000000  0.4761720000000  0.5147550000000 1.0
C      1  0.4562830000000  0.4761750000000  0.5462070000000 1.0
C      1  0.4807040000000  0.5133920000000  0.4812920000000 1.0
C      1  0.5258510000000  0.5133910000000  0.4926430000000 1.0
C      1  0.4934440000000  0.5133900000000  0.5260660000000 1.0
C      1  0.4832680000000  0.4826650000000  0.4841420000000 1.0
C      1  0.5220980000000  0.4826640000000  0.4934400000000 1.0
C      1  0.4946300000000  0.4826630000000  0.5224190000000 1.0
C      1  0.5382940000000  0.5020710000000  0.4512600000000 1.0
C      1  0.4386430000000  0.5020760000000  0.4912080000000 1.0
C      1  0.5230630000000  0.5020710000000  0.5575330000000 1.0
C      1  0.4769480000000  0.5012490000000  0.5528760000000 1.0
C      1  0.5573170000000  0.5012460000000  0.4935240000000 1.0
C      1  0.4657340000000  0.5012510000000  0.4536000000000 1.0
END
