TITL C-27137-4574-76 -0.000404903938965257 125000 -328.56429898229 0 0 60 (C1) n - 1
REM
REM in /home/nfs/bkarasulu/CARBON/AIRSS/Generating-Clusters/AIREBO/Higher-Symm/Only-C60
REM
REM
REM
REM
REM
REM ./C.cell (28575a23ae977d3b5fae324c64b13b57)
REM
REM compiler GCC version 9.2.1 20190827 (Red Hat 9.2.1-1)
REM options -cpp -mtune=generic -march=x86-64 -g -O0 -fpre-include=/usr/include/finclude/math-vector-fortran.h
REM seed 1442526525 933247619 1096758934 -1668538547 -417474680 1832714213 1395511317 -1811459817 504030795 957638170 1027506546 -2134262435 1429462291 -1940130608 620777748 22209009 1107774437 1018971866 -1172853412 701454860 -1692921294 1014987284 1230721377 2089728714 -1624714545 1298302993 -1423509688 -853798051 -686631795 29013235 1939381802 1755300266 335932868
REM
CELL 1.54180   50.00000   50.00000   50.00000   90.00000   90.00000   90.00000
LATT -1
SFAC C  
C      1  0.5500630000000  0.4206010000000  0.5195800000000 1.0
C      1  0.5018730000000  0.4426080000000  0.5421170000000 1.0
C      1  0.4381240000000  0.4719320000000  0.5309780000000 1.0
C      1  0.4138940000000  0.5379970000000  0.5130980000000 1.0
C      1  0.4741850000000  0.5841340000000  0.5305620000000 1.0
C      1  0.5702550000000  0.5587490000000  0.5022330000000 1.0
C      1  0.5968310000000  0.4813000000000  0.5026770000000 1.0
C      1  0.4369790000000  0.5305620000000  0.5013200000000 1.0
C      1  0.4812670000000  0.5641550000000  0.5141180000000 1.0
C      1  0.5508120000000  0.5413770000000  0.4953100000000 1.0
C      1  0.5720040000000  0.4895210000000  0.4962470000000 1.0
C      1  0.5392500000000  0.4416470000000  0.5063710000000 1.0
C      1  0.4871550000000  0.4432780000000  0.5148050000000 1.0
C      1  0.4427800000000  0.4764010000000  0.5000950000000 1.0
C      1  0.4693350000000  0.5248960000000  0.4697380000000 1.0
C      1  0.4901410000000  0.5415770000000  0.4747050000000 1.0
C      1  0.5154540000000  0.5232690000000  0.4824710000000 1.0
C      1  0.5375580000000  0.4989920000000  0.4783860000000 1.0
C      1  0.5293700000000  0.4749240000000  0.4876640000000 1.0
C      1  0.4882230000000  0.4676120000000  0.4718030000000 1.0
C      1  0.4730520000000  0.4947900000000  0.4610250000000 1.0
C      1  0.4838830000000  0.4411620000000  0.4887930000000 1.0
C      1  0.4457260000000  0.4796150000000  0.4744270000000 1.0
C      1  0.4410090000000  0.5316730000000  0.4724890000000 1.0
C      1  0.4875600000000  0.5669380000000  0.4868680000000 1.0
C      1  0.5381180000000  0.5426790000000  0.4672770000000 1.0
C      1  0.5645060000000  0.4972880000000  0.4662420000000 1.0
C      1  0.5389570000000  0.4489800000000  0.4748400000000 1.0
C      1  0.4804700000000  0.4390870000000  0.4555210000000 1.0
C      1  0.4405990000000  0.4769750000000  0.4459600000000 1.0
C      1  0.4455080000000  0.5317190000000  0.4387750000000 1.0
C      1  0.4907950000000  0.5903760000000  0.4741900000000 1.0
C      1  0.5350610000000  0.5409990000000  0.4388350000000 1.0
C      1  0.5614860000000  0.4949840000000  0.4379720000000 1.0
C      1  0.5357110000000  0.4493600000000  0.4466680000000 1.0
C      1  0.5406300000000  0.5209260000000  0.5133660000000 1.0
C      1  0.5504600000000  0.4945320000000  0.5158030000000 1.0
C      1  0.5264900000000  0.4706040000000  0.5191610000000 1.0
C      1  0.4948600000000  0.4740620000000  0.5312100000000 1.0
C      1  0.4658030000000  0.4893500000000  0.5216760000000 1.0
C      1  0.4601390000000  0.5203960000000  0.5175120000000 1.0
C      1  0.4822660000000  0.5368370000000  0.5214030000000 1.0
C      1  0.5043820000000  0.5176860000000  0.5918920000000 1.0
C      1  0.5185620000000  0.4887420000000  0.5887990000000 1.0
C      1  0.5026140000000  0.4661600000000  0.5824730000000 1.0
C      1  0.4826670000000  0.4709030000000  0.5628000000000 1.0
C      1  0.4597030000000  0.4846080000000  0.5712500000000 1.0
C      1  0.4573130000000  0.5088560000000  0.5840480000000 1.0
C      1  0.4774210000000  0.5229660000000  0.5966830000000 1.0
C      1  0.5345540000000  0.4938340000000  0.4267210000000 1.0
C      1  0.5208000000000  0.4692740000000  0.4318920000000 1.0
C      1  0.4911000000000  0.4670640000000  0.4385520000000 1.0
C      1  0.4663100000000  0.4861710000000  0.4286420000000 1.0
C      1  0.4681790000000  0.5176080000000  0.4255680000000 1.0
C      1  0.4944710000000  0.5241290000000  0.4156960000000 1.0
C      1  0.5216660000000  0.5197150000000  0.4239140000000 1.0
C      1  0.5113130000000  0.5028020000000  0.5389400000000 1.0
C      1  0.5086780000000  0.5233110000000  0.5158000000000 1.0
C      1  0.5189990000000  0.5096320000000  0.5642860000000 1.0
C      1  0.5046700000000  0.5042630000000  0.4564170000000 1.0
END
