TITL C-27138-9601-16 0.000816559099929818 125000 -343.091252645619 0 0 60 (C1) n - 1
REM
REM in /home/nfs/bkarasulu/CARBON/AIRSS/Generating-Clusters/AIREBO/Higher-Symm/Only-C60
REM
REM
REM
REM
REM
REM ./C.cell (28575a23ae977d3b5fae324c64b13b57)
REM
REM compiler GCC version 9.2.1 20190827 (Red Hat 9.2.1-1)
REM options -cpp -mtune=generic -march=x86-64 -g -O0 -fpre-include=/usr/include/finclude/math-vector-fortran.h
REM seed 1512027705 -1822319673 -1954699230 1864975304 -298544067 1575814463 -1218450421 2034912123 1832557072 -705044817 1810245093 1942231301 -1065755066 1620982654 -1262086266 136892447 604582913 -1102659095 1292086651 -718084584 1453459069 -2085760390 -1599475099 273434850 2084246193 1562744706 -440337818 -800700027 480249660 -1774807234 -169198813 1821877902 450037362
REM
CELL 1.54180   50.00000   50.00000   50.00000   90.00000   90.00000   90.00000
LATT -1
SFAC C  
C      1  0.4416170000000  0.4797990000000  0.4260370000000 1.0
C      1  0.4396950000000  0.5204610000000  0.5751780000000 1.0
C      1  0.5022880000000  0.4276380000000  0.4877250000000 1.0
C      1  0.5058710000000  0.3973300000000  0.4727120000000 1.0
C      1  0.4312700000000  0.4463430000000  0.5524030000000 1.0
C      1  0.4618690000000  0.4863040000000  0.5246270000000 1.0
C      1  0.5397050000000  0.4647090000000  0.5861830000000 1.0
C      1  0.4798140000000  0.5154310000000  0.4282810000000 1.0
C      1  0.5340740000000  0.3933100000000  0.5207860000000 1.0
C      1  0.5454500000000  0.4777360000000  0.5225620000000 1.0
C      1  0.5048340000000  0.5187760000000  0.5815370000000 1.0
C      1  0.4760020000000  0.4536250000000  0.4512910000000 1.0
C      1  0.4566760000000  0.5370080000000  0.4258640000000 1.0
C      1  0.5024190000000  0.5041240000000  0.5571660000000 1.0
C      1  0.5798160000000  0.5058980000000  0.4580120000000 1.0
C      1  0.5008120000000  0.4614630000000  0.4318010000000 1.0
C      1  0.5469290000000  0.5387040000000  0.4672610000000 1.0
C      1  0.5760830000000  0.5206780000000  0.5342620000000 1.0
C      1  0.5698670000000  0.5247800000000  0.4765300000000 1.0
C      1  0.5265380000000  0.5313700000000  0.4257710000000 1.0
C      1  0.5173500000000  0.5098230000000  0.6036130000000 1.0
C      1  0.5168310000000  0.4812200000000  0.4781170000000 1.0
C      1  0.4018140000000  0.5965120000000  0.5095590000000 1.0
C      1  0.4140140000000  0.5741370000000  0.5156550000000 1.0
C      1  0.5079950000000  0.5539310000000  0.5209450000000 1.0
C      1  0.5194270000000  0.4023300000000  0.5005080000000 1.0
C      1  0.4414340000000  0.5291020000000  0.5269550000000 1.0
C      1  0.4921720000000  0.5441380000000  0.5807340000000 1.0
C      1  0.4264540000000  0.5514120000000  0.5218120000000 1.0
C      1  0.4756010000000  0.5493140000000  0.5585520000000 1.0
C      1  0.5033010000000  0.4565970000000  0.4713420000000 1.0
C      1  0.5678810000000  0.4863950000000  0.4430170000000 1.0
C      1  0.4633050000000  0.4575020000000  0.5078660000000 1.0
C      1  0.4494520000000  0.5058730000000  0.4280900000000 1.0
C      1  0.5334090000000  0.4518700000000  0.6081480000000 1.0
C      1  0.4480910000000  0.4578020000000  0.5352950000000 1.0
C      1  0.4870590000000  0.5615380000000  0.5362820000000 1.0
C      1  0.4437680000000  0.5066450000000  0.5115150000000 1.0
C      1  0.4197370000000  0.4968530000000  0.4647710000000 1.0
C      1  0.5450710000000  0.4759590000000  0.5621570000000 1.0
C      1  0.5180090000000  0.4818420000000  0.4286160000000 1.0
C      1  0.4488250000000  0.5617160000000  0.4227730000000 1.0
C      1  0.5279350000000  0.4974790000000  0.5435660000000 1.0
C      1  0.5553880000000  0.5701340000000  0.4310280000000 1.0
C      1  0.5460300000000  0.4809240000000  0.4276510000000 1.0
C      1  0.4768600000000  0.5024360000000  0.5458450000000 1.0
C      1  0.4566870000000  0.5262000000000  0.5534120000000 1.0
C      1  0.5441320000000  0.5191320000000  0.5240870000000 1.0
C      1  0.5233150000000  0.5292370000000  0.4805550000000 1.0
C      1  0.4746840000000  0.4460400000000  0.4845210000000 1.0
C      1  0.5120160000000  0.5065550000000  0.4678210000000 1.0
C      1  0.5232370000000  0.5349610000000  0.5081780000000 1.0
C      1  0.5371060000000  0.4778980000000  0.4966960000000 1.0
C      1  0.5433420000000  0.5481850000000  0.4407930000000 1.0
C      1  0.5070720000000  0.5094990000000  0.4370850000000 1.0
C      1  0.5690590000000  0.4747250000000  0.5431340000000 1.0
C      1  0.5721790000000  0.5229620000000  0.5037020000000 1.0
C      1  0.5869730000000  0.4966490000000  0.5440890000000 1.0
C      1  0.4325380000000  0.5021730000000  0.4870130000000 1.0
C      1  0.4488180000000  0.4568150000000  0.4385110000000 1.0
END
