TITL C-27142-7278-78 0.0032360372366965 125000 -332.046008903977 0 0 60 (C1) n - 1
REM
REM in /home/nfs/bkarasulu/CARBON/AIRSS/Generating-Clusters/AIREBO/Higher-Symm/Only-C60
REM
REM
REM
REM
REM
REM ./C.cell (28575a23ae977d3b5fae324c64b13b57)
REM
REM compiler GCC version 9.2.1 20190827 (Red Hat 9.2.1-1)
REM options -cpp -mtune=generic -march=x86-64 -g -O0 -fpre-include=/usr/include/finclude/math-vector-fortran.h
REM seed -1820947661 1023669603 -1545508855 -389004808 105321586 2074921231 -1487867790 -1183545847 -657667163 -298746459 1138003527 -1065131267 1494459807 -1221385740 -636357741 -837677758 1926455169 1359574291 924089171 2004056557 -1469156764 -452504844 -53193484 20299679 1683860327 1843093886 -941035867 300597729 867523352 643012893 461804532 -1378090878 1396243208
REM
CELL 1.54180   50.00000   50.00000   50.00000   90.00000   90.00000   90.00000
LATT -1
SFAC C  
C      1  0.5160520000000  0.4821500000000  0.4655640000000 1.0
C      1  0.5078670000000  0.5433380000000  0.4209460000000 1.0
C      1  0.4878600000000  0.3855870000000  0.5120470000000 1.0
C      1  0.5037830000000  0.4729660000000  0.5577100000000 1.0
C      1  0.5184120000000  0.4672920000000  0.4920960000000 1.0
C      1  0.5592830000000  0.4660630000000  0.5191400000000 1.0
C      1  0.4363120000000  0.5009630000000  0.4637080000000 1.0
C      1  0.4827340000000  0.5232190000000  0.4610760000000 1.0
C      1  0.4511290000000  0.5682510000000  0.5248500000000 1.0
C      1  0.4600530000000  0.5273330000000  0.5496340000000 1.0
C      1  0.5595960000000  0.4574510000000  0.4686910000000 1.0
C      1  0.5156150000000  0.5228240000000  0.4384800000000 1.0
C      1  0.4332470000000  0.4497840000000  0.4813340000000 1.0
C      1  0.5006320000000  0.5240150000000  0.5751770000000 1.0
C      1  0.5247590000000  0.4381060000000  0.4971790000000 1.0
C      1  0.5186010000000  0.5661970000000  0.4698750000000 1.0
C      1  0.4466090000000  0.5510490000000  0.5455610000000 1.0
C      1  0.4707540000000  0.5010730000000  0.5049580000000 1.0
C      1  0.4649880000000  0.5004500000000  0.4724790000000 1.0
C      1  0.5617730000000  0.5247520000000  0.5047860000000 1.0
C      1  0.4370670000000  0.4558930000000  0.5609250000000 1.0
C      1  0.4835950000000  0.5207440000000  0.5295390000000 1.0
C      1  0.4505150000000  0.4500500000000  0.5034250000000 1.0
C      1  0.4647390000000  0.4281870000000  0.5122050000000 1.0
C      1  0.4849670000000  0.4823820000000  0.4559400000000 1.0
C      1  0.5372490000000  0.4634650000000  0.5432520000000 1.0
C      1  0.5445720000000  0.5273870000000  0.4481140000000 1.0
C      1  0.4779490000000  0.5500230000000  0.4673700000000 1.0
C      1  0.5464290000000  0.4791600000000  0.4563290000000 1.0
C      1  0.5107290000000  0.4278650000000  0.5196970000000 1.0
C      1  0.4967070000000  0.5580280000000  0.4945800000000 1.0
C      1  0.5331590000000  0.4864280000000  0.5114110000000 1.0
C      1  0.4722040000000  0.5740150000000  0.5090890000000 1.0
C      1  0.5079750000000  0.4486450000000  0.5379330000000 1.0
C      1  0.5293390000000  0.5440900000000  0.5342700000000 1.0
C      1  0.5118960000000  0.5224080000000  0.5447810000000 1.0
C      1  0.5141270000000  0.5155420000000  0.4716850000000 1.0
C      1  0.5865270000000  0.5245510000000  0.4942210000000 1.0
C      1  0.5582030000000  0.5026180000000  0.4453010000000 1.0
C      1  0.5531270000000  0.4477360000000  0.4944840000000 1.0
C      1  0.5204330000000  0.5645380000000  0.5180790000000 1.0
C      1  0.4529940000000  0.4767620000000  0.5185900000000 1.0
C      1  0.4773690000000  0.4830230000000  0.5621800000000 1.0
C      1  0.4560290000000  0.4713140000000  0.5484310000000 1.0
C      1  0.4162070000000  0.4963360000000  0.4895050000000 1.0
C      1  0.5024380000000  0.4967410000000  0.4308860000000 1.0
C      1  0.4750530000000  0.5105500000000  0.5690630000000 1.0
C      1  0.5225830000000  0.4943840000000  0.5419440000000 1.0
C      1  0.5393830000000  0.5109030000000  0.4942190000000 1.0
C      1  0.4955360000000  0.5243000000000  0.4987990000000 1.0
C      1  0.4826100000000  0.4728120000000  0.4233710000000 1.0
C      1  0.5855850000000  0.4698360000000  0.5264940000000 1.0
C      1  0.4874770000000  0.4123120000000  0.5148120000000 1.0
C      1  0.5560680000000  0.5367300000000  0.5297020000000 1.0
C      1  0.5456270000000  0.5785770000000  0.4804920000000 1.0
C      1  0.4260860000000  0.4942190000000  0.5145060000000 1.0
C      1  0.5462630000000  0.5531770000000  0.4590160000000 1.0
C      1  0.5401050000000  0.5829940000000  0.5082420000000 1.0
C      1  0.4298430000000  0.5162540000000  0.4416110000000 1.0
C      1  0.4211780000000  0.4721570000000  0.4702160000000 1.0
END
