TITL C-27144-3922-31 0.00085595865545965 125000 -327.84183009904 0 0 60 (C1) n - 1
REM
REM in /home/nfs/bkarasulu/CARBON/AIRSS/Generating-Clusters/AIREBO/Higher-Symm/Only-C60
REM
REM
REM
REM
REM
REM ./C.cell (28575a23ae977d3b5fae324c64b13b57)
REM
REM compiler GCC version 9.2.1 20190827 (Red Hat 9.2.1-1)
REM options -cpp -mtune=generic -march=x86-64 -g -O0 -fpre-include=/usr/include/finclude/math-vector-fortran.h
REM seed -1649230300 144795867 861969773 1338445396 -1751271087 -1070443824 99678498 -1361015307 -2013587477 -917053936 687257894 1525272113 1862102965 -26603 339929977 1060808864 1101175450 1262029529 428345312 692705986 -2143494924 1206578961 790509217 -235818475 -1467089568 294093138 1839189222 -338415876 -753899351 -1118439344 2001053985 1279185859 -690251816
REM
CELL 1.54180   50.00000   50.00000   50.00000   90.00000   90.00000   90.00000
LATT -1
SFAC C  
C      1  0.4847470000000  0.5448970000000  0.4942850000000 1.0
C      1  0.5421030000000  0.4952770000000  0.4863010000000 1.0
C      1  0.4956740000000  0.4849330000000  0.5413830000000 1.0
C      1  0.5051650000000  0.4305870000000  0.4887020000000 1.0
C      1  0.4824910000000  0.4587290000000  0.5271620000000 1.0
C      1  0.5053920000000  0.5580180000000  0.5417160000000 1.0
C      1  0.4579490000000  0.5337450000000  0.4793180000000 1.0
C      1  0.5574990000000  0.5428220000000  0.5067790000000 1.0
C      1  0.4347720000000  0.4928390000000  0.4997150000000 1.0
C      1  0.5426190000000  0.5060790000000  0.5580770000000 1.0
C      1  0.4846150000000  0.4924410000000  0.4367760000000 1.0
C      1  0.5272950000000  0.4798470000000  0.4621370000000 1.0
C      1  0.4849550000000  0.5395680000000  0.5278680000000 1.0
C      1  0.5480030000000  0.4808780000000  0.5130580000000 1.0
C      1  0.4717970000000  0.4695730000000  0.4585010000000 1.0
C      1  0.5020800000000  0.4341520000000  0.5215800000000 1.0
C      1  0.4760390000000  0.4408330000000  0.4757050000000 1.0
C      1  0.5125430000000  0.5475290000000  0.4806990000000 1.0
C      1  0.4356270000000  0.5252140000000  0.4994330000000 1.0
C      1  0.5393560000000  0.5291660000000  0.4862110000000 1.0
C      1  0.4444630000000  0.4810490000000  0.4695960000000 1.0
C      1  0.5173010000000  0.4971740000000  0.4381740000000 1.0
C      1  0.4812810000000  0.5120670000000  0.5458000000000 1.0
C      1  0.5296420000000  0.4850430000000  0.5399050000000 1.0
C      1  0.4940860000000  0.5219230000000  0.5727210000000 1.0
C      1  0.5223910000000  0.5743890000000  0.4938100000000 1.0
C      1  0.5744430000000  0.4947650000000  0.5226540000000 1.0
C      1  0.5216660000000  0.4593030000000  0.5572320000000 1.0
C      1  0.4920650000000  0.4496980000000  0.4405960000000 1.0
C      1  0.5222370000000  0.5292400000000  0.4291560000000 1.0
C      1  0.4543700000000  0.4365250000000  0.4927890000000 1.0
C      1  0.5326370000000  0.4286790000000  0.5175000000000 1.0
C      1  0.4581300000000  0.5557380000000  0.5217350000000 1.0
C      1  0.4300710000000  0.5186800000000  0.5296610000000 1.0
C      1  0.5561840000000  0.5217820000000  0.4600990000000 1.0
C      1  0.4347490000000  0.5003770000000  0.4494020000000 1.0
C      1  0.4902230000000  0.5260110000000  0.4358550000000 1.0
C      1  0.5206080000000  0.5742670000000  0.5258420000000 1.0
C      1  0.5656500000000  0.4904520000000  0.4619760000000 1.0
C      1  0.5180660000000  0.4548280000000  0.4591610000000 1.0
C      1  0.4901340000000  0.4620980000000  0.5660960000000 1.0
C      1  0.5260560000000  0.5215150000000  0.5732810000000 1.0
C      1  0.4568170000000  0.4535470000000  0.5192300000000 1.0
C      1  0.5390700000000  0.4303840000000  0.4860090000000 1.0
C      1  0.4621670000000  0.5707390000000  0.4927810000000 1.0
C      1  0.4506950000000  0.5282130000000  0.4530470000000 1.0
C      1  0.5736560000000  0.5267970000000  0.5218240000000 1.0
C      1  0.4319510000000  0.4865080000000  0.5328380000000 1.0
C      1  0.4571140000000  0.5077210000000  0.4283110000000 1.0
C      1  0.5059210000000  0.4246830000000  0.4555220000000 1.0
C      1  0.4322380000000  0.4601790000000  0.4973250000000 1.0
C      1  0.5492580000000  0.5011280000000  0.4364600000000 1.0
C      1  0.4521530000000  0.5059860000000  0.5484970000000 1.0
C      1  0.5687360000000  0.5112800000000  0.5494950000000 1.0
C      1  0.5084130000000  0.5478130000000  0.4510790000000 1.0
C      1  0.5103610000000  0.5489890000000  0.5676800000000 1.0
C      1  0.5005560000000  0.4347550000000  0.5534420000000 1.0
C      1  0.5487160000000  0.5689700000000  0.5112370000000 1.0
C      1  0.4334820000000  0.5577400000000  0.4998450000000 1.0
C      1  0.5515180000000  0.4518360000000  0.5069320000000 1.0
END
