TITL C-27135-6010-49 0.000867569859711476 125000 -324.849438025891 0 0 60 (C1) n - 1
REM
REM in /home/nfs/bkarasulu/CARBON/AIRSS/Generating-Clusters/AIREBO/Higher-Symm/Only-C60
REM
REM
REM
REM
REM
REM ./C.cell (28575a23ae977d3b5fae324c64b13b57)
REM
REM compiler GCC version 9.2.1 20190827 (Red Hat 9.2.1-1)
REM options -cpp -mtune=generic -march=x86-64 -g -O0 -fpre-include=/usr/include/finclude/math-vector-fortran.h
REM seed -1434054721 -940812906 -748380962 1800856308 1361669201 -1385002920 263860505 -1993065831 1476379812 583148909 1828068510 -994797266 -569544569 -1987720219 -807939452 -1199435620 -2100415770 1870678861 1223131172 1042178411 -284864700 -807816202 1107722797 -1773134593 1917182078 38275020 1044724 314008853 -268636128 2128707152 542424050 -575407505 1785434019
REM
CELL 1.54180   50.00000   50.00000   50.00000   90.00000   90.00000   90.00000
LATT -1
SFAC C  
C      1  0.4695610000000  0.5528190000000  0.5370530000000 1.0
C      1  0.4716130000000  0.4936400000000  0.5595130000000 1.0
C      1  0.4656680000000  0.4324110000000  0.4995110000000 1.0
C      1  0.4670590000000  0.4755500000000  0.4363130000000 1.0
C      1  0.4698710000000  0.5513960000000  0.4589620000000 1.0
C      1  0.5290430000000  0.4497240000000  0.5318430000000 1.0
C      1  0.5315020000000  0.5183960000000  0.5589830000000 1.0
C      1  0.5272910000000  0.5524650000000  0.5037700000000 1.0
C      1  0.5276680000000  0.5200100000000  0.4529660000000 1.0
C      1  0.5306830000000  0.4537920000000  0.4593370000000 1.0
C      1  0.4500610000000  0.4577050000000  0.4927290000000 1.0
C      1  0.4550350000000  0.4882670000000  0.4595740000000 1.0
C      1  0.4598940000000  0.5352630000000  0.4808400000000 1.0
C      1  0.4580310000000  0.5257930000000  0.5302730000000 1.0
C      1  0.4519540000000  0.4838730000000  0.5360490000000 1.0
C      1  0.5563990000000  0.5524180000000  0.4973740000000 1.0
C      1  0.5564730000000  0.5159410000000  0.4557500000000 1.0
C      1  0.5475790000000  0.4668980000000  0.4829920000000 1.0
C      1  0.5456680000000  0.4773560000000  0.5293110000000 1.0
C      1  0.5426160000000  0.5193620000000  0.5318250000000 1.0
C      1  0.5018550000000  0.5135710000000  0.4333910000000 1.0
C      1  0.5021000000000  0.5682680000000  0.4921890000000 1.0
C      1  0.5060190000000  0.5324250000000  0.5660950000000 1.0
C      1  0.4981110000000  0.4541180000000  0.5414850000000 1.0
C      1  0.5009010000000  0.4386240000000  0.4624970000000 1.0
C      1  0.4949930000000  0.4866780000000  0.4299090000000 1.0
C      1  0.4943340000000  0.4296590000000  0.4880480000000 1.0
C      1  0.4974860000000  0.4751200000000  0.5654830000000 1.0
C      1  0.4973570000000  0.5532720000000  0.5493300000000 1.0
C      1  0.4967480000000  0.5629590000000  0.4653380000000 1.0
C      1  0.5711550000000  0.5299230000000  0.5164620000000 1.0
C      1  0.5703780000000  0.5000660000000  0.5290640000000 1.0
C      1  0.5698440000000  0.4769430000000  0.5058320000000 1.0
C      1  0.5676470000000  0.4929950000000  0.4770540000000 1.0
C      1  0.5713070000000  0.5261310000000  0.4831810000000 1.0
C      1  0.4292110000000  0.4743850000000  0.5137960000000 1.0
C      1  0.4302280000000  0.5060640000000  0.5267180000000 1.0
C      1  0.4376880000000  0.5275660000000  0.5040240000000 1.0
C      1  0.4371950000000  0.5121840000000  0.4749990000000 1.0
C      1  0.4292220000000  0.4805780000000  0.4803720000000 1.0
C      1  0.5148060000000  0.4902360000000  0.5222660000000 1.0
C      1  0.5197230000000  0.4634710000000  0.5025720000000 1.0
C      1  0.5096140000000  0.4755610000000  0.4747760000000 1.0
C      1  0.5128950000000  0.5072910000000  0.4765560000000 1.0
C      1  0.5190690000000  0.5204680000000  0.5073010000000 1.0
C      1  0.4849410000000  0.5050230000000  0.5290710000000 1.0
C      1  0.4850730000000  0.5231600000000  0.5003070000000 1.0
C      1  0.4794480000000  0.5007540000000  0.4770140000000 1.0
C      1  0.4803200000000  0.4699810000000  0.4911320000000 1.0
C      1  0.4791520000000  0.4722250000000  0.5222100000000 1.0
C      1  0.5152450000000  0.5684400000000  0.5296280000000 1.0
C      1  0.5181690000000  0.4958900000000  0.5766590000000 1.0
C      1  0.5113990000000  0.4268810000000  0.5154070000000 1.0
C      1  0.5136270000000  0.4622130000000  0.4329750000000 1.0
C      1  0.5156840000000  0.5489170000000  0.4454370000000 1.0
C      1  0.4808230000000  0.4298430000000  0.5255110000000 1.0
C      1  0.4886870000000  0.5112730000000  0.5799040000000 1.0
C      1  0.4844390000000  0.5741840000000  0.5179220000000 1.0
C      1  0.4855920000000  0.5401990000000  0.4344740000000 1.0
C      1  0.4838460000000  0.4493810000000  0.4386410000000 1.0
END
