TITL C-27140-5627-83 -0.00218685418057948 125000 -276.574542765363 0 0 60 (C1) n - 1
REM
REM in /home/nfs/bkarasulu/CARBON/AIRSS/Generating-Clusters/AIREBO/Higher-Symm/Only-C60
REM
REM
REM
REM
REM
REM ./C.cell (28575a23ae977d3b5fae324c64b13b57)
REM
REM compiler GCC version 9.2.1 20190827 (Red Hat 9.2.1-1)
REM options -cpp -mtune=generic -march=x86-64 -g -O0 -fpre-include=/usr/include/finclude/math-vector-fortran.h
REM seed 693437559 -819348725 -595446443 -737060362 845027126 -732995816 750832684 -944787831 -1132946626 -672371530 -569455326 1103763341 167462387 -1226196657 391738902 -1161378288 590659664 -61877176 869307142 508051051 480808180 -802668430 -2026361228 636226419 334390975 1258712662 -884744407 -865982794 1573408835 57308062 1009663694 -625929414 -1663658266
REM
CELL 1.54180   50.00000   50.00000   50.00000   90.00000   90.00000   90.00000
LATT -1
SFAC C  
C      1  0.5255810000000  0.5283690000000  0.5157300000000 1.0
C      1  0.4776420000000  0.5472910000000  0.5074920000000 1.0
C      1  0.4994030000000  0.5328670000000  0.4696330000000 1.0
C      1  0.4764490000000  0.4649950000000  0.5131990000000 1.0
C      1  0.5275690000000  0.4656930000000  0.5149110000000 1.0
C      1  0.5004350000000  0.4698430000000  0.4641370000000 1.0
C      1  0.4459090000000  0.5357510000000  0.5034540000000 1.0
C      1  0.5302720000000  0.5375030000000  0.4575050000000 1.0
C      1  0.5328990000000  0.5296850000000  0.5489120000000 1.0
C      1  0.5543040000000  0.4660290000000  0.4951150000000 1.0
C      1  0.4702390000000  0.4632380000000  0.4499510000000 1.0
C      1  0.4668880000000  0.4657870000000  0.5458220000000 1.0
C      1  0.4562470000000  0.5693520000000  0.5220400000000 1.0
C      1  0.4946520000000  0.5582710000000  0.4470650000000 1.0
C      1  0.5365970000000  0.5605100000000  0.5171530000000 1.0
C      1  0.5481890000000  0.4454360000000  0.5328310000000 1.0
C      1  0.5100420000000  0.4368310000000  0.4588740000000 1.0
C      1  0.4618880000000  0.4343590000000  0.5155730000000 1.0
C      1  0.5271910000000  0.5056900000000  0.5690010000000 1.0
C      1  0.4327210000000  0.5085530000000  0.4933420000000 1.0
C      1  0.5363260000000  0.5160380000000  0.4404300000000 1.0
C      1  0.4714940000000  0.4906030000000  0.5652760000000 1.0
C      1  0.5698250000000  0.4884130000000  0.5005800000000 1.0
C      1  0.4562550000000  0.4908170000000  0.4431020000000 1.0
C      1  0.4945950000000  0.5138280000000  0.5743190000000 1.0
C      1  0.4394230000000  0.5157880000000  0.4607810000000 1.0
C      1  0.5706260000000  0.5059760000000  0.4769240000000 1.0
C      1  0.5034910000000  0.4815030000000  0.5745100000000 1.0
C      1  0.5576850000000  0.4982870000000  0.4532770000000 1.0
C      1  0.4341540000000  0.4845330000000  0.4681770000000 1.0
C      1  0.5304070000000  0.4780500000000  0.4503060000000 1.0
C      1  0.5225140000000  0.4720210000000  0.5479660000000 1.0
C      1  0.4475920000000  0.4703480000000  0.4960030000000 1.0
C      1  0.4686880000000  0.5292150000000  0.4554830000000 1.0
C      1  0.4813790000000  0.5271080000000  0.5459470000000 1.0
C      1  0.5563700000000  0.5260010000000  0.5008080000000 1.0
C      1  0.4396100000000  0.4577290000000  0.5265630000000 1.0
C      1  0.4899520000000  0.4398080000000  0.4400120000000 1.0
C      1  0.5602640000000  0.4592370000000  0.5510170000000 1.0
C      1  0.5602470000000  0.5405820000000  0.5312870000000 1.0
C      1  0.4782570000000  0.5427640000000  0.4257950000000 1.0
C      1  0.4516530000000  0.5409340000000  0.5368990000000 1.0
C      1  0.4584150000000  0.5520620000000  0.4772210000000 1.0
C      1  0.5486890000000  0.5468290000000  0.4755440000000 1.0
C      1  0.5069400000000  0.5469230000000  0.5482600000000 1.0
C      1  0.5496110000000  0.4588260000000  0.4690050000000 1.0
C      1  0.4519870000000  0.4484240000000  0.4718610000000 1.0
C      1  0.4950090000000  0.4520190000000  0.5480040000000 1.0
C      1  0.4398950000000  0.4919570000000  0.5211100000000 1.0
C      1  0.5112380000000  0.4989290000000  0.4315050000000 1.0
C      1  0.5508650000000  0.4905720000000  0.5508690000000 1.0
C      1  0.5628460000000  0.5059690000000  0.5275210000000 1.0
C      1  0.4827630000000  0.5088060000000  0.4321930000000 1.0
C      1  0.4541490000000  0.5070130000000  0.5422130000000 1.0
C      1  0.4792250000000  0.4851050000000  0.4859110000000 1.0
C      1  0.5191200000000  0.4848010000000  0.4880720000000 1.0
C      1  0.5001450000000  0.4840830000000  0.5230990000000 1.0
C      1  0.5185210000000  0.5114970000000  0.4879270000000 1.0
C      1  0.4792930000000  0.5170400000000  0.4920490000000 1.0
C      1  0.4953630000000  0.5135090000000  0.5204360000000 1.0
END
