TITL C-27132-7279-185 -0.00048147559112474 125000 -313.113694564408 0 0 60 (C1) n - 1
REM
REM in /home/nfs/bkarasulu/CARBON/AIRSS/Generating-Clusters/AIREBO/Higher-Symm/Only-C60
REM
REM
REM
REM
REM
REM ./C.cell (28575a23ae977d3b5fae324c64b13b57)
REM
REM compiler GCC version 9.2.1 20190827 (Red Hat 9.2.1-1)
REM options -cpp -mtune=generic -march=x86-64 -g -O0 -fpre-include=/usr/include/finclude/math-vector-fortran.h
REM seed 598785478 441100258 -1362751360 339768480 -1352345304 -1727907608 1055988508 1003726106 -2009875388 1989252015 376301193 2003726818 991208885 -1956744765 664957007 986468501 -390440653 52238917 -610880308 1327941783 1357372416 -1737977955 548253726 926007703 2082602963 2105380022 714899393 1698933628 -793448751 379521743 584832497 1527476231 -1153199207
REM
CELL 1.54180   50.00000   50.00000   50.00000   90.00000   90.00000   90.00000
LATT -1
SFAC C  
C      1  0.4184800000000  0.5390610000000  0.5317910000000 1.0
C      1  0.4023520000000  0.5171270000000  0.5186550000000 1.0
C      1  0.4323950000000  0.4731270000000  0.5506970000000 1.0
C      1  0.4370770000000  0.4257000000000  0.4962750000000 1.0
C      1  0.4151770000000  0.4722240000000  0.4695510000000 1.0
C      1  0.4279570000000  0.5203520000000  0.4426370000000 1.0
C      1  0.4369420000000  0.5651500000000  0.4642180000000 1.0
C      1  0.5277930000000  0.5226380000000  0.4811170000000 1.0
C      1  0.5375840000000  0.5425290000000  0.5058710000000 1.0
C      1  0.5357820000000  0.5230770000000  0.5335630000000 1.0
C      1  0.5310510000000  0.4908100000000  0.5239060000000 1.0
C      1  0.5348020000000  0.4605510000000  0.5088520000000 1.0
C      1  0.5217590000000  0.4702890000000  0.4788370000000 1.0
C      1  0.5360680000000  0.4963450000000  0.4622070000000 1.0
C      1  0.4908310000000  0.5288460000000  0.5695190000000 1.0
C      1  0.4936650000000  0.4661500000000  0.5628840000000 1.0
C      1  0.4910470000000  0.4376980000000  0.5026450000000 1.0
C      1  0.4909260000000  0.4558600000000  0.4511860000000 1.0
C      1  0.4919950000000  0.5074670000000  0.4404370000000 1.0
C      1  0.4951760000000  0.5566240000000  0.4716480000000 1.0
C      1  0.4997940000000  0.5664160000000  0.5279220000000 1.0
C      1  0.4928190000000  0.4879220000000  0.4816060000000 1.0
C      1  0.4978270000000  0.5177930000000  0.4806920000000 1.0
C      1  0.4772920000000  0.5336160000000  0.4988580000000 1.0
C      1  0.4801990000000  0.5316180000000  0.5291860000000 1.0
C      1  0.4825060000000  0.5025810000000  0.5407510000000 1.0
C      1  0.4987240000000  0.4802410000000  0.5258750000000 1.0
C      1  0.4812350000000  0.4685880000000  0.5021610000000 1.0
C      1  0.5212640000000  0.5581910000000  0.4607320000000 1.0
C      1  0.5270940000000  0.5616930000000  0.5293020000000 1.0
C      1  0.5130000000000  0.5113530000000  0.5530180000000 1.0
C      1  0.5224050000000  0.4624280000000  0.5609860000000 1.0
C      1  0.5190120000000  0.4341630000000  0.4995110000000 1.0
C      1  0.5214780000000  0.4480490000000  0.4531080000000 1.0
C      1  0.5195320000000  0.5140300000000  0.4416140000000 1.0
C      1  0.4858280000000  0.4792980000000  0.4338710000000 1.0
C      1  0.4766140000000  0.5320250000000  0.4582510000000 1.0
C      1  0.4888790000000  0.5633640000000  0.5013990000000 1.0
C      1  0.4833930000000  0.5526230000000  0.5509470000000 1.0
C      1  0.4828760000000  0.4958020000000  0.5740720000000 1.0
C      1  0.4820550000000  0.4526850000000  0.5368060000000 1.0
C      1  0.4766570000000  0.4430090000000  0.4719550000000 1.0
C      1  0.4402060000000  0.4733960000000  0.4800860000000 1.0
C      1  0.4453420000000  0.5359100000000  0.4621920000000 1.0
C      1  0.4509370000000  0.5214090000000  0.4902540000000 1.0
C      1  0.4361460000000  0.5143880000000  0.5160980000000 1.0
C      1  0.4509110000000  0.4941890000000  0.5333400000000 1.0
C      1  0.4522270000000  0.4603820000000  0.5282980000000 1.0
C      1  0.4535960000000  0.4497240000000  0.4960370000000 1.0
C      1  0.5321860000000  0.4457460000000  0.5393610000000 1.0
C      1  0.5270040000000  0.4255330000000  0.4746930000000 1.0
C      1  0.5438520000000  0.4699700000000  0.4456140000000 1.0
C      1  0.5263120000000  0.5412260000000  0.4384810000000 1.0
C      1  0.5422210000000  0.5598920000000  0.4796370000000 1.0
C      1  0.5484780000000  0.5512480000000  0.5480820000000 1.0
C      1  0.5349320000000  0.4880400000000  0.5586710000000 1.0
C      1  0.6006520000000  0.5009630000000  0.4922030000000 1.0
C      1  0.4592090000000  0.4938120000000  0.4804330000000 1.0
C      1  0.5745920000000  0.5018390000000  0.4948370000000 1.0
C      1  0.5488070000000  0.5047870000000  0.4989960000000 1.0
END
