TITL C-27136-4842-147 0.00213737377632804 125000 -329.141929018872 0 0 60 (C1) n - 1
REM
REM in /home/nfs/bkarasulu/CARBON/AIRSS/Generating-Clusters/AIREBO/Higher-Symm/Only-C60
REM
REM
REM
REM
REM
REM ./C.cell (28575a23ae977d3b5fae324c64b13b57)
REM
REM compiler GCC version 9.2.1 20190827 (Red Hat 9.2.1-1)
REM options -cpp -mtune=generic -march=x86-64 -g -O0 -fpre-include=/usr/include/finclude/math-vector-fortran.h
REM seed 700608011 -2120081196 33030664 -1260232700 -1561524898 1676300085 1899886035 1630457396 1713121268 -75274153 934371296 1933220983 -951502617 -1925728436 -1786408379 -1984631978 277685485 -238480089 -907305641 -1788903166 395383224 -2138914342 304048698 -1020779876 -1583950261 -364035923 662238412 1762532547 1768610322 -1124064394 2093071041 -1183458874 188218875
REM
CELL 1.54180   50.00000   50.00000   50.00000   90.00000   90.00000   90.00000
LATT -1
SFAC C  
C      1  0.5601470000000  0.4966890000000  0.5339310000000 1.0
C      1  0.4392630000000  0.4892710000000  0.4503260000000 1.0
C      1  0.4427560000000  0.5072400000000  0.5527260000000 1.0
C      1  0.5647240000000  0.4947180000000  0.4680500000000 1.0
C      1  0.5515220000000  0.4965160000000  0.5654470000000 1.0
C      1  0.4663550000000  0.4983810000000  0.4327440000000 1.0
C      1  0.5501800000000  0.4993430000000  0.4376650000000 1.0
C      1  0.4662560000000  0.5041100000000  0.5715250000000 1.0
C      1  0.4735160000000  0.4445980000000  0.4285140000000 1.0
C      1  0.5065670000000  0.4596900000000  0.5603530000000 1.0
C      1  0.5045830000000  0.5486290000000  0.4386740000000 1.0
C      1  0.4737620000000  0.5536530000000  0.5640490000000 1.0
C      1  0.4455890000000  0.4471590000000  0.5027950000000 1.0
C      1  0.5536000000000  0.4502580000000  0.5110150000000 1.0
C      1  0.4363160000000  0.5511400000000  0.5045920000000 1.0
C      1  0.5559080000000  0.5497280000000  0.5003300000000 1.0
C      1  0.5382980000000  0.5189410000000  0.5737000000000 1.0
C      1  0.4788770000000  0.5290720000000  0.4304950000000 1.0
C      1  0.4834820000000  0.4782270000000  0.5687520000000 1.0
C      1  0.5331870000000  0.4779020000000  0.4286940000000 1.0
C      1  0.5636240000000  0.5270650000000  0.5235580000000 1.0
C      1  0.4266370000000  0.5098890000000  0.4668690000000 1.0
C      1  0.5659700000000  0.4692300000000  0.4854150000000 1.0
C      1  0.4322440000000  0.4866620000000  0.5326580000000 1.0
C      1  0.5212640000000  0.5327310000000  0.5095290000000 1.0
C      1  0.4642570000000  0.5379970000000  0.4888410000000 1.0
C      1  0.4737680000000  0.4671580000000  0.5054280000000 1.0
C      1  0.5109970000000  0.4659320000000  0.4909560000000 1.0
C      1  0.5027780000000  0.5346600000000  0.5316940000000 1.0
C      1  0.4870980000000  0.5326270000000  0.4706080000000 1.0
C      1  0.4987040000000  0.4636230000000  0.4655250000000 1.0
C      1  0.5017350000000  0.4788140000000  0.5203920000000 1.0
C      1  0.5044770000000  0.4815760000000  0.4398960000000 1.0
C      1  0.4948030000000  0.4976020000000  0.5444070000000 1.0
C      1  0.5008240000000  0.5105140000000  0.4486620000000 1.0
C      1  0.5111550000000  0.5224450000000  0.5612730000000 1.0
C      1  0.4460410000000  0.4867000000000  0.5076560000000 1.0
C      1  0.5378390000000  0.4834960000000  0.4953460000000 1.0
C      1  0.4409240000000  0.5144340000000  0.4906680000000 1.0
C      1  0.5430190000000  0.5118810000000  0.5011760000000 1.0
C      1  0.4440750000000  0.5235810000000  0.5229310000000 1.0
C      1  0.5703140000000  0.5242060000000  0.4846390000000 1.0
C      1  0.5737140000000  0.4743730000000  0.5181200000000 1.0
C      1  0.4445130000000  0.4708170000000  0.4783980000000 1.0
C      1  0.5283820000000  0.5262140000000  0.4360090000000 1.0
C      1  0.4819390000000  0.5275820000000  0.5734360000000 1.0
C      1  0.5337650000000  0.4715430000000  0.5681880000000 1.0
C      1  0.4804470000000  0.4703250000000  0.4214430000000 1.0
C      1  0.5076520000000  0.5559590000000  0.4691570000000 1.0
C      1  0.4809660000000  0.5575310000000  0.5361960000000 1.0
C      1  0.4793180000000  0.4384050000000  0.4559520000000 1.0
C      1  0.5112570000000  0.4427300000000  0.5375190000000 1.0
C      1  0.4657040000000  0.5607710000000  0.5140600000000 1.0
C      1  0.5263970000000  0.5556620000000  0.4905290000000 1.0
C      1  0.4709680000000  0.4412900000000  0.4834920000000 1.0
C      1  0.5262530000000  0.4480240000000  0.5138360000000 1.0
C      1  0.5300500000000  0.4810110000000  0.5361390000000 1.0
C      1  0.4730420000000  0.5184850000000  0.5348710000000 1.0
C      1  0.4699390000000  0.4770690000000  0.4594040000000 1.0
C      1  0.5482590000000  0.5241220000000  0.4607490000000 1.0
END
