TITL C-27137-4574-193 8.69399572478354e-05 125000 -327.875477997946 0 0 60 (C1) n - 1
REM
REM in /home/nfs/bkarasulu/CARBON/AIRSS/Generating-Clusters/AIREBO/Higher-Symm/Only-C60
REM
REM
REM
REM
REM
REM ./C.cell (28575a23ae977d3b5fae324c64b13b57)
REM
REM compiler GCC version 9.2.1 20190827 (Red Hat 9.2.1-1)
REM options -cpp -mtune=generic -march=x86-64 -g -O0 -fpre-include=/usr/include/finclude/math-vector-fortran.h
REM seed 1492415185 -360254974 1985974272 -1052073260 -770934104 1948896444 -712846443 558993080 1298266546 2079460854 -105186082 -189643599 -466783302 2136028694 -1189234683 566871166 918266719 1192996338 1395240073 -822909739 1810223348 1658013595 -1024311856 543194334 -925234217 -1560529878 -1794143880 1863391619 -1850643179 -1871066570 -92108902 -1692946665 941041651
REM
CELL 1.54180   50.00000   50.00000   50.00000   90.00000   90.00000   90.00000
LATT -1
SFAC C  
C      1  0.4663290000000  0.4925430000000  0.4467150000000 1.0
C      1  0.5244800000000  0.5090300000000  0.4509910000000 1.0
C      1  0.4678420000000  0.5076470000000  0.5490330000000 1.0
C      1  0.5245140000000  0.5080540000000  0.5647220000000 1.0
C      1  0.4685260000000  0.4842330000000  0.5326830000000 1.0
C      1  0.5313370000000  0.5125470000000  0.5396060000000 1.0
C      1  0.4593330000000  0.5185700000000  0.4599950000000 1.0
C      1  0.5333090000000  0.4850870000000  0.4637360000000 1.0
C      1  0.4517210000000  0.5823920000000  0.4584100000000 1.0
C      1  0.5425910000000  0.4112740000000  0.4524430000000 1.0
C      1  0.4612360000000  0.4117220000000  0.5437780000000 1.0
C      1  0.5524350000000  0.5799210000000  0.5440850000000 1.0
C      1  0.5065430000000  0.4871920000000  0.6042090000000 1.0
C      1  0.4633060000000  0.5266710000000  0.5926040000000 1.0
C      1  0.5138360000000  0.5276260000000  0.4085360000000 1.0
C      1  0.4807450000000  0.4791350000000  0.4030890000000 1.0
C      1  0.4907300000000  0.4522040000000  0.5089560000000 1.0
C      1  0.5143490000000  0.5614940000000  0.5045400000000 1.0
C      1  0.4903240000000  0.5610210000000  0.4908490000000 1.0
C      1  0.5130720000000  0.4499100000000  0.4886350000000 1.0
C      1  0.5621700000000  0.4521830000000  0.4730700000000 1.0
C      1  0.4406720000000  0.5402890000000  0.4767670000000 1.0
C      1  0.5602180000000  0.5361040000000  0.5258120000000 1.0
C      1  0.4407480000000  0.4518190000000  0.5230860000000 1.0
C      1  0.4663680000000  0.5689150000000  0.5041060000000 1.0
C      1  0.5370370000000  0.4360030000000  0.4995050000000 1.0
C      1  0.4673200000000  0.4373830000000  0.4970700000000 1.0
C      1  0.5402810000000  0.5678030000000  0.4947920000000 1.0
C      1  0.5403830000000  0.5505760000000  0.5475740000000 1.0
C      1  0.4618970000000  0.4430030000000  0.5461060000000 1.0
C      1  0.5405790000000  0.4424260000000  0.4507470000000 1.0
C      1  0.4666950000000  0.5558490000000  0.4559870000000 1.0
C      1  0.5593430000000  0.5661860000000  0.5163420000000 1.0
C      1  0.4504980000000  0.4207740000000  0.5152770000000 1.0
C      1  0.5540960000000  0.4202420000000  0.4807210000000 1.0
C      1  0.4445190000000  0.5697290000000  0.4857540000000 1.0
C      1  0.5510880000000  0.4764740000000  0.4843080000000 1.0
C      1  0.4555490000000  0.5144250000000  0.4933840000000 1.0
C      1  0.5466970000000  0.5126010000000  0.5092560000000 1.0
C      1  0.4521570000000  0.4756690000000  0.5109150000000 1.0
C      1  0.4620530000000  0.5523430000000  0.5265690000000 1.0
C      1  0.5489100000000  0.4517550000000  0.5184530000000 1.0
C      1  0.4568620000000  0.4511600000000  0.4757470000000 1.0
C      1  0.5462420000000  0.5498390000000  0.4735770000000 1.0
C      1  0.4969740000000  0.4797210000000  0.4793420000000 1.0
C      1  0.5043250000000  0.5118540000000  0.4853390000000 1.0
C      1  0.4985450000000  0.5138090000000  0.5170060000000 1.0
C      1  0.5064730000000  0.4810910000000  0.5204840000000 1.0
C      1  0.5082390000000  0.5099870000000  0.4283190000000 1.0
C      1  0.4845230000000  0.4934070000000  0.4257250000000 1.0
C      1  0.5032080000000  0.5019310000000  0.5818590000000 1.0
C      1  0.4773160000000  0.5120850000000  0.5746880000000 1.0
C      1  0.4632490000000  0.4841620000000  0.4799030000000 1.0
C      1  0.5353840000000  0.5212230000000  0.4805570000000 1.0
C      1  0.4682350000000  0.5222340000000  0.5204570000000 1.0
C      1  0.5385050000000  0.4816890000000  0.5154760000000 1.0
C      1  0.4886630000000  0.4608650000000  0.5412260000000 1.0
C      1  0.5172480000000  0.5398670000000  0.5256060000000 1.0
C      1  0.4857260000000  0.5340320000000  0.4738340000000 1.0
C      1  0.5144440000000  0.4602190000000  0.4576370000000 1.0
END
