TITL C-27131-4585-150 -0.000303962652743385 125000 -333.093339400365 0 0 60 (C1) n - 1
REM
REM in /home/nfs/bkarasulu/CARBON/AIRSS/Generating-Clusters/AIREBO/Higher-Symm/Only-C60
REM
REM
REM
REM
REM
REM ./C.cell (28575a23ae977d3b5fae324c64b13b57)
REM
REM compiler GCC version 9.2.1 20190827 (Red Hat 9.2.1-1)
REM options -cpp -mtune=generic -march=x86-64 -g -O0 -fpre-include=/usr/include/finclude/math-vector-fortran.h
REM seed -430058395 -1876747340 1170073492 -1589845143 -672548327 -379812218 2044981869 -1560343210 1562926430 -1468633809 319113549 -396382656 -613406555 1077668909 -926827874 1902967683 -211352397 -1607801207 -1944821313 2072297131 1070767895 1510971095 -848127443 -1003411559 -275257874 1456118331 -299214173 848279513 -1405509090 -432310642 -289411258 1417116183 672709354
REM
CELL 1.54180   50.00000   50.00000   50.00000   90.00000   90.00000   90.00000
LATT -1
SFAC C  
C      1  0.5072590000000  0.5504570000000  0.4799000000000 1.0
C      1  0.4972700000000  0.4553020000000  0.4624650000000 1.0
C      1  0.4981550000000  0.4990560000000  0.5466860000000 1.0
C      1  0.5030470000000  0.5539220000000  0.5194720000000 1.0
C      1  0.4975860000000  0.4716230000000  0.5108000000000 1.0
C      1  0.4955140000000  0.4946250000000  0.4512990000000 1.0
C      1  0.5431610000000  0.5343060000000  0.5545490000000 1.0
C      1  0.5557680000000  0.5284790000000  0.4596670000000 1.0
C      1  0.5502180000000  0.4350930000000  0.4923670000000 1.0
C      1  0.4474910000000  0.5138780000000  0.4579980000000 1.0
C      1  0.4444240000000  0.5306160000000  0.5230640000000 1.0
C      1  0.4576550000000  0.4450780000000  0.5451420000000 1.0
C      1  0.5357900000000  0.4844330000000  0.4926500000000 1.0
C      1  0.5435020000000  0.5179310000000  0.5278800000000 1.0
C      1  0.5463380000000  0.5149970000000  0.4880920000000 1.0
C      1  0.4500310000000  0.4734690000000  0.5364200000000 1.0
C      1  0.4544560000000  0.4960250000000  0.4829490000000 1.0
C      1  0.4650680000000  0.5137370000000  0.5079220000000 1.0
C      1  0.5368970000000  0.5394750000000  0.4432430000000 1.0
C      1  0.5267930000000  0.4233310000000  0.4845430000000 1.0
C      1  0.5212080000000  0.5341060000000  0.5707990000000 1.0
C      1  0.4575280000000  0.5490970000000  0.5395480000000 1.0
C      1  0.4717880000000  0.4299570000000  0.5270490000000 1.0
C      1  0.4640830000000  0.5282010000000  0.4419330000000 1.0
C      1  0.4219340000000  0.4917400000000  0.5379480000000 1.0
C      1  0.4008330000000  0.5193130000000  0.5050840000000 1.0
C      1  0.4274680000000  0.4832170000000  0.4894630000000 1.0
C      1  0.5797360000000  0.4803660000000  0.4778140000000 1.0
C      1  0.5892770000000  0.5143140000000  0.5101160000000 1.0
C      1  0.5684550000000  0.4753650000000  0.5265760000000 1.0
C      1  0.5257690000000  0.5340830000000  0.5037520000000 1.0
C      1  0.5223550000000  0.4759460000000  0.4674130000000 1.0
C      1  0.5198250000000  0.4953530000000  0.5207390000000 1.0
C      1  0.4879710000000  0.5310730000000  0.4993010000000 1.0
C      1  0.4737700000000  0.4900140000000  0.5271230000000 1.0
C      1  0.4846350000000  0.4811360000000  0.4806050000000 1.0
C      1  0.4851910000000  0.5461890000000  0.5429580000000 1.0
C      1  0.4911740000000  0.5223560000000  0.4443410000000 1.0
C      1  0.4858880000000  0.4401730000000  0.5052610000000 1.0
C      1  0.5105390000000  0.5401350000000  0.4523270000000 1.0
C      1  0.4971100000000  0.5268110000000  0.5584940000000 1.0
C      1  0.5001880000000  0.4326230000000  0.4819990000000 1.0
C      1  0.5006810000000  0.5984210000000  0.4642670000000 1.0
C      1  0.4913450000000  0.4614240000000  0.4044140000000 1.0
C      1  0.5031180000000  0.4531380000000  0.5599070000000 1.0
C      1  0.5088350000000  0.6042970000000  0.5278350000000 1.0
C      1  0.5306140000000  0.4311770000000  0.5285210000000 1.0
C      1  0.5398480000000  0.4751640000000  0.4406040000000 1.0
C      1  0.4261770000000  0.4709910000000  0.5142460000000 1.0
C      1  0.4194470000000  0.5179890000000  0.5268800000000 1.0
C      1  0.4052910000000  0.5006050000000  0.4847280000000 1.0
C      1  0.5600980000000  0.4640120000000  0.4977290000000 1.0
C      1  0.5783980000000  0.5076700000000  0.4840960000000 1.0
C      1  0.5701480000000  0.5028580000000  0.5280550000000 1.0
C      1  0.5049030000000  0.5800810000000  0.4838510000000 1.0
C      1  0.4917260000000  0.4466490000000  0.4325880000000 1.0
C      1  0.5012950000000  0.4785130000000  0.5692880000000 1.0
C      1  0.5043590000000  0.5830110000000  0.5116900000000 1.0
C      1  0.5120180000000  0.4507680000000  0.5334750000000 1.0
C      1  0.5085520000000  0.4758340000000  0.4300700000000 1.0
END
