TITL C-27137-4574-31 -0.0003922654652747 125000 -297.253409430874 0 0 60 (C1) n - 1
REM
REM in /home/nfs/bkarasulu/CARBON/AIRSS/Generating-Clusters/AIREBO/Higher-Symm/Only-C60
REM
REM
REM
REM
REM
REM ./C.cell (28575a23ae977d3b5fae324c64b13b57)
REM
REM compiler GCC version 9.2.1 20190827 (Red Hat 9.2.1-1)
REM options -cpp -mtune=generic -march=x86-64 -g -O0 -fpre-include=/usr/include/finclude/math-vector-fortran.h
REM seed -807135374 2030810447 969373078 -1301383633 1119136668 -210659548 1770936226 -1942821676 225537170 -1351927775 1317453606 1191261629 1601363498 -1884629977 -227690940 1218667563 1358275951 2120691969 930293613 616411945 1300895888 1804491581 748951119 -839420491 1987799910 -569500217 -766091944 1978574604 1165299253 1621433332 -1551528021 -855422700 -101697811
REM
CELL 1.54180   50.00000   50.00000   50.00000   90.00000   90.00000   90.00000
LATT -1
SFAC C  
C      1  0.5174790000000  0.4835950000000  0.5562110000000 1.0
C      1  0.5144950000000  0.5587500000000  0.5236590000000 1.0
C      1  0.5184920000000  0.5138050000000  0.4441860000000 1.0
C      1  0.5112410000000  0.4510260000000  0.4786620000000 1.0
C      1  0.4904040000000  0.4806570000000  0.5572410000000 1.0
C      1  0.4887980000000  0.5611750000000  0.5215310000000 1.0
C      1  0.4887730000000  0.5200860000000  0.4431470000000 1.0
C      1  0.4850770000000  0.4504930000000  0.4797480000000 1.0
C      1  0.5230880000000  0.4482820000000  0.5100920000000 1.0
C      1  0.5268480000000  0.5095130000000  0.5380600000000 1.0
C      1  0.5283210000000  0.5447010000000  0.4959550000000 1.0
C      1  0.5121580000000  0.4843110000000  0.4507140000000 1.0
C      1  0.4751720000000  0.4483410000000  0.5122020000000 1.0
C      1  0.4738520000000  0.5062180000000  0.5421030000000 1.0
C      1  0.4769620000000  0.5495750000000  0.4919230000000 1.0
C      1  0.4747120000000  0.4949870000000  0.4595140000000 1.0
C      1  0.5898820000000  0.5052760000000  0.4625430000000 1.0
C      1  0.5724850000000  0.4514730000000  0.4965400000000 1.0
C      1  0.5842510000000  0.5019420000000  0.5366570000000 1.0
C      1  0.5610470000000  0.5498210000000  0.5183040000000 1.0
C      1  0.4265410000000  0.5129300000000  0.4501700000000 1.0
C      1  0.4214140000000  0.4580310000000  0.4949350000000 1.0
C      1  0.4215650000000  0.4903070000000  0.5413700000000 1.0
C      1  0.4199860000000  0.5493500000000  0.5020630000000 1.0
C      1  0.5293750000000  0.5356740000000  0.5527310000000 1.0
C      1  0.5410620000000  0.5483690000000  0.4646420000000 1.0
C      1  0.5354860000000  0.4644670000000  0.4498710000000 1.0
C      1  0.5422690000000  0.4493540000000  0.5326100000000 1.0
C      1  0.4514110000000  0.5314140000000  0.5461980000000 1.0
C      1  0.4617470000000  0.5575530000000  0.4625740000000 1.0
C      1  0.4491800000000  0.4531950000000  0.4496590000000 1.0
C      1  0.4638650000000  0.4393760000000  0.5415400000000 1.0
C      1  0.5490780000000  0.5527040000000  0.5428270000000 1.0
C      1  0.5418630000000  0.5228040000000  0.4548000000000 1.0
C      1  0.5451810000000  0.4527780000000  0.4774000000000 1.0
C      1  0.5430240000000  0.4735290000000  0.5439620000000 1.0
C      1  0.4380010000000  0.5405580000000  0.5256370000000 1.0
C      1  0.4567990000000  0.5291420000000  0.4508250000000 1.0
C      1  0.4511070000000  0.4509630000000  0.4808070000000 1.0
C      1  0.4668530000000  0.4672180000000  0.5464050000000 1.0
C      1  0.4938920000000  0.5761590000000  0.4791530000000 1.0
C      1  0.4652750000000  0.4719040000000  0.4395580000000 1.0
C      1  0.4864360000000  0.4185640000000  0.5036800000000 1.0
C      1  0.4868810000000  0.5227630000000  0.5688050000000 1.0
C      1  0.5190970000000  0.5745330000000  0.4824840000000 1.0
C      1  0.4914820000000  0.4749060000000  0.4292980000000 1.0
C      1  0.5119700000000  0.4189930000000  0.5025640000000 1.0
C      1  0.5087800000000  0.5387740000000  0.5711940000000 1.0
C      1  0.5565730000000  0.4802090000000  0.4945030000000 1.0
C      1  0.5555800000000  0.4978040000000  0.5237590000000 1.0
C      1  0.5540390000000  0.5230720000000  0.5012090000000 1.0
C      1  0.5612030000000  0.5056240000000  0.4729170000000 1.0
C      1  0.4448120000000  0.4810320000000  0.4965550000000 1.0
C      1  0.4492450000000  0.4865910000000  0.5281130000000 1.0
C      1  0.4494260000000  0.5327950000000  0.4962830000000 1.0
C      1  0.4480980000000  0.5079780000000  0.4759990000000 1.0
C      1  0.5008660000000  0.5247690000000  0.4923710000000 1.0
C      1  0.4996000000000  0.4921770000000  0.4820030000000 1.0
C      1  0.4990000000000  0.4725420000000  0.5098120000000 1.0
C      1  0.4994790000000  0.5050690000000  0.5197220000000 1.0
END
