TITL C-27133-8107-15 0.00174740072177904 125000 -340.668080865017 0 0 60 (C1) n - 1
REM
REM in /home/nfs/bkarasulu/CARBON/AIRSS/Generating-Clusters/AIREBO/Higher-Symm/Only-C60
REM
REM
REM
REM
REM
REM ./C.cell (28575a23ae977d3b5fae324c64b13b57)
REM
REM compiler GCC version 9.2.1 20190827 (Red Hat 9.2.1-1)
REM options -cpp -mtune=generic -march=x86-64 -g -O0 -fpre-include=/usr/include/finclude/math-vector-fortran.h
REM seed -1955086321 -508368769 -908936664 1249980378 566382333 -10264915 570117550 -2033533711 2087293463 624390853 1911388301 -1078030931 1831079859 758800241 -379484560 -1402614665 1189847765 -1762764461 -1269113111 -50393323 -1940453772 -1424793102 -2091370879 2101619326 -264701806 1928649939 50959996 547278035 230015285 212129408 -1907492178 1636340563 -910201783
REM
CELL 1.54180   50.00000   50.00000   50.00000   90.00000   90.00000   90.00000
LATT -1
SFAC C  
C      1  0.4970190000000  0.5471420000000  0.4713900000000 1.0
C      1  0.5443560000000  0.4731680000000  0.4963170000000 1.0
C      1  0.4698830000000  0.4994750000000  0.5447700000000 1.0
C      1  0.4982330000000  0.4537540000000  0.5150380000000 1.0
C      1  0.4944160000000  0.5427250000000  0.5223260000000 1.0
C      1  0.4917480000000  0.4556960000000  0.4645480000000 1.0
C      1  0.5412080000000  0.5241020000000  0.4939810000000 1.0
C      1  0.4513800000000  0.4689900000000  0.4889690000000 1.0
C      1  0.4514680000000  0.5171040000000  0.4977770000000 1.0
C      1  0.4674190000000  0.4951750000000  0.4545120000000 1.0
C      1  0.5163290000000  0.4993640000000  0.4513710000000 1.0
C      1  0.5213000000000  0.4965040000000  0.5403220000000 1.0
C      1  0.4951190000000  0.4771510000000  0.5397230000000 1.0
C      1  0.5412900000000  0.4979270000000  0.4747000000000 1.0
C      1  0.4756250000000  0.5412960000000  0.4964350000000 1.0
C      1  0.5074910000000  0.5272260000000  0.4423710000000 1.0
C      1  0.4955430000000  0.5168950000000  0.5409910000000 1.0
C      1  0.4920090000000  0.4815840000000  0.4545310000000 1.0
C      1  0.5401650000000  0.4983250000000  0.5144780000000 1.0
C      1  0.4541390000000  0.4938830000000  0.4785920000000 1.0
C      1  0.4471270000000  0.5039970000000  0.5255620000000 1.0
C      1  0.4772450000000  0.4517120000000  0.4909290000000 1.0
C      1  0.5259030000000  0.4460300000000  0.5052210000000 1.0
C      1  0.5153500000000  0.5426050000000  0.4965790000000 1.0
C      1  0.5071840000000  0.5412580000000  0.5599350000000 1.0
C      1  0.5396970000000  0.5610750000000  0.5085670000000 1.0
C      1  0.5588770000000  0.5094580000000  0.5391860000000 1.0
C      1  0.5239430000000  0.4397090000000  0.4329310000000 1.0
C      1  0.5271550000000  0.5522650000000  0.4341560000000 1.0
C      1  0.4950530000000  0.4537860000000  0.5641510000000 1.0
C      1  0.5502360000000  0.4347350000000  0.5265420000000 1.0
C      1  0.4481130000000  0.5567740000000  0.4966620000000 1.0
C      1  0.4520910000000  0.4362260000000  0.5109420000000 1.0
C      1  0.5647940000000  0.4961070000000  0.4506280000000 1.0
C      1  0.4344280000000  0.5247280000000  0.4368760000000 1.0
C      1  0.4519420000000  0.4999990000000  0.5979020000000 1.0
C      1  0.5074890000000  0.5656700000000  0.5424190000000 1.0
C      1  0.5413800000000  0.5092770000000  0.5635510000000 1.0
C      1  0.5642130000000  0.5437770000000  0.5076900000000 1.0
C      1  0.5115540000000  0.4372350000000  0.4579950000000 1.0
C      1  0.4874950000000  0.4381070000000  0.5406090000000 1.0
C      1  0.5105010000000  0.5658940000000  0.4517160000000 1.0
C      1  0.5408580000000  0.4861550000000  0.4366920000000 1.0
C      1  0.4604000000000  0.4984340000000  0.5738740000000 1.0
C      1  0.4604350000000  0.5143390000000  0.4352690000000 1.0
C      1  0.5646680000000  0.4528560000000  0.5112360000000 1.0
C      1  0.4329240000000  0.4612900000000  0.5109080000000 1.0
C      1  0.4289310000000  0.5379430000000  0.4845890000000 1.0
C      1  0.4642020000000  0.4242040000000  0.5332430000000 1.0
C      1  0.4202860000000  0.5336430000000  0.4586350000000 1.0
C      1  0.5361160000000  0.4623170000000  0.4232790000000 1.0
C      1  0.4446420000000  0.5827370000000  0.5038800000000 1.0
C      1  0.5240170000000  0.4265670000000  0.4808450000000 1.0
C      1  0.5295670000000  0.5776500000000  0.5292100000000 1.0
C      1  0.4276860000000  0.4843940000000  0.5263320000000 1.0
C      1  0.5759830000000  0.5298830000000  0.5294810000000 1.0
C      1  0.5910970000000  0.5002300000000  0.4479590000000 1.0
C      1  0.5280600000000  0.5309220000000  0.5761880000000 1.0
C      1  0.4988690000000  0.4525770000000  0.5906090000000 1.0
C      1  0.4833510000000  0.5259470000000  0.4238840000000 1.0
END
