TITL C-27139-4854-187 0.000661859917532252 125000 -278.972427308993 0 0 60 (C1) n - 1
REM
REM in /home/nfs/bkarasulu/CARBON/AIRSS/Generating-Clusters/AIREBO/Higher-Symm/Only-C60
REM
REM
REM
REM
REM
REM ./C.cell (28575a23ae977d3b5fae324c64b13b57)
REM
REM compiler GCC version 9.2.1 20190827 (Red Hat 9.2.1-1)
REM options -cpp -mtune=generic -march=x86-64 -g -O0 -fpre-include=/usr/include/finclude/math-vector-fortran.h
REM seed -1121384702 583618153 -1892867765 -900934161 -399378270 -449803873 -1881522221 -224121357 319278675 -842010577 559635974 -962639092 2118942769 787311163 -551333232 -239919407 -1331868342 1133077161 -1567344296 -1137259691 777834200 -23670974 271603133 -483193083 167454257 1728406006 -1818148307 467766616 1445821262 -2108365521 -861867378 -1184282594 1249363010
REM
CELL 1.54180   50.00000   50.00000   50.00000   90.00000   90.00000   90.00000
LATT -1
SFAC C  
C      1  0.4827240000000  0.4365780000000  0.5272250000000 1.0
C      1  0.5257100000000  0.4824840000000  0.4408090000000 1.0
C      1  0.4393180000000  0.5256010000000  0.4849070000000 1.0
C      1  0.4864920000000  0.5568840000000  0.4906740000000 1.0
C      1  0.5128300000000  0.5624700000000  0.5198810000000 1.0
C      1  0.5075690000000  0.4310320000000  0.4839820000000 1.0
C      1  0.5217210000000  0.5128730000000  0.5584140000000 1.0
C      1  0.4845420000000  0.5113440000000  0.4343880000000 1.0
C      1  0.4905850000000  0.4883440000000  0.5551150000000 1.0
C      1  0.4368400000000  0.4816150000000  0.5106250000000 1.0
C      1  0.5574280000000  0.4930800000000  0.4864940000000 1.0
C      1  0.5583100000000  0.5195400000000  0.5160950000000 1.0
C      1  0.4788940000000  0.5627920000000  0.5226920000000 1.0
C      1  0.5229950000000  0.4794050000000  0.5598780000000 1.0
C      1  0.5615580000000  0.5267630000000  0.4843530000000 1.0
C      1  0.4781820000000  0.4362580000000  0.4752160000000 1.0
C      1  0.5058820000000  0.4257280000000  0.5162290000000 1.0
C      1  0.5156010000000  0.5714540000000  0.4879270000000 1.0
C      1  0.5175650000000  0.5065230000000  0.4293730000000 1.0
C      1  0.4895290000000  0.5192070000000  0.5649840000000 1.0
C      1  0.4778670000000  0.4809100000000  0.4375100000000 1.0
C      1  0.5675830000000  0.4868350000000  0.5167100000000 1.0
C      1  0.4366780000000  0.4788070000000  0.4791410000000 1.0
C      1  0.4290220000000  0.5139840000000  0.5077790000000 1.0
C      1  0.4947380000000  0.5466000000000  0.5517190000000 1.0
C      1  0.5540170000000  0.4920340000000  0.5446650000000 1.0
C      1  0.5401540000000  0.5563600000000  0.4801560000000 1.0
C      1  0.4910880000000  0.4677410000000  0.4542290000000 1.0
C      1  0.5154530000000  0.4536030000000  0.5426380000000 1.0
C      1  0.5147780000000  0.5369840000000  0.4369270000000 1.0
C      1  0.5441540000000  0.5182120000000  0.4564290000000 1.0
C      1  0.4392030000000  0.5111840000000  0.5371590000000 1.0
C      1  0.4524130000000  0.4930230000000  0.4657900000000 1.0
C      1  0.5352920000000  0.4356690000000  0.5122640000000 1.0
C      1  0.4645260000000  0.4520690000000  0.4891980000000 1.0
C      1  0.4548350000000  0.5424250000000  0.5177020000000 1.0
C      1  0.5708960000000  0.4768210000000  0.4681390000000 1.0
C      1  0.4692190000000  0.5672090000000  0.4709880000000 1.0
C      1  0.4708250000000  0.4728210000000  0.5676280000000 1.0
C      1  0.5710150000000  0.5367310000000  0.5340010000000 1.0
C      1  0.4249460000000  0.5410870000000  0.4673780000000 1.0
C      1  0.4251140000000  0.4624570000000  0.5263620000000 1.0
C      1  0.4657390000000  0.4238050000000  0.5445360000000 1.0
C      1  0.5238260000000  0.4163220000000  0.4672470000000 1.0
C      1  0.5262370000000  0.5745200000000  0.5410030000000 1.0
C      1  0.4673200000000  0.5275140000000  0.4203570000000 1.0
C      1  0.5414180000000  0.5261290000000  0.5729300000000 1.0
C      1  0.5404740000000  0.4629280000000  0.4285250000000 1.0
C      1  0.4709820000000  0.5170820000000  0.4758830000000 1.0
C      1  0.4736810000000  0.4670200000000  0.5157610000000 1.0
C      1  0.5158650000000  0.4772460000000  0.4729470000000 1.0
C      1  0.4649010000000  0.4994780000000  0.5176990000000 1.0
C      1  0.5262700000000  0.5082090000000  0.4824030000000 1.0
C      1  0.5305490000000  0.5005600000000  0.5215810000000 1.0
C      1  0.4823870000000  0.5264440000000  0.5065300000000 1.0
C      1  0.5243400000000  0.5356180000000  0.5024640000000 1.0
C      1  0.5157730000000  0.4604280000000  0.4989810000000 1.0
C      1  0.5073260000000  0.5240860000000  0.5295590000000 1.0
C      1  0.5007350000000  0.5197170000000  0.4630970000000 1.0
C      1  0.5040830000000  0.4793500000000  0.5247240000000 1.0
END
