TITL C-27142-7278-141 -0.00214243573500996 125000 -321.508375907119 0 0 60 (C1) n - 1
REM
REM in /home/nfs/bkarasulu/CARBON/AIRSS/Generating-Clusters/AIREBO/Higher-Symm/Only-C60
REM
REM
REM
REM
REM
REM ./C.cell (28575a23ae977d3b5fae324c64b13b57)
REM
REM compiler GCC version 9.2.1 20190827 (Red Hat 9.2.1-1)
REM options -cpp -mtune=generic -march=x86-64 -g -O0 -fpre-include=/usr/include/finclude/math-vector-fortran.h
REM seed -1320636172 -22460316 -1264059751 1416151781 -1481503180 800190625 184352117 1261873027 1944860167 -861445025 -1191431684 -1321004411 1389813579 501880108 725565153 -1968214628 -547359667 2109876532 -1087243333 -1663908152 1590527324 24429671 1259924054 -1162095172 -491894596 -1287820703 -1165400971 -607453153 -1312803478 -2114684767 -1836026576 2077681232 62355369
REM
CELL 1.54180   50.00000   50.00000   50.00000   90.00000   90.00000   90.00000
LATT -1
SFAC C  
C      1  0.5065350000000  0.5521930000000  0.4668970000000 1.0
C      1  0.4670160000000  0.5078020000000  0.5536300000000 1.0
C      1  0.5524160000000  0.4666730000000  0.5073070000000 1.0
C      1  0.4874260000000  0.5563490000000  0.5468260000000 1.0
C      1  0.5134450000000  0.4505210000000  0.5402560000000 1.0
C      1  0.4802510000000  0.4397910000000  0.4523710000000 1.0
C      1  0.5378810000000  0.5123860000000  0.4496220000000 1.0
C      1  0.4597610000000  0.4777040000000  0.4343800000000 1.0
C      1  0.5469430000000  0.4871970000000  0.5559510000000 1.0
C      1  0.4361390000000  0.4584040000000  0.4782970000000 1.0
C      1  0.5555300000000  0.5457930000000  0.4861590000000 1.0
C      1  0.4498560000000  0.5394210000000  0.5144920000000 1.0
C      1  0.5029980000000  0.4466080000000  0.4726960000000 1.0
C      1  0.4520100000000  0.4834470000000  0.5601240000000 1.0
C      1  0.5595290000000  0.5417490000000  0.5169450000000 1.0
C      1  0.4824340000000  0.4471100000000  0.5380400000000 1.0
C      1  0.5181250000000  0.5597250000000  0.5417420000000 1.0
C      1  0.4818660000000  0.5592930000000  0.4527580000000 1.0
C      1  0.5350710000000  0.4812980000000  0.4469190000000 1.0
C      1  0.4692670000000  0.5028640000000  0.4475620000000 1.0
C      1  0.5425850000000  0.5180060000000  0.5592540000000 1.0
C      1  0.4462310000000  0.5363580000000  0.4835880000000 1.0
C      1  0.5591740000000  0.4518450000000  0.4829170000000 1.0
C      1  0.4465340000000  0.4693640000000  0.5036710000000 1.0
C      1  0.5206550000000  0.4515460000000  0.4440610000000 1.0
C      1  0.4423180000000  0.5217820000000  0.4543150000000 1.0
C      1  0.4531180000000  0.4430920000000  0.5235630000000 1.0
C      1  0.4554140000000  0.4513080000000  0.5565880000000 1.0
C      1  0.5391870000000  0.5503570000000  0.5658210000000 1.0
C      1  0.4676430000000  0.5343780000000  0.4348990000000 1.0
C      1  0.5668670000000  0.5385530000000  0.5491410000000 1.0
C      1  0.4340330000000  0.4690490000000  0.5352900000000 1.0
C      1  0.5540550000000  0.4546290000000  0.4508040000000 1.0
C      1  0.5341270000000  0.4332250000000  0.4698800000000 1.0
C      1  0.4497680000000  0.5550630000000  0.4566620000000 1.0
C      1  0.5503460000000  0.5663990000000  0.5374870000000 1.0
C      1  0.5267740000000  0.5419750000000  0.4419650000000 1.0
C      1  0.4368400000000  0.4657480000000  0.4477990000000 1.0
C      1  0.4556990000000  0.5599180000000  0.5402200000000 1.0
C      1  0.4663670000000  0.5393020000000  0.5662390000000 1.0
C      1  0.5399860000000  0.4555490000000  0.5598630000000 1.0
C      1  0.4793440000000  0.4574430000000  0.4296730000000 1.0
C      1  0.5655710000000  0.4657530000000  0.5385220000000 1.0
C      1  0.4423710000000  0.5287590000000  0.5442720000000 1.0
C      1  0.5583320000000  0.5383120000000  0.4545250000000 1.0
C      1  0.5380150000000  0.5646190000000  0.4650100000000 1.0
C      1  0.4534690000000  0.4371950000000  0.4625240000000 1.0
C      1  0.5426600000000  0.4423960000000  0.5284660000000 1.0
C      1  0.4731070000000  0.5215220000000  0.4982120000000 1.0
C      1  0.5355960000000  0.4927480000000  0.5035610000000 1.0
C      1  0.4969680000000  0.4738290000000  0.5227750000000 1.0
C      1  0.5208190000000  0.4966800000000  0.4737380000000 1.0
C      1  0.4962380000000  0.4699240000000  0.4903570000000 1.0
C      1  0.5030880000000  0.5357500000000  0.4932340000000 1.0
C      1  0.5024570000000  0.5339270000000  0.5260870000000 1.0
C      1  0.4930020000000  0.5038270000000  0.5367170000000 1.0
C      1  0.5258650000000  0.5024970000000  0.5340330000000 1.0
C      1  0.4881170000000  0.4965560000000  0.4708420000000 1.0
C      1  0.5334610000000  0.5255470000000  0.5022570000000 1.0
C      1  0.4692990000000  0.4889430000000  0.4981940000000 1.0
END
