TITL C-27136-4842-25 -0.000566979997596505 125000 -337.158480328512 0 0 60 (C1) n - 1
REM
REM in /home/nfs/bkarasulu/CARBON/AIRSS/Generating-Clusters/AIREBO/Higher-Symm/Only-C60
REM
REM
REM
REM
REM
REM ./C.cell (28575a23ae977d3b5fae324c64b13b57)
REM
REM compiler GCC version 9.2.1 20190827 (Red Hat 9.2.1-1)
REM options -cpp -mtune=generic -march=x86-64 -g -O0 -fpre-include=/usr/include/finclude/math-vector-fortran.h
REM seed -1226696538 -766121323 293336338 658331609 -1525170648 461596314 -1586397926 1304267111 -656918640 -1090532552 -488688562 484788440 1789540166 -1485006301 933874610 1511881318 -121460218 436189707 -185130495 -727215490 -263176410 1251903858 1725605571 1183930544 -9140613 1051684344 1794172811 1575840467 -1285211868 1188459271 1922449819 1002057175 730711789
REM
CELL 1.54180   50.00000   50.00000   50.00000   90.00000   90.00000   90.00000
LATT -1
SFAC C  
C      1  0.4601280000000  0.5301860000000  0.4529650000000 1.0
C      1  0.4632700000000  0.4728880000000  0.4528830000000 1.0
C      1  0.5150520000000  0.5263950000000  0.5234980000000 1.0
C      1  0.5140460000000  0.4651980000000  0.5086900000000 1.0
C      1  0.4641190000000  0.5237440000000  0.5144590000000 1.0
C      1  0.4745150000000  0.4690730000000  0.5130230000000 1.0
C      1  0.4396360000000  0.4539230000000  0.4663550000000 1.0
C      1  0.4423630000000  0.5293310000000  0.4803730000000 1.0
C      1  0.5471860000000  0.5546700000000  0.5169790000000 1.0
C      1  0.5346420000000  0.4284300000000  0.5229240000000 1.0
C      1  0.5580970000000  0.4515370000000  0.4889780000000 1.0
C      1  0.5395810000000  0.5441300000000  0.4690640000000 1.0
C      1  0.5680700000000  0.4835310000000  0.5377770000000 1.0
C      1  0.5633600000000  0.5142510000000  0.5399880000000 1.0
C      1  0.5517190000000  0.4768910000000  0.4701900000000 1.0
C      1  0.5213210000000  0.5245800000000  0.4766410000000 1.0
C      1  0.4680440000000  0.5184600000000  0.5539100000000 1.0
C      1  0.4595200000000  0.4871720000000  0.5581400000000 1.0
C      1  0.4992890000000  0.5635770000000  0.5100930000000 1.0
C      1  0.4863060000000  0.4358380000000  0.5317970000000 1.0
C      1  0.4920710000000  0.5206580000000  0.4597270000000 1.0
C      1  0.4913970000000  0.4905280000000  0.4455490000000 1.0
C      1  0.4715650000000  0.4820290000000  0.4846110000000 1.0
C      1  0.4785560000000  0.5099510000000  0.4869350000000 1.0
C      1  0.5638900000000  0.4725910000000  0.5126790000000 1.0
C      1  0.5544090000000  0.5273170000000  0.5167750000000 1.0
C      1  0.4443170000000  0.4525130000000  0.4932700000000 1.0
C      1  0.4461640000000  0.5535640000000  0.4948390000000 1.0
C      1  0.5134750000000  0.4733190000000  0.4457620000000 1.0
C      1  0.5146490000000  0.5354510000000  0.4390410000000 1.0
C      1  0.4976330000000  0.5215690000000  0.5694370000000 1.0
C      1  0.4932670000000  0.4889660000000  0.5629210000000 1.0
C      1  0.4792220000000  0.4442480000000  0.4446910000000 1.0
C      1  0.4750940000000  0.5564320000000  0.4649220000000 1.0
C      1  0.5157190000000  0.4492100000000  0.5386630000000 1.0
C      1  0.5199680000000  0.5563730000000  0.5361340000000 1.0
C      1  0.4470390000000  0.5147100000000  0.4305450000000 1.0
C      1  0.4447130000000  0.4896600000000  0.4322680000000 1.0
C      1  0.5047760000000  0.4478230000000  0.4552100000000 1.0
C      1  0.5032880000000  0.5589840000000  0.4603880000000 1.0
C      1  0.5363150000000  0.4831660000000  0.4993220000000 1.0
C      1  0.5308980000000  0.5118540000000  0.5014530000000 1.0
C      1  0.5437640000000  0.4855970000000  0.5593160000000 1.0
C      1  0.5443950000000  0.5178380000000  0.5640810000000 1.0
C      1  0.4448180000000  0.5361020000000  0.5399420000000 1.0
C      1  0.4507310000000  0.4743490000000  0.5350070000000 1.0
C      1  0.5140540000000  0.5697430000000  0.4858860000000 1.0
C      1  0.5059870000000  0.4429830000000  0.4850410000000 1.0
C      1  0.4959230000000  0.4826700000000  0.5300230000000 1.0
C      1  0.4907380000000  0.5128740000000  0.5310340000000 1.0
C      1  0.5197680000000  0.4709410000000  0.5598240000000 1.0
C      1  0.5214700000000  0.5342750000000  0.5619590000000 1.0
C      1  0.5359390000000  0.5141890000000  0.4369990000000 1.0
C      1  0.5384200000000  0.4862110000000  0.4471900000000 1.0
C      1  0.4360700000000  0.4779200000000  0.5082810000000 1.0
C      1  0.4406910000000  0.5047870000000  0.4986750000000 1.0
C      1  0.5433390000000  0.5655200000000  0.4905580000000 1.0
C      1  0.5360660000000  0.4343960000000  0.4959830000000 1.0
C      1  0.4736880000000  0.5552830000000  0.5060710000000 1.0
C      1  0.4754500000000  0.4396040000000  0.5002660000000 1.0
END
