TITL C-27135-6010-105 -0.000530371418396076 125000 -345.637656173522 0 0 60 (C1) n - 1
REM
REM in /home/nfs/bkarasulu/CARBON/AIRSS/Generating-Clusters/AIREBO/Higher-Symm/Only-C60
REM
REM
REM
REM
REM
REM ./C.cell (28575a23ae977d3b5fae324c64b13b57)
REM
REM compiler GCC version 9.2.1 20190827 (Red Hat 9.2.1-1)
REM options -cpp -mtune=generic -march=x86-64 -g -O0 -fpre-include=/usr/include/finclude/math-vector-fortran.h
REM seed 1727084417 -2035859205 -903070000 1423999325 1807181857 -529449535 -1680556652 -543038181 1292787269 -1104286905 -320227754 -14528387 -68595221 -1165546781 917047248 -1746271212 -454663709 -1878853214 488331983 -1123039775 965441919 -976453672 -1153511724 467360527 -551678085 878504356 -1748445012 -1333044713 -141605428 582742823 -410951275 -308150374 1753803310
REM
CELL 1.54180   50.00000   50.00000   50.00000   90.00000   90.00000   90.00000
LATT -1
SFAC C  
C      1  0.5067980000000  0.5588500000000  0.5429980000000 1.0
C      1  0.5007270000000  0.4870420000000  0.5804850000000 1.0
C      1  0.5038480000000  0.4343970000000  0.5306600000000 1.0
C      1  0.5037430000000  0.4438460000000  0.4586940000000 1.0
C      1  0.5111780000000  0.5080720000000  0.4194720000000 1.0
C      1  0.4946170000000  0.5618390000000  0.4739330000000 1.0
C      1  0.4595870000000  0.5165050000000  0.5573820000000 1.0
C      1  0.4607510000000  0.4580500000000  0.5388860000000 1.0
C      1  0.4584700000000  0.4598660000000  0.4863510000000 1.0
C      1  0.4750920000000  0.4755270000000  0.4115040000000 1.0
C      1  0.4586330000000  0.5418620000000  0.4422640000000 1.0
C      1  0.4627620000000  0.5795710000000  0.5228170000000 1.0
C      1  0.5601910000000  0.5079470000000  0.4394170000000 1.0
C      1  0.5444740000000  0.5428280000000  0.4725110000000 1.0
C      1  0.5432960000000  0.5313910000000  0.5296370000000 1.0
C      1  0.5513320000000  0.4904890000000  0.5636750000000 1.0
C      1  0.5528610000000  0.4515330000000  0.5187950000000 1.0
C      1  0.5493570000000  0.4647460000000  0.4700770000000 1.0
C      1  0.5154630000000  0.5013260000000  0.5326340000000 1.0
C      1  0.5287010000000  0.4753950000000  0.5171040000000 1.0
C      1  0.5203540000000  0.4714450000000  0.4868580000000 1.0
C      1  0.5126090000000  0.4972420000000  0.4675980000000 1.0
C      1  0.5263790000000  0.5189810000000  0.4852100000000 1.0
C      1  0.5147610000000  0.5267690000000  0.5117330000000 1.0
C      1  0.4779390000000  0.5380670000000  0.5534120000000 1.0
C      1  0.4809520000000  0.4718960000000  0.5572460000000 1.0
C      1  0.4730180000000  0.4514580000000  0.5085360000000 1.0
C      1  0.4863540000000  0.4614320000000  0.4355360000000 1.0
C      1  0.4768250000000  0.5239390000000  0.4311710000000 1.0
C      1  0.4682270000000  0.5673050000000  0.4949260000000 1.0
C      1  0.5201280000000  0.4317490000000  0.4823260000000 1.0
C      1  0.5355510000000  0.4895570000000  0.4248590000000 1.0
C      1  0.5153890000000  0.5471290000000  0.4592560000000 1.0
C      1  0.5233450000000  0.5652600000000  0.5177660000000 1.0
C      1  0.5224000000000  0.5057490000000  0.5717170000000 1.0
C      1  0.5298070000000  0.4448830000000  0.5428880000000 1.0
C      1  0.4636500000000  0.5579990000000  0.4626990000000 1.0
C      1  0.4756420000000  0.5683180000000  0.5435970000000 1.0
C      1  0.4699480000000  0.4969260000000  0.5743020000000 1.0
C      1  0.4790530000000  0.4309990000000  0.5422760000000 1.0
C      1  0.4704090000000  0.4514160000000  0.4629400000000 1.0
C      1  0.4829360000000  0.5025730000000  0.4093500000000 1.0
C      1  0.5023140000000  0.4473220000000  0.5027050000000 1.0
C      1  0.5161280000000  0.4730290000000  0.4467360000000 1.0
C      1  0.5050410000000  0.5215870000000  0.4481580000000 1.0
C      1  0.4963140000000  0.5521320000000  0.5051000000000 1.0
C      1  0.5092500000000  0.5279070000000  0.5512900000000 1.0
C      1  0.5087730000000  0.4715560000000  0.5445000000000 1.0
C      1  0.4446460000000  0.4818510000000  0.5250950000000 1.0
C      1  0.4396360000000  0.4782470000000  0.4969030000000 1.0
C      1  0.4197160000000  0.4951260000000  0.4863410000000 1.0
C      1  0.4136720000000  0.5190960000000  0.4989670000000 1.0
C      1  0.4211000000000  0.5231880000000  0.5253920000000 1.0
C      1  0.4412330000000  0.5072720000000  0.5374930000000 1.0
C      1  0.5521160000000  0.4681800000000  0.5486810000000 1.0
C      1  0.5469780000000  0.4417710000000  0.4889780000000 1.0
C      1  0.5568260000000  0.4782000000000  0.4486970000000 1.0
C      1  0.5644220000000  0.5310830000000  0.4519080000000 1.0
C      1  0.5460420000000  0.5505580000000  0.5044500000000 1.0
C      1  0.5482370000000  0.5197200000000  0.5531090000000 1.0
END
