TITL C-27135-6010-71 0.000813175118869293 125000 -328.524284066292 0 0 60 (C2) n - 1
REM
REM in /home/nfs/bkarasulu/CARBON/AIRSS/Generating-Clusters/AIREBO/Higher-Symm/Only-C60
REM
REM
REM
REM
REM
REM ./C.cell (28575a23ae977d3b5fae324c64b13b57)
REM
REM compiler GCC version 9.2.1 20190827 (Red Hat 9.2.1-1)
REM options -cpp -mtune=generic -march=x86-64 -g -O0 -fpre-include=/usr/include/finclude/math-vector-fortran.h
REM seed 523974189 1614313408 -503603391 1441604192 -1781305574 1690148250 -625666273 -1324851851 350331239 -1789745131 933193700 -797392907 -1394319926 -1697429832 751288324 -1854789372 -717579557 -2007670813 -444987973 -1201472198 -913083613 346972260 -401810892 1485213713 424744973 1168384476 852640729 -1718224706 -1561824960 1185119194 665744341 1526622766 -100809754
REM
CELL 1.54180   50.00000   50.00000   50.00000   90.00000   90.00000   90.00000
LATT -1
SFAC C  
C      1  0.5587670000000  0.5149050000000  0.5353320000000 1.0
C      1  0.4412390000000  0.4851190000000  0.5353510000000 1.0
C      1  0.5575840000000  0.4892380000000  0.4692170000000 1.0
C      1  0.4424110000000  0.5107410000000  0.4692190000000 1.0
C      1  0.5280610000000  0.4873260000000  0.4755230000000 1.0
C      1  0.4719350000000  0.5126570000000  0.4755190000000 1.0
C      1  0.5295740000000  0.5168830000000  0.5275670000000 1.0
C      1  0.4704300000000  0.4831360000000  0.5275840000000 1.0
C      1  0.5782630000000  0.4415530000000  0.4811630000000 1.0
C      1  0.4217340000000  0.5584340000000  0.4811360000000 1.0
C      1  0.5689040000000  0.5473070000000  0.4971070000000 1.0
C      1  0.4310950000000  0.4526920000000  0.4971500000000 1.0
C      1  0.4870720000000  0.5152250000000  0.5021920000000 1.0
C      1  0.5129280000000  0.4847770000000  0.5022000000000 1.0
C      1  0.4823520000000  0.4820050000000  0.4997690000000 1.0
C      1  0.5176480000000  0.5179940000000  0.4997540000000 1.0
C      1  0.4876860000000  0.5570970000000  0.5024820000000 1.0
C      1  0.5123140000000  0.4429050000000  0.5025190000000 1.0
C      1  0.4827910000000  0.4420960000000  0.5020730000000 1.0
C      1  0.5172100000000  0.5579050000000  0.5020310000000 1.0
C      1  0.5464420000000  0.4836340000000  0.5406300000000 1.0
C      1  0.4535650000000  0.5163930000000  0.5406260000000 1.0
C      1  0.5447660000000  0.5183390000000  0.4571560000000 1.0
C      1  0.4552270000000  0.4816320000000  0.4571760000000 1.0
C      1  0.5296760000000  0.4475640000000  0.4778360000000 1.0
C      1  0.4703200000000  0.5524210000000  0.4778050000000 1.0
C      1  0.5328550000000  0.5566180000000  0.5284090000000 1.0
C      1  0.4671500000000  0.4434010000000  0.5284520000000 1.0
C      1  0.5273550000000  0.4660090000000  0.5224630000000 1.0
C      1  0.4726490000000  0.5340060000000  0.5224440000000 1.0
C      1  0.5319880000000  0.5364760000000  0.4798650000000 1.0
C      1  0.4680090000000  0.4635100000000  0.4798940000000 1.0
C      1  0.5183850000000  0.5076710000000  0.4422370000000 1.0
C      1  0.4816050000000  0.4922900000000  0.4422450000000 1.0
C      1  0.5187680000000  0.4933200000000  0.5578740000000 1.0
C      1  0.4812410000000  0.5067190000000  0.5578730000000 1.0
C      1  0.5571290000000  0.4596290000000  0.4859470000000 1.0
C      1  0.4428690000000  0.5403610000000  0.4859290000000 1.0
C      1  0.5583750000000  0.5441340000000  0.5234600000000 1.0
C      1  0.4416290000000  0.4558820000000  0.5234990000000 1.0
C      1  0.4099940000000  0.4920520000000  0.4833220000000 1.0
C      1  0.5900030000000  0.5079360000000  0.4833020000000 1.0
C      1  0.4136130000000  0.5072490000000  0.5062120000000 1.0
C      1  0.5863880000000  0.4927550000000  0.5062030000000 1.0
C      1  0.5350640000000  0.5687820000000  0.4754560000000 1.0
C      1  0.4649320000000  0.4312020000000  0.4755080000000 1.0
C      1  0.5281820000000  0.4340900000000  0.5307830000000 1.0
C      1  0.4718230000000  0.5659310000000  0.5307430000000 1.0
C      1  0.5194660000000  0.5471130000000  0.5517170000000 1.0
C      1  0.4805420000000  0.4529220000000  0.5517520000000 1.0
C      1  0.5201590000000  0.4549200000000  0.4534820000000 1.0
C      1  0.4798340000000  0.5450490000000  0.4534540000000 1.0
C      1  0.5707950000000  0.5275710000000  0.4769990000000 1.0
C      1  0.4292020000000  0.4724130000000  0.4770290000000 1.0
C      1  0.5633930000000  0.4788700000000  0.5115010000000 1.0
C      1  0.4366080000000  0.5211370000000  0.5114970000000 1.0
C      1  0.4910780000000  0.5223820000000  0.4418280000000 1.0
C      1  0.5089130000000  0.4775790000000  0.4418410000000 1.0
C      1  0.4922820000000  0.4768890000000  0.5603420000000 1.0
C      1  0.5077270000000  0.5231520000000  0.5603250000000 1.0
END
