TITL C-27130-3996-17 0.00592492385773221 125000 -323.724907525433 0 0 60 (C1) n - 1
REM
REM in /home/nfs/bkarasulu/CARBON/AIRSS/Generating-Clusters/AIREBO/Higher-Symm/Only-C60
REM
REM
REM
REM
REM
REM ./C.cell (28575a23ae977d3b5fae324c64b13b57)
REM
REM compiler GCC version 9.2.1 20190827 (Red Hat 9.2.1-1)
REM options -cpp -mtune=generic -march=x86-64 -g -O0 -fpre-include=/usr/include/finclude/math-vector-fortran.h
REM seed 776479316 1860234957 369539070 1106828243 1693092837 1856813360 1330465416 -905934738 506524790 -1175967558 -481153396 387654494 1501187872 1818093607 1622023456 -1388434803 -1363009243 -1225370403 615108392 339110999 -1865096203 -1765549401 -530518121 -1471193376 39541085 615674427 -2076990941 1950761775 -1673630298 -394893843 2010286790 -825724358 1964660455
REM
CELL 1.54180   50.00000   50.00000   50.00000   90.00000   90.00000   90.00000
LATT -1
SFAC C  
C      1  0.4441640000000  0.5384300000000  0.5156060000000 1.0
C      1  0.4527390000000  0.5380310000000  0.4844300000000 1.0
C      1  0.4753260000000  0.5353530000000  0.5172390000000 1.0
C      1  0.4829880000000  0.5254710000000  0.4795140000000 1.0
C      1  0.4984470000000  0.5576940000000  0.5283180000000 1.0
C      1  0.4914210000000  0.5545780000000  0.4949520000000 1.0
C      1  0.4664280000000  0.4381450000000  0.5149700000000 1.0
C      1  0.4695560000000  0.4259270000000  0.4869780000000 1.0
C      1  0.4896780000000  0.5422340000000  0.4438590000000 1.0
C      1  0.4684490000000  0.5319000000000  0.5652830000000 1.0
C      1  0.5003030000000  0.5574390000000  0.4630710000000 1.0
C      1  0.5170180000000  0.5459140000000  0.5544960000000 1.0
C      1  0.5466890000000  0.5088890000000  0.4832300000000 1.0
C      1  0.5388990000000  0.4981840000000  0.5145560000000 1.0
C      1  0.5319600000000  0.4402220000000  0.5135960000000 1.0
C      1  0.5272070000000  0.4456070000000  0.4815070000000 1.0
C      1  0.5543310000000  0.5483130000000  0.4653310000000 1.0
C      1  0.5547230000000  0.5493320000000  0.5280070000000 1.0
C      1  0.5059270000000  0.4719940000000  0.4814640000000 1.0
C      1  0.5094550000000  0.4829590000000  0.5104730000000 1.0
C      1  0.5277850000000  0.5537980000000  0.5115790000000 1.0
C      1  0.5281950000000  0.5543410000000  0.4792690000000 1.0
C      1  0.4721430000000  0.4685430000000  0.4381160000000 1.0
C      1  0.4742800000000  0.4711720000000  0.5555230000000 1.0
C      1  0.5612840000000  0.4460820000000  0.5196440000000 1.0
C      1  0.5584940000000  0.4522270000000  0.4868650000000 1.0
C      1  0.5449120000000  0.5048990000000  0.4498640000000 1.0
C      1  0.5429440000000  0.5065430000000  0.5472680000000 1.0
C      1  0.4762540000000  0.4427640000000  0.5695600000000 1.0
C      1  0.4954060000000  0.4475480000000  0.4402850000000 1.0
C      1  0.5763710000000  0.5439410000000  0.5112430000000 1.0
C      1  0.5698510000000  0.5337030000000  0.4860910000000 1.0
C      1  0.5170210000000  0.5231930000000  0.5217850000000 1.0
C      1  0.5159490000000  0.5240870000000  0.4878120000000 1.0
C      1  0.4959300000000  0.5223580000000  0.5484800000000 1.0
C      1  0.4829540000000  0.5169390000000  0.4330560000000 1.0
C      1  0.4653800000000  0.5395380000000  0.5897370000000 1.0
C      1  0.4821580000000  0.5146320000000  0.4060160000000 1.0
C      1  0.5308190000000  0.4793440000000  0.5488740000000 1.0
C      1  0.5386260000000  0.4804220000000  0.4412360000000 1.0
C      1  0.4783600000000  0.4918900000000  0.4821500000000 1.0
C      1  0.4837050000000  0.5024830000000  0.5149070000000 1.0
C      1  0.4710990000000  0.4466680000000  0.4622950000000 1.0
C      1  0.4855400000000  0.4462260000000  0.5368600000000 1.0
C      1  0.5430780000000  0.5350190000000  0.5503280000000 1.0
C      1  0.5513850000000  0.5319470000000  0.4420870000000 1.0
C      1  0.4338990000000  0.4805840000000  0.5185560000000 1.0
C      1  0.4476280000000  0.4783590000000  0.4875270000000 1.0
C      1  0.4415910000000  0.4449940000000  0.4844600000000 1.0
C      1  0.4395780000000  0.4520900000000  0.5164700000000 1.0
C      1  0.4250810000000  0.5028210000000  0.4877150000000 1.0
C      1  0.4248360000000  0.5108130000000  0.5213120000000 1.0
C      1  0.4478210000000  0.5201440000000  0.5436550000000 1.0
C      1  0.4317210000000  0.5245710000000  0.4722520000000 1.0
C      1  0.5653090000000  0.4767340000000  0.5173400000000 1.0
C      1  0.5659720000000  0.4818900000000  0.4860470000000 1.0
C      1  0.5128010000000  0.4576520000000  0.5298640000000 1.0
C      1  0.5194130000000  0.4599870000000  0.4533080000000 1.0
C      1  0.4762270000000  0.4945110000000  0.4483070000000 1.0
C      1  0.4724930000000  0.4979220000000  0.5453750000000 1.0
END
