TITL C-27140-5627-8 -0.00342356941278096 125000 -307.150759157795 0 0 60 (C1) n - 1
REM
REM in /home/nfs/bkarasulu/CARBON/AIRSS/Generating-Clusters/AIREBO/Higher-Symm/Only-C60
REM
REM
REM
REM
REM
REM ./C.cell (28575a23ae977d3b5fae324c64b13b57)
REM
REM compiler GCC version 9.2.1 20190827 (Red Hat 9.2.1-1)
REM options -cpp -mtune=generic -march=x86-64 -g -O0 -fpre-include=/usr/include/finclude/math-vector-fortran.h
REM seed -226448764 -60228740 332172760 -818291273 1847836980 -1469664246 1598184380 2006745560 -471872870 1017948580 -1312943494 -829298322 369104354 -894652714 -666755938 303838235 2060801829 1081893492 1775296666 2021591383 -337864385 -1637298830 1815448923 2080617154 -2048996070 -11188777 1046583132 -1808536250 -93640737 -1673267969 -1264927608 -383632726 1190002828
REM
CELL 1.54180   50.00000   50.00000   50.00000   90.00000   90.00000   90.00000
LATT -1
SFAC C  
C      1  0.4310760000000  0.4781230000000  0.5112380000000 1.0
C      1  0.4335640000000  0.5048740000000  0.4935620000000 1.0
C      1  0.4293090000000  0.5074620000000  0.5260930000000 1.0
C      1  0.4560430000000  0.4562070000000  0.5066080000000 1.0
C      1  0.4540130000000  0.5174910000000  0.4711190000000 1.0
C      1  0.4532200000000  0.5252950000000  0.5407190000000 1.0
C      1  0.4697600000000  0.4359680000000  0.5381310000000 1.0
C      1  0.4757000000000  0.5002910000000  0.4250180000000 1.0
C      1  0.4664330000000  0.5619650000000  0.5322370000000 1.0
C      1  0.4917870000000  0.5457380000000  0.4877040000000 1.0
C      1  0.4908770000000  0.4869150000000  0.5425610000000 1.0
C      1  0.4908970000000  0.4705270000000  0.4663920000000 1.0
C      1  0.5223080000000  0.4787130000000  0.4896450000000 1.0
C      1  0.5210450000000  0.5185090000000  0.4888820000000 1.0
C      1  0.5215450000000  0.5053300000000  0.5193020000000 1.0
C      1  0.5400960000000  0.5145720000000  0.5425120000000 1.0
C      1  0.5417900000000  0.4543430000000  0.4890580000000 1.0
C      1  0.5427080000000  0.5353140000000  0.4720080000000 1.0
C      1  0.5039370000000  0.4770780000000  0.5157390000000 1.0
C      1  0.5049440000000  0.4994580000000  0.4689180000000 1.0
C      1  0.4997560000000  0.5287750000000  0.5136250000000 1.0
C      1  0.5226700000000  0.5487850000000  0.4476260000000 1.0
C      1  0.5213770000000  0.5185540000000  0.5706480000000 1.0
C      1  0.5221860000000  0.4288170000000  0.4780110000000 1.0
C      1  0.5403240000000  0.5147830000000  0.3996630000000 1.0
C      1  0.5276010000000  0.5635260000000  0.5562950000000 1.0
C      1  0.5287560000000  0.4187040000000  0.5245650000000 1.0
C      1  0.5501100000000  0.4352760000000  0.5179410000000 1.0
C      1  0.5515240000000  0.5096470000000  0.4287160000000 1.0
C      1  0.5485340000000  0.5490390000000  0.5448120000000 1.0
C      1  0.5609040000000  0.4803910000000  0.4997170000000 1.0
C      1  0.5594860000000  0.5091910000000  0.4831780000000 1.0
C      1  0.5612040000000  0.5092550000000  0.5163710000000 1.0
C      1  0.4210140000000  0.5359520000000  0.5387430000000 1.0
C      1  0.4233920000000  0.4471550000000  0.5089400000000 1.0
C      1  0.4227760000000  0.5238560000000  0.4678890000000 1.0
C      1  0.4815110000000  0.4698700000000  0.4956130000000 1.0
C      1  0.4825000000000  0.5228670000000  0.4681280000000 1.0
C      1  0.4801280000000  0.5141800000000  0.5313530000000 1.0
C      1  0.5176970000000  0.4876340000000  0.5614410000000 1.0
C      1  0.5178210000000  0.4535300000000  0.4573470000000 1.0
C      1  0.5195880000000  0.5577810000000  0.4796030000000 1.0
C      1  0.4786500000000  0.4317980000000  0.5062710000000 1.0
C      1  0.4918460000000  0.5260550000000  0.4363000000000 1.0
C      1  0.4760780000000  0.5430210000000  0.5585910000000 1.0
C      1  0.5709660000000  0.4548030000000  0.5160770000000 1.0
C      1  0.5644860000000  0.5087370000000  0.4515570000000 1.0
C      1  0.5701370000000  0.5372420000000  0.5297890000000 1.0
C      1  0.4881780000000  0.4292000000000  0.4737830000000 1.0
C      1  0.4896280000000  0.5574000000000  0.4495450000000 1.0
C      1  0.4876010000000  0.5139120000000  0.5718560000000 1.0
C      1  0.5075560000000  0.5475160000000  0.5660550000000 1.0
C      1  0.5087250000000  0.4196350000000  0.5060180000000 1.0
C      1  0.5224890000000  0.5256890000000  0.4263850000000 1.0
C      1  0.4750430000000  0.4759010000000  0.4359200000000 1.0
C      1  0.4710840000000  0.5667020000000  0.5065480000000 1.0
C      1  0.4725110000000  0.4585420000000  0.5520580000000 1.0
C      1  0.4743630000000  0.5709520000000  0.4729660000000 1.0
C      1  0.4740440000000  0.4859720000000  0.5720970000000 1.0
C      1  0.4747070000000  0.4451820000000  0.4505130000000 1.0
END
