TITL C-27142-7278-162 5.69202127700049e-05 125000 -326.960397658758 0 0 60 (C1) n - 1
REM
REM in /home/nfs/bkarasulu/CARBON/AIRSS/Generating-Clusters/AIREBO/Higher-Symm/Only-C60
REM
REM
REM
REM
REM
REM ./C.cell (28575a23ae977d3b5fae324c64b13b57)
REM
REM compiler GCC version 9.2.1 20190827 (Red Hat 9.2.1-1)
REM options -cpp -mtune=generic -march=x86-64 -g -O0 -fpre-include=/usr/include/finclude/math-vector-fortran.h
REM seed 876087896 910344458 -1619376430 202250127 2039154937 1583597655 578294156 -354530326 -639437509 1992262851 761059690 -1231996421 -46663695 -1437747920 -1663114518 934702611 1153658591 -671934991 397780028 -188238809 1547293863 -907472549 -1509263828 31812315 648963118 1465561167 878645762 717800829 -1348108951 -1700565006 -1054170227 -171266482 -685072893
REM
CELL 1.54180   50.00000   50.00000   50.00000   90.00000   90.00000   90.00000
LATT -1
SFAC C  
C      1  0.5390600000000  0.5142630000000  0.4705080000000 1.0
C      1  0.4536840000000  0.5289380000000  0.4813070000000 1.0
C      1  0.4962310000000  0.5136310000000  0.5488200000000 1.0
C      1  0.5432590000000  0.4902920000000  0.5211030000000 1.0
C      1  0.4576000000000  0.4770450000000  0.5243490000000 1.0
C      1  0.5036280000000  0.4780380000000  0.4541590000000 1.0
C      1  0.4940620000000  0.4383180000000  0.5144510000000 1.0
C      1  0.5204400000000  0.4369750000000  0.4949610000000 1.0
C      1  0.4896580000000  0.4328340000000  0.4810900000000 1.0
C      1  0.4963470000000  0.5626260000000  0.4819900000000 1.0
C      1  0.5199480000000  0.5708420000000  0.5037880000000 1.0
C      1  0.4884110000000  0.5729280000000  0.5136560000000 1.0
C      1  0.4879710000000  0.4808950000000  0.4275440000000 1.0
C      1  0.4304650000000  0.4812810000000  0.5412230000000 1.0
C      1  0.5708330000000  0.5007460000000  0.5380290000000 1.0
C      1  0.4841130000000  0.5158510000000  0.5793960000000 1.0
C      1  0.4386310000000  0.5218350000000  0.4555040000000 1.0
C      1  0.5640190000000  0.4966250000000  0.4643550000000 1.0
C      1  0.4327680000000  0.5104930000000  0.5140890000000 1.0
C      1  0.5465440000000  0.5061600000000  0.5573900000000 1.0
C      1  0.5201670000000  0.5249080000000  0.4476260000000 1.0
C      1  0.4331020000000  0.4876470000000  0.4926060000000 1.0
C      1  0.5567700000000  0.4787840000000  0.4430200000000 1.0
C      1  0.5347750000000  0.4756800000000  0.5506610000000 1.0
C      1  0.4874250000000  0.4669890000000  0.5277020000000 1.0
C      1  0.5310960000000  0.4613800000000  0.4778290000000 1.0
C      1  0.4818360000000  0.4742070000000  0.4784890000000 1.0
C      1  0.4859620000000  0.5321810000000  0.4827560000000 1.0
C      1  0.5191420000000  0.5356060000000  0.5225380000000 1.0
C      1  0.4902670000000  0.5330690000000  0.5144490000000 1.0
C      1  0.5766720000000  0.4599350000000  0.4943400000000 1.0
C      1  0.4450810000000  0.4734060000000  0.4641430000000 1.0
C      1  0.4817810000000  0.4684140000000  0.5671370000000 1.0
C      1  0.5681400000000  0.5394420000000  0.5077510000000 1.0
C      1  0.4441450000000  0.5319390000000  0.5379000000000 1.0
C      1  0.4889260000000  0.5274260000000  0.4344310000000 1.0
C      1  0.5766330000000  0.4894540000000  0.4891050000000 1.0
C      1  0.4485300000000  0.4987380000000  0.4442030000000 1.0
C      1  0.4682270000000  0.4929410000000  0.5684580000000 1.0
C      1  0.5754960000000  0.5108850000000  0.5095830000000 1.0
C      1  0.4464640000000  0.5024140000000  0.5531420000000 1.0
C      1  0.4720710000000  0.5030020000000  0.4295070000000 1.0
C      1  0.4375610000000  0.5411610000000  0.5053610000000 1.0
C      1  0.5265710000000  0.5255030000000  0.5513910000000 1.0
C      1  0.5135080000000  0.5494160000000  0.4250180000000 1.0
C      1  0.4549940000000  0.4619450000000  0.4963470000000 1.0
C      1  0.5331080000000  0.4657930000000  0.4481050000000 1.0
C      1  0.5125830000000  0.4581100000000  0.5654190000000 1.0
C      1  0.4941080000000  0.5564390000000  0.4520430000000 1.0
C      1  0.4683920000000  0.5523310000000  0.5255490000000 1.0
C      1  0.5436650000000  0.5541150000000  0.5098880000000 1.0
C      1  0.4891550000000  0.4405340000000  0.5481470000000 1.0
C      1  0.4676480000000  0.4479290000000  0.4622190000000 1.0
C      1  0.5539030000000  0.4441260000000  0.4921370000000 1.0
C      1  0.4647690000000  0.5000350000000  0.4925480000000 1.0
C      1  0.5076190000000  0.4860490000000  0.5374830000000 1.0
C      1  0.5330880000000  0.4869580000000  0.4901290000000 1.0
C      1  0.4767250000000  0.5050580000000  0.5219740000000 1.0
C      1  0.4999070000000  0.5088870000000  0.4679920000000 1.0
C      1  0.5323160000000  0.5165520000000  0.5031620000000 1.0
END
