TITL C-27132-7279-186 0.000117238489818243 125000 -298.328203793476 0 0 60 (D5d) n - 1
REM
REM in /home/nfs/bkarasulu/CARBON/AIRSS/Generating-Clusters/AIREBO/Higher-Symm/Only-C60
REM
REM
REM
REM
REM
REM ./C.cell (28575a23ae977d3b5fae324c64b13b57)
REM
REM compiler GCC version 9.2.1 20190827 (Red Hat 9.2.1-1)
REM options -cpp -mtune=generic -march=x86-64 -g -O0 -fpre-include=/usr/include/finclude/math-vector-fortran.h
REM seed -1843713156 1332944140 -1224521880 368244710 1773576570 1631764190 444866868 1489435569 -1220531228 1968012708 -519954811 -1355403905 2133833590 1043355964 77688954 1393668728 1977053646 -1665963350 2094206098 -793124144 730234831 374418522 -2045427937 -1240630270 -1837967890 -848259482 -1595246221 1938341800 -290222137 2023857955 -654350784 1812760713 -1259267170
REM
CELL 1.54180   50.00000   50.00000   50.00000   90.00000   90.00000   90.00000
LATT -1
SFAC C  
C      1  0.5243460000000  0.4627980000000  0.5082800000000 1.0
C      1  0.5148410000000  0.5372030000000  0.5210000000000 1.0
C      1  0.4996530000000  0.4628050000000  0.5257240000000 1.0
C      1  0.4846100000000  0.5372080000000  0.5205930000000 1.0
C      1  0.4754310000000  0.4628050000000  0.5076300000000 1.0
C      1  0.4756550000000  0.5372020000000  0.4917160000000 1.0
C      1  0.4851550000000  0.4627970000000  0.4790030000000 1.0
C      1  0.5003520000000  0.5371950000000  0.4742760000000 1.0
C      1  0.5153860000000  0.4627920000000  0.4794040000000 1.0
C      1  0.5245700000000  0.5371950000000  0.4923740000000 1.0
C      1  0.4586930000000  0.5103920000000  0.4859570000000 1.0
C      1  0.4748240000000  0.4896070000000  0.4643690000000 1.0
C      1  0.5005900000000  0.5103790000000  0.4563720000000 1.0
C      1  0.5261090000000  0.4896000000000  0.4650480000000 1.0
C      1  0.5416740000000  0.5103800000000  0.4870760000000 1.0
C      1  0.5413100000000  0.4896080000000  0.5140330000000 1.0
C      1  0.5251680000000  0.5103930000000  0.5356370000000 1.0
C      1  0.4994200000000  0.4896210000000  0.5436280000000 1.0
C      1  0.4738830000000  0.5104000000000  0.5349460000000 1.0
C      1  0.4583290000000  0.4896200000000  0.5129330000000 1.0
C      1  0.4856020000000  0.4124610000000  0.4796580000000 1.0
C      1  0.5003490000000  0.5875310000000  0.4750530000000 1.0
C      1  0.5149070000000  0.4124570000000  0.4800470000000 1.0
C      1  0.5238250000000  0.5875310000000  0.4925970000000 1.0
C      1  0.5235920000000  0.4124620000000  0.5080370000000 1.0
C      1  0.5143940000000  0.5875390000000  0.5203450000000 1.0
C      1  0.4996560000000  0.4124690000000  0.5249470000000 1.0
C      1  0.4850890000000  0.5875430000000  0.5199500000000 1.0
C      1  0.4761770000000  0.4124690000000  0.5074080000000 1.0
C      1  0.4764090000000  0.5875380000000  0.4919580000000 1.0
C      1  0.5282130000000  0.5223520000000  0.4405600000000 1.0
C      1  0.5577490000000  0.4776190000000  0.4684920000000 1.0
C      1  0.5652470000000  0.5223610000000  0.5084580000000 1.0
C      1  0.5478140000000  0.4776380000000  0.5451930000000 1.0
C      1  0.5121160000000  0.5223820000000  0.5646600000000 1.0
C      1  0.4717960000000  0.4776520000000  0.5594460000000 1.0
C      1  0.4422460000000  0.5223850000000  0.5314980000000 1.0
C      1  0.4347510000000  0.4776430000000  0.4915530000000 1.0
C      1  0.4521950000000  0.5223660000000  0.4547990000000 1.0
C      1  0.4878730000000  0.4776220000000  0.4353410000000 1.0
C      1  0.5138340000000  0.4776150000000  0.4356870000000 1.0
C      1  0.5490110000000  0.5223480000000  0.4561010000000 1.0
C      1  0.5654430000000  0.4776200000000  0.4932890000000 1.0
C      1  0.5568930000000  0.5223640000000  0.5330410000000 1.0
C      1  0.5266080000000  0.4776400000000  0.5601730000000 1.0
C      1  0.4861550000000  0.5223820000000  0.5643120000000 1.0
C      1  0.4509970000000  0.4776480000000  0.5439070000000 1.0
C      1  0.4345550000000  0.5223770000000  0.5067000000000 1.0
C      1  0.4431020000000  0.4776320000000  0.4669700000000 1.0
C      1  0.4734020000000  0.5223560000000  0.4398220000000 1.0
C      1  0.5399400000000  0.4356190000000  0.5135840000000 1.0
C      1  0.5243470000000  0.5643820000000  0.5344500000000 1.0
C      1  0.4994300000000  0.4356320000000  0.5422020000000 1.0
C      1  0.4747530000000  0.5643890000000  0.5337820000000 1.0
C      1  0.4596950000000  0.4356310000000  0.5125180000000 1.0
C      1  0.4600630000000  0.5643810000000  0.4864090000000 1.0
C      1  0.4756460000000  0.4356180000000  0.4655550000000 1.0
C      1  0.5005780000000  0.5643680000000  0.4577980000000 1.0
C      1  0.5252410000000  0.4356110000000  0.4662130000000 1.0
C      1  0.5403080000000  0.5643690000000  0.4874890000000 1.0
END
