TITL C-27138-9601-106 0.00160804410945302 125000 -341.394607568034 0 0 60 (C1) n - 1
REM
REM in /home/nfs/bkarasulu/CARBON/AIRSS/Generating-Clusters/AIREBO/Higher-Symm/Only-C60
REM
REM
REM
REM
REM
REM ./C.cell (28575a23ae977d3b5fae324c64b13b57)
REM
REM compiler GCC version 9.2.1 20190827 (Red Hat 9.2.1-1)
REM options -cpp -mtune=generic -march=x86-64 -g -O0 -fpre-include=/usr/include/finclude/math-vector-fortran.h
REM seed 1192421790 -1711115604 -2020698904 -777059815 -1027036513 -411592961 1089742835 -748103512 -1460383454 2063306318 700667906 -2109395050 -1683073431 -1232519569 948529933 -942226296 502717925 10064601 -1557016386 1971705856 -422061755 205790518 -1534213961 1292176491 -2028737537 322194928 -1368206402 121209239 -936172449 1742550171 -2140147754 -547379528 -1369852380
REM
CELL 1.54180   50.00000   50.00000   50.00000   90.00000   90.00000   90.00000
LATT -1
SFAC C  
C      1  0.4862520000000  0.5151880000000  0.5863210000000 1.0
C      1  0.4967150000000  0.4848480000000  0.5899990000000 1.0
C      1  0.5178140000000  0.5099580000000  0.5900350000000 1.0
C      1  0.4819250000000  0.4965470000000  0.4347840000000 1.0
C      1  0.5126080000000  0.4892690000000  0.4311580000000 1.0
C      1  0.5033820000000  0.5194100000000  0.4273250000000 1.0
C      1  0.4437170000000  0.4820800000000  0.5304070000000 1.0
C      1  0.5443960000000  0.4598720000000  0.5303850000000 1.0
C      1  0.5131360000000  0.5613160000000  0.5259050000000 1.0
C      1  0.4412430000000  0.4814020000000  0.4615890000000 1.0
C      1  0.5420150000000  0.4565750000000  0.4563090000000 1.0
C      1  0.5156740000000  0.5644440000000  0.4658090000000 1.0
C      1  0.4627680000000  0.4382620000000  0.4684400000000 1.0
C      1  0.5722790000000  0.4932740000000  0.4642740000000 1.0
C      1  0.4675520000000  0.5684290000000  0.4691420000000 1.0
C      1  0.4496710000000  0.4383540000000  0.5233120000000 1.0
C      1  0.5750270000000  0.4836830000000  0.5208750000000 1.0
C      1  0.4672000000000  0.5741740000000  0.5218040000000 1.0
C      1  0.4910180000000  0.4374400000000  0.4657270000000 1.0
C      1  0.5592440000000  0.5170930000000  0.4630980000000 1.0
C      1  0.4565900000000  0.5438700000000  0.4685470000000 1.0
C      1  0.4745240000000  0.4400610000000  0.5267950000000 1.0
C      1  0.5632360000000  0.5048360000000  0.5271720000000 1.0
C      1  0.4557030000000  0.5494910000000  0.5253210000000 1.0
C      1  0.5257970000000  0.4795720000000  0.4529180000000 1.0
C      1  0.5105640000000  0.5378680000000  0.4473860000000 1.0
C      1  0.4697720000000  0.4878620000000  0.4581330000000 1.0
C      1  0.5240950000000  0.4772780000000  0.5463090000000 1.0
C      1  0.5046860000000  0.5334110000000  0.5432180000000 1.0
C      1  0.4687650000000  0.4948790000000  0.5437170000000 1.0
C      1  0.4936410000000  0.5727890000000  0.4812210000000 1.0
C      1  0.4417410000000  0.4567860000000  0.4761750000000 1.0
C      1  0.5646910000000  0.4662730000000  0.4718980000000 1.0
C      1  0.4930630000000  0.5742150000000  0.5102080000000 1.0
C      1  0.4349360000000  0.4600400000000  0.5056730000000 1.0
C      1  0.5637900000000  0.4601850000000  0.5020350000000 1.0
C      1  0.5162130000000  0.4833000000000  0.5137830000000 1.0
C      1  0.5057320000000  0.5250090000000  0.5108660000000 1.0
C      1  0.4772460000000  0.4916050000000  0.5109480000000 1.0
C      1  0.5210620000000  0.4917580000000  0.4821710000000 1.0
C      1  0.5045400000000  0.5279840000000  0.4777280000000 1.0
C      1  0.4824460000000  0.4823700000000  0.4827000000000 1.0
C      1  0.5245950000000  0.4333790000000  0.4613150000000 1.0
C      1  0.5442230000000  0.5474640000000  0.4584620000000 1.0
C      1  0.4430120000000  0.5130590000000  0.4736110000000 1.0
C      1  0.4929070000000  0.4769350000000  0.5600540000000 1.0
C      1  0.5237740000000  0.5090540000000  0.5588610000000 1.0
C      1  0.4808950000000  0.5196240000000  0.5588640000000 1.0
C      1  0.5416600000000  0.4361670000000  0.5095210000000 1.0
C      1  0.5390190000000  0.5632320000000  0.5147240000000 1.0
C      1  0.4197270000000  0.4894370000000  0.5112470000000 1.0
C      1  0.5205500000000  0.4332470000000  0.4923280000000 1.0
C      1  0.5434950000000  0.5515500000000  0.4913330000000 1.0
C      1  0.4191030000000  0.5099800000000  0.4938800000000 1.0
C      1  0.5356700000000  0.5195950000000  0.4852340000000 1.0
C      1  0.4738690000000  0.5218000000000  0.4849790000000 1.0
C      1  0.5056040000000  0.4614700000000  0.4822400000000 1.0
C      1  0.5323310000000  0.5104910000000  0.5263080000000 1.0
C      1  0.4722850000000  0.5246420000000  0.5172750000000 1.0
C      1  0.4908160000000  0.4658150000000  0.5281450000000 1.0
END
