TITL C-27144-3922-127 -0.00136838382935513 125000 -345.229417054103 0 0 60 (C1) n - 1
REM
REM in /home/nfs/bkarasulu/CARBON/AIRSS/Generating-Clusters/AIREBO/Higher-Symm/Only-C60
REM
REM
REM
REM
REM
REM ./C.cell (28575a23ae977d3b5fae324c64b13b57)
REM
REM compiler GCC version 9.2.1 20190827 (Red Hat 9.2.1-1)
REM options -cpp -mtune=generic -march=x86-64 -g -O0 -fpre-include=/usr/include/finclude/math-vector-fortran.h
REM seed 1973529253 -118557743 -1612151306 -476090995 -637356127 878825862 -1087826168 -1580497833 -435548037 -202047552 262746830 1252307670 -1784189083 -1177317285 176349235 -1940060756 2075251154 343477432 -297171555 887417498 -1186468686 581289584 1185238722 1997683712 -1601466081 -69304586 561002681 1442675551 1037858717 1195270410 44505279 -400058020 568113906
REM
CELL 1.54180   50.00000   50.00000   50.00000   90.00000   90.00000   90.00000
LATT -1
SFAC C  
C      1  0.4443240000000  0.4912000000000  0.5226040000000 1.0
C      1  0.4415100000000  0.5145410000000  0.4739160000000 1.0
C      1  0.4623730000000  0.5581790000000  0.5241950000000 1.0
C      1  0.4836370000000  0.5558060000000  0.4709560000000 1.0
C      1  0.5178320000000  0.5519380000000  0.5354040000000 1.0
C      1  0.5414380000000  0.5321850000000  0.4707730000000 1.0
C      1  0.5572510000000  0.5011770000000  0.5177580000000 1.0
C      1  0.5561550000000  0.4786590000000  0.4801110000000 1.0
C      1  0.5331010000000  0.4512590000000  0.5380610000000 1.0
C      1  0.5124210000000  0.4393300000000  0.4740910000000 1.0
C      1  0.4862790000000  0.4520620000000  0.5327560000000 1.0
C      1  0.4560160000000  0.4571260000000  0.4771650000000 1.0
C      1  0.4235140000000  0.4966980000000  0.4889530000000 1.0
C      1  0.4373880000000  0.5402170000000  0.5119260000000 1.0
C      1  0.4565440000000  0.5635330000000  0.4761490000000 1.0
C      1  0.4867340000000  0.5782590000000  0.5103120000000 1.0
C      1  0.5283600000000  0.5568520000000  0.4889370000000 1.0
C      1  0.5598970000000  0.5325090000000  0.5145570000000 1.0
C      1  0.5769640000000  0.4988360000000  0.4830940000000 1.0
C      1  0.5571970000000  0.4675780000000  0.5230310000000 1.0
C      1  0.5387860000000  0.4307750000000  0.4802320000000 1.0
C      1  0.5105240000000  0.4316820000000  0.5217490000000 1.0
C      1  0.4678750000000  0.4375770000000  0.4947600000000 1.0
C      1  0.4372900000000  0.4619110000000  0.5208600000000 1.0
C      1  0.4880640000000  0.5302930000000  0.4368480000000 1.0
C      1  0.4983710000000  0.5150550000000  0.5703510000000 1.0
C      1  0.5152310000000  0.5351380000000  0.4292490000000 1.0
C      1  0.5204070000000  0.5156730000000  0.5524950000000 1.0
C      1  0.5310490000000  0.5170230000000  0.4448200000000 1.0
C      1  0.5330300000000  0.4892490000000  0.5502210000000 1.0
C      1  0.5211560000000  0.4900620000000  0.4438710000000 1.0
C      1  0.5206240000000  0.4657710000000  0.5626610000000 1.0
C      1  0.4903330000000  0.4844920000000  0.4359700000000 1.0
C      1  0.4920250000000  0.4671280000000  0.5596550000000 1.0
C      1  0.4780390000000  0.5070360000000  0.4238910000000 1.0
C      1  0.4797570000000  0.4931750000000  0.5617030000000 1.0
C      1  0.4697190000000  0.5035510000000  0.4785580000000 1.0
C      1  0.4764640000000  0.5104360000000  0.5372280000000 1.0
C      1  0.4887920000000  0.5256330000000  0.4691760000000 1.0
C      1  0.4861990000000  0.5396450000000  0.5316350000000 1.0
C      1  0.5147740000000  0.5194190000000  0.4857490000000 1.0
C      1  0.5128640000000  0.5220790000000  0.5198730000000 1.0
C      1  0.5269160000000  0.4877270000000  0.4833570000000 1.0
C      1  0.5249970000000  0.4904180000000  0.5171990000000 1.0
C      1  0.5087590000000  0.4680560000000  0.4667000000000 1.0
C      1  0.4947570000000  0.4795870000000  0.5198930000000 1.0
C      1  0.4759270000000  0.4764940000000  0.4640360000000 1.0
C      1  0.4718120000000  0.4968090000000  0.5085450000000 1.0
C      1  0.4588740000000  0.4430830000000  0.5220750000000 1.0
C      1  0.4329420000000  0.4694930000000  0.4910480000000 1.0
C      1  0.4255580000000  0.5141060000000  0.5172370000000 1.0
C      1  0.4396490000000  0.5415260000000  0.4829640000000 1.0
C      1  0.4568740000000  0.5816140000000  0.5001790000000 1.0
C      1  0.5026460000000  0.5679640000000  0.4884860000000 1.0
C      1  0.5391840000000  0.5517980000000  0.5150030000000 1.0
C      1  0.5670980000000  0.5248830000000  0.4861240000000 1.0
C      1  0.5845010000000  0.4829440000000  0.5093920000000 1.0
C      1  0.5607060000000  0.4512110000000  0.4933680000000 1.0
C      1  0.5436100000000  0.4302960000000  0.5140180000000 1.0
C      1  0.4948810000000  0.4312400000000  0.4940730000000 1.0
END
