TITL C-27143-4867-195 -0.00243345808768327 125000 -331.877931818939 0 0 60 (C1) n - 1
REM
REM in /home/nfs/bkarasulu/CARBON/AIRSS/Generating-Clusters/AIREBO/Higher-Symm/Only-C60
REM
REM
REM
REM
REM
REM ./C.cell (28575a23ae977d3b5fae324c64b13b57)
REM
REM compiler GCC version 9.2.1 20190827 (Red Hat 9.2.1-1)
REM options -cpp -mtune=generic -march=x86-64 -g -O0 -fpre-include=/usr/include/finclude/math-vector-fortran.h
REM seed -1451181046 -799324614 990255931 1716086970 -1135061039 723274970 1145641573 -1130786452 886582081 -1138780341 -1201826919 1777613976 -261284239 -1041029618 476809526 1864808909 1623195443 291567046 -1579547701 -338073354 649978719 220256267 1641278875 1097833013 1156634909 -346831983 -999922215 -95994480 -666178833 -2128475447 105899421 1450071126 -150765925
REM
CELL 1.54180   50.00000   50.00000   50.00000   90.00000   90.00000   90.00000
LATT -1
SFAC C  
C      1  0.5671070000000  0.4515720000000  0.5055120000000 1.0
C      1  0.4323580000000  0.5479360000000  0.5072300000000 1.0
C      1  0.4340420000000  0.4518840000000  0.5084930000000 1.0
C      1  0.5689080000000  0.5479630000000  0.5043570000000 1.0
C      1  0.5351730000000  0.5223230000000  0.5001140000000 1.0
C      1  0.4639960000000  0.4773940000000  0.4966900000000 1.0
C      1  0.4627610000000  0.5236720000000  0.4984780000000 1.0
C      1  0.5346810000000  0.4794840000000  0.5016510000000 1.0
C      1  0.4843420000000  0.4407510000000  0.5240560000000 1.0
C      1  0.5112970000000  0.5513950000000  0.5131580000000 1.0
C      1  0.5131960000000  0.4506160000000  0.5233470000000 1.0
C      1  0.4836490000000  0.5639250000000  0.5185830000000 1.0
C      1  0.5259430000000  0.4861000000000  0.5566940000000 1.0
C      1  0.4768320000000  0.5119180000000  0.5504650000000 1.0
C      1  0.4781660000000  0.4853860000000  0.5492820000000 1.0
C      1  0.5291550000000  0.5119820000000  0.5669430000000 1.0
C      1  0.5129400000000  0.4845630000000  0.5253490000000 1.0
C      1  0.4788940000000  0.5304590000000  0.5222960000000 1.0
C      1  0.4809370000000  0.4734750000000  0.5198800000000 1.0
C      1  0.5105890000000  0.5182290000000  0.5208510000000 1.0
C      1  0.5672800000000  0.4867450000000  0.4492700000000 1.0
C      1  0.4326080000000  0.5113370000000  0.4508690000000 1.0
C      1  0.4341330000000  0.4845960000000  0.4504720000000 1.0
C      1  0.5673550000000  0.5133610000000  0.4479650000000 1.0
C      1  0.5476530000000  0.5381910000000  0.4522130000000 1.0
C      1  0.4544540000000  0.4600700000000  0.4547080000000 1.0
C      1  0.4515990000000  0.5369860000000  0.4519400000000 1.0
C      1  0.5464930000000  0.4628830000000  0.4524600000000 1.0
C      1  0.4760420000000  0.4878330000000  0.4733410000000 1.0
C      1  0.5250370000000  0.5138430000000  0.4741830000000 1.0
C      1  0.5242610000000  0.4863650000000  0.4758560000000 1.0
C      1  0.4757420000000  0.5150890000000  0.4746760000000 1.0
C      1  0.4854210000000  0.5386450000000  0.4551490000000 1.0
C      1  0.5163550000000  0.4590120000000  0.4624920000000 1.0
C      1  0.5156070000000  0.5400470000000  0.4592150000000 1.0
C      1  0.4876780000000  0.4652470000000  0.4538510000000 1.0
C      1  0.5274280000000  0.5646530000000  0.4793970000000 1.0
C      1  0.4817630000000  0.4581060000000  0.4257500000000 1.0
C      1  0.4784360000000  0.5586210000000  0.4334990000000 1.0
C      1  0.5214090000000  0.4360610000000  0.4856860000000 1.0
C      1  0.4324800000000  0.5139260000000  0.5043230000000 1.0
C      1  0.5655230000000  0.4853740000000  0.5039020000000 1.0
C      1  0.5669960000000  0.5146210000000  0.5026070000000 1.0
C      1  0.4334880000000  0.4852760000000  0.5024550000000 1.0
C      1  0.4679870000000  0.4364550000000  0.5536160000000 1.0
C      1  0.5295440000000  0.5527560000000  0.5401360000000 1.0
C      1  0.5329340000000  0.4369520000000  0.5459310000000 1.0
C      1  0.4723420000000  0.5589650000000  0.5495650000000 1.0
C      1  0.4871350000000  0.4591720000000  0.5611420000000 1.0
C      1  0.5174190000000  0.5372630000000  0.5604910000000 1.0
C      1  0.5164400000000  0.4583390000000  0.5623560000000 1.0
C      1  0.4880680000000  0.5375910000000  0.5605500000000 1.0
C      1  0.5416790000000  0.4381460000000  0.5128560000000 1.0
C      1  0.4509950000000  0.5590480000000  0.5237360000000 1.0
C      1  0.4510690000000  0.4402390000000  0.5258680000000 1.0
C      1  0.5427040000000  0.5605400000000  0.5095040000000 1.0
C      1  0.5707430000000  0.4671370000000  0.4759870000000 1.0
C      1  0.4290220000000  0.5329000000000  0.4769170000000 1.0
C      1  0.4293620000000  0.4637120000000  0.4769510000000 1.0
C      1  0.5723520000000  0.5328670000000  0.4746870000000 1.0
END
