TITL C-27131-4585-109 -0.00235636344098989 125000 -359.163490444904 0 0 60 (C1) n - 1
REM
REM in /home/nfs/bkarasulu/CARBON/AIRSS/Generating-Clusters/AIREBO/Higher-Symm/Only-C60
REM
REM
REM
REM
REM
REM ./C.cell (28575a23ae977d3b5fae324c64b13b57)
REM
REM compiler GCC version 9.2.1 20190827 (Red Hat 9.2.1-1)
REM options -cpp -mtune=generic -march=x86-64 -g -O0 -fpre-include=/usr/include/finclude/math-vector-fortran.h
REM seed 1292666060 -1560300979 304515273 1011146256 -1053603959 -172577498 1691804376 -500771710 496490164 1203999698 176972860 381436309 996780304 -1550121812 1345760230 29764020 -1675198413 824360369 1363703503 -1873810423 -1563133075 -1015363874 -616160753 1930252945 144131197 -1153158643 1411265071 1947958909 -1842805661 -1896605626 276695172 276699950 456040649
REM
CELL 1.54180   50.00000   50.00000   50.00000   90.00000   90.00000   90.00000
LATT -1
SFAC C  
C      1  0.5006150000000  0.4590780000000  0.4916050000000 1.0
C      1  0.5129540000000  0.4784010000000  0.4521320000000 1.0
C      1  0.5045240000000  0.5263630000000  0.4647510000000 1.0
C      1  0.5039000000000  0.5447590000000  0.5048860000000 1.0
C      1  0.5079850000000  0.5166960000000  0.5474460000000 1.0
C      1  0.5002550000000  0.4659620000000  0.5384420000000 1.0
C      1  0.4617550000000  0.4344990000000  0.4971280000000 1.0
C      1  0.4663010000000  0.4772110000000  0.4332990000000 1.0
C      1  0.4614730000000  0.5722190000000  0.4521960000000 1.0
C      1  0.4625340000000  0.5692180000000  0.5016300000000 1.0
C      1  0.4608430000000  0.5227940000000  0.5605920000000 1.0
C      1  0.4835750000000  0.4425750000000  0.5411530000000 1.0
C      1  0.4995410000000  0.4221940000000  0.5530900000000 1.0
C      1  0.4890020000000  0.4315740000000  0.4875610000000 1.0
C      1  0.4925520000000  0.4764270000000  0.4269960000000 1.0
C      1  0.4858080000000  0.5690330000000  0.4396440000000 1.0
C      1  0.4909660000000  0.5717540000000  0.5071500000000 1.0
C      1  0.4864570000000  0.5201960000000  0.5718470000000 1.0
C      1  0.4840190000000  0.5231150000000  0.5161840000000 1.0
C      1  0.4929890000000  0.4945360000000  0.5307050000000 1.0
C      1  0.4672760000000  0.4871840000000  0.5136010000000 1.0
C      1  0.4770370000000  0.4799440000000  0.4866540000000 1.0
C      1  0.5005660000000  0.4954930000000  0.4721880000000 1.0
C      1  0.4801240000000  0.5197430000000  0.4851910000000 1.0
C      1  0.4432510000000  0.4970260000000  0.4331310000000 1.0
C      1  0.4541270000000  0.5581340000000  0.4757130000000 1.0
C      1  0.4492630000000  0.5574830000000  0.5240010000000 1.0
C      1  0.4404200000000  0.5035620000000  0.5642540000000 1.0
C      1  0.4596890000000  0.4436460000000  0.5249080000000 1.0
C      1  0.4448970000000  0.4485230000000  0.4781810000000 1.0
C      1  0.4488480000000  0.4704240000000  0.5269870000000 1.0
C      1  0.4542560000000  0.4768470000000  0.4655020000000 1.0
C      1  0.4412720000000  0.5080740000000  0.4614490000000 1.0
C      1  0.4542380000000  0.5291590000000  0.4740260000000 1.0
C      1  0.4618550000000  0.5348550000000  0.5347860000000 1.0
C      1  0.4339150000000  0.4827970000000  0.5473180000000 1.0
C      1  0.5265080000000  0.4297510000000  0.5538640000000 1.0
C      1  0.5153330000000  0.4257760000000  0.4738490000000 1.0
C      1  0.5212070000000  0.4892710000000  0.4189040000000 1.0
C      1  0.5061350000000  0.5551030000000  0.4486400000000 1.0
C      1  0.5163540000000  0.5771630000000  0.5245910000000 1.0
C      1  0.5152020000000  0.5085970000000  0.5811970000000 1.0
C      1  0.5531630000000  0.5187050000000  0.4516330000000 1.0
C      1  0.5340390000000  0.5444710000000  0.4924930000000 1.0
C      1  0.5376960000000  0.5305410000000  0.5427410000000 1.0
C      1  0.5488530000000  0.4812920000000  0.5500480000000 1.0
C      1  0.5304250000000  0.4584470000000  0.5071130000000 1.0
C      1  0.5442230000000  0.4682190000000  0.4571520000000 1.0
C      1  0.5311700000000  0.4584440000000  0.5402390000000 1.0
C      1  0.5349820000000  0.4449450000000  0.4774710000000 1.0
C      1  0.5450180000000  0.4961780000000  0.4370770000000 1.0
C      1  0.5336400000000  0.5402620000000  0.4602140000000 1.0
C      1  0.5363010000000  0.5569470000000  0.5240610000000 1.0
C      1  0.5411970000000  0.5040700000000  0.5647770000000 1.0
C      1  0.5603000000000  0.5174470000000  0.5235270000000 1.0
C      1  0.5632560000000  0.4898190000000  0.5271810000000 1.0
C      1  0.5577100000000  0.4740940000000  0.5046460000000 1.0
C      1  0.5630920000000  0.4824330000000  0.4790770000000 1.0
C      1  0.5660020000000  0.5102230000000  0.4755250000000 1.0
C      1  0.5591130000000  0.5263030000000  0.4976530000000 1.0
END
