TITL C-27142-7278-103 0.000318943355204728 125000 -316.528806686977 0 0 60 (C1) n - 1
REM
REM in /home/nfs/bkarasulu/CARBON/AIRSS/Generating-Clusters/AIREBO/Higher-Symm/Only-C60
REM
REM
REM
REM
REM
REM ./C.cell (28575a23ae977d3b5fae324c64b13b57)
REM
REM compiler GCC version 9.2.1 20190827 (Red Hat 9.2.1-1)
REM options -cpp -mtune=generic -march=x86-64 -g -O0 -fpre-include=/usr/include/finclude/math-vector-fortran.h
REM seed -252028232 1476004186 16933061 775018460 -794417207 1497820074 -1576832717 537865381 -5512050 642501839 -404943313 -2012486413 -1274262409 -357233723 1740976537 -1933531962 -475600562 -145072515 -1609086870 -592111982 -1163068689 945787064 -1936597552 1651611763 -324192893 971048011 179078692 82504596 1670277295 1711649366 -1605577285 -1655145621 -1993430129
REM
CELL 1.54180   50.00000   50.00000   50.00000   90.00000   90.00000   90.00000
LATT -1
SFAC C  
C      1  0.5489020000000  0.5534530000000  0.4945980000000 1.0
C      1  0.4616520000000  0.4428140000000  0.4970060000000 1.0
C      1  0.4859140000000  0.5353510000000  0.5564490000000 1.0
C      1  0.5262070000000  0.4599820000000  0.4360790000000 1.0
C      1  0.4874300000000  0.4985580000000  0.4758960000000 1.0
C      1  0.5063270000000  0.5083230000000  0.5127060000000 1.0
C      1  0.4689260000000  0.4994280000000  0.4473770000000 1.0
C      1  0.5272230000000  0.5025330000000  0.5359720000000 1.0
C      1  0.4798340000000  0.5618010000000  0.4413220000000 1.0
C      1  0.5110490000000  0.4328810000000  0.5633560000000 1.0
C      1  0.4754630000000  0.5838900000000  0.5174900000000 1.0
C      1  0.5337690000000  0.4208270000000  0.4871670000000 1.0
C      1  0.4535960000000  0.4793190000000  0.4667640000000 1.0
C      1  0.5551850000000  0.5203330000000  0.5283710000000 1.0
C      1  0.4489360000000  0.5236340000000  0.4461220000000 1.0
C      1  0.5378580000000  0.4738310000000  0.5510240000000 1.0
C      1  0.5211230000000  0.4291870000000  0.5099300000000 1.0
C      1  0.4804240000000  0.5731670000000  0.4930820000000 1.0
C      1  0.4903850000000  0.5019080000000  0.4238450000000 1.0
C      1  0.5119320000000  0.5006980000000  0.5650850000000 1.0
C      1  0.5012040000000  0.4496730000000  0.4654030000000 1.0
C      1  0.5028010000000  0.5566940000000  0.5279580000000 1.0
C      1  0.5313000000000  0.4404440000000  0.4634370000000 1.0
C      1  0.4736170000000  0.5629150000000  0.5416330000000 1.0
C      1  0.5780090000000  0.4985700000000  0.5390120000000 1.0
C      1  0.4206010000000  0.4834750000000  0.4667310000000 1.0
C      1  0.5514080000000  0.4999000000000  0.5030310000000 1.0
C      1  0.4535930000000  0.4958790000000  0.4954760000000 1.0
C      1  0.4621040000000  0.4894200000000  0.5672780000000 1.0
C      1  0.5358980000000  0.5157630000000  0.4454340000000 1.0
C      1  0.5293770000000  0.4490010000000  0.5704910000000 1.0
C      1  0.4570280000000  0.5472930000000  0.4364100000000 1.0
C      1  0.5192990000000  0.5092480000000  0.4810860000000 1.0
C      1  0.4776940000000  0.4907730000000  0.5154790000000 1.0
C      1  0.4466290000000  0.5276590000000  0.4965600000000 1.0
C      1  0.5487660000000  0.4731210000000  0.5126630000000 1.0
C      1  0.5284210000000  0.5609360000000  0.5359820000000 1.0
C      1  0.4797490000000  0.4368970000000  0.4460420000000 1.0
C      1  0.5207190000000  0.4614400000000  0.5134770000000 1.0
C      1  0.4712810000000  0.5416170000000  0.4885740000000 1.0
C      1  0.5513840000000  0.5020240000000  0.4724160000000 1.0
C      1  0.4435170000000  0.5130810000000  0.5659110000000 1.0
C      1  0.4903960000000  0.4810330000000  0.5676700000000 1.0
C      1  0.5065520000000  0.5211130000000  0.4376110000000 1.0
C      1  0.4745230000000  0.5069250000000  0.5418900000000 1.0
C      1  0.5193560000000  0.4875280000000  0.4546780000000 1.0
C      1  0.4336030000000  0.5136100000000  0.4709910000000 1.0
C      1  0.5659820000000  0.4731010000000  0.5371690000000 1.0
C      1  0.4987060000000  0.4699960000000  0.4887880000000 1.0
C      1  0.5000840000000  0.5382640000000  0.5038460000000 1.0
C      1  0.5480730000000  0.4702050000000  0.4602930000000 1.0
C      1  0.4547140000000  0.5345620000000  0.5418730000000 1.0
C      1  0.5235070000000  0.5429930000000  0.4805460000000 1.0
C      1  0.4810170000000  0.4569430000000  0.5147340000000 1.0
C      1  0.4904100000000  0.5298220000000  0.4628350000000 1.0
C      1  0.5060520000000  0.4673680000000  0.5437940000000 1.0
C      1  0.5493290000000  0.5484530000000  0.5215840000000 1.0
C      1  0.4644950000000  0.4521190000000  0.4694080000000 1.0
C      1  0.4983580000000  0.5624070000000  0.4684260000000 1.0
C      1  0.4983100000000  0.4358200000000  0.5337390000000 1.0
END
