TITL C-27137-4574-134 -0.00186618398742427 125000 -325.739250637417 0 0 60 (C1) n - 1
REM
REM in /home/nfs/bkarasulu/CARBON/AIRSS/Generating-Clusters/AIREBO/Higher-Symm/Only-C60
REM
REM
REM
REM
REM
REM ./C.cell (28575a23ae977d3b5fae324c64b13b57)
REM
REM compiler GCC version 9.2.1 20190827 (Red Hat 9.2.1-1)
REM options -cpp -mtune=generic -march=x86-64 -g -O0 -fpre-include=/usr/include/finclude/math-vector-fortran.h
REM seed -108100783 -45081773 412780756 -926509617 -1694823513 -173315748 1988717288 -306810954 -1715864192 -1574273041 -704481235 63858930 -1439384653 1396087174 -1416406776 -1110291959 912538902 1280757391 -1617424236 121265303 1547496757 -1582670799 -1065777807 -874306535 729274428 1963571431 1763312766 1136562009 -204411052 446061536 1278279965 -1538161556 -586209546
REM
CELL 1.54180   50.00000   50.00000   50.00000   90.00000   90.00000   90.00000
LATT -1
SFAC C  
C      1  0.4462300000000  0.4437420000000  0.4867060000000 1.0
C      1  0.4463390000000  0.4886240000000  0.4349340000000 1.0
C      1  0.4766160000000  0.4527480000000  0.4561630000000 1.0
C      1  0.5542160000000  0.4483380000000  0.5221110000000 1.0
C      1  0.5501900000000  0.5482090000000  0.4832090000000 1.0
C      1  0.4417530000000  0.5571940000000  0.5108520000000 1.0
C      1  0.5485510000000  0.4777480000000  0.5502000000000 1.0
C      1  0.5517950000000  0.5140400000000  0.4434180000000 1.0
C      1  0.4494100000000  0.5171660000000  0.5601740000000 1.0
C      1  0.5221880000000  0.4475790000000  0.5506800000000 1.0
C      1  0.5172010000000  0.5581100000000  0.4502230000000 1.0
C      1  0.4809190000000  0.5457100000000  0.5467030000000 1.0
C      1  0.4407570000000  0.5494480000000  0.4786580000000 1.0
C      1  0.4473210000000  0.5204900000000  0.4454480000000 1.0
C      1  0.4866250000000  0.5671720000000  0.4416120000000 1.0
C      1  0.5595170000000  0.5536250000000  0.5148890000000 1.0
C      1  0.5647030000000  0.4437890000000  0.4904630000000 1.0
C      1  0.4472190000000  0.4523970000000  0.5189980000000 1.0
C      1  0.5544880000000  0.5089350000000  0.5616080000000 1.0
C      1  0.5499720000000  0.4811330000000  0.4404710000000 1.0
C      1  0.4449620000000  0.4849280000000  0.5544750000000 1.0
C      1  0.5095100000000  0.5610410000000  0.5558590000000 1.0
C      1  0.5069350000000  0.4414390000000  0.4475600000000 1.0
C      1  0.4917110000000  0.4351480000000  0.5549300000000 1.0
C      1  0.5259140000000  0.5128680000000  0.5729190000000 1.0
C      1  0.5088960000000  0.5639560000000  0.5254050000000 1.0
C      1  0.5635900000000  0.5235720000000  0.5113190000000 1.0
C      1  0.4735430000000  0.5173300000000  0.4311360000000 1.0
C      1  0.4740160000000  0.4863990000000  0.5651290000000 1.0
C      1  0.5208610000000  0.4896550000000  0.4388220000000 1.0
C      1  0.4881580000000  0.5745280000000  0.4717000000000 1.0
C      1  0.4897230000000  0.4213680000000  0.5270110000000 1.0
C      1  0.5141460000000  0.4334820000000  0.4770950000000 1.0
C      1  0.4276420000000  0.5217990000000  0.4801780000000 1.0
C      1  0.4465140000000  0.4822690000000  0.5150710000000 1.0
C      1  0.5749130000000  0.4729680000000  0.4864240000000 1.0
C      1  0.5237610000000  0.4839920000000  0.5659320000000 1.0
C      1  0.5190030000000  0.4301300000000  0.5263970000000 1.0
C      1  0.5685880000000  0.4740860000000  0.5159290000000 1.0
C      1  0.4753290000000  0.4882270000000  0.4229900000000 1.0
C      1  0.4768070000000  0.5161540000000  0.5732200000000 1.0
C      1  0.5216710000000  0.5200730000000  0.4416730000000 1.0
C      1  0.4856370000000  0.4403930000000  0.4811660000000 1.0
C      1  0.4812840000000  0.5538030000000  0.5172640000000 1.0
C      1  0.5185590000000  0.5719430000000  0.4773090000000 1.0
C      1  0.4429470000000  0.4743490000000  0.4861420000000 1.0
C      1  0.4302280000000  0.5284220000000  0.5105410000000 1.0
C      1  0.5574830000000  0.5187690000000  0.4821670000000 1.0
C      1  0.4686280000000  0.5638650000000  0.4907870000000 1.0
C      1  0.5667420000000  0.4932330000000  0.4668940000000 1.0
C      1  0.4966660000000  0.4677730000000  0.5624240000000 1.0
C      1  0.5295090000000  0.5645670000000  0.5050920000000 1.0
C      1  0.5333430000000  0.4347400000000  0.4986140000000 1.0
C      1  0.4712840000000  0.4329450000000  0.5075160000000 1.0
C      1  0.4382450000000  0.5080400000000  0.5298520000000 1.0
C      1  0.4380890000000  0.4955760000000  0.4668900000000 1.0
C      1  0.5628280000000  0.5014060000000  0.5300120000000 1.0
C      1  0.4968850000000  0.4722210000000  0.4372570000000 1.0
C      1  0.5035770000000  0.5303700000000  0.5674240000000 1.0
C      1  0.4958630000000  0.5359770000000  0.4339550000000 1.0
END
