TITL C-27131-4585-67 2270.96440188135 125000 -355.307474097645 0 0 60 (C1) n - 1
REM
REM in /home/nfs/bkarasulu/CARBON/AIRSS/Generating-Clusters/AIREBO/Higher-Symm/Only-C60
REM
REM
REM
REM
REM
REM ./C.cell (28575a23ae977d3b5fae324c64b13b57)
REM
REM compiler GCC version 9.2.1 20190827 (Red Hat 9.2.1-1)
REM options -cpp -mtune=generic -march=x86-64 -g -O0 -fpre-include=/usr/include/finclude/math-vector-fortran.h
REM seed -2068053054 1425033486 -1948798730 -1461269984 -247437145 93111638 -34784613 905980560 728580111 -1792172009 -1596226474 -996908873 -1127207042 684436309 5086174 -1888252812 742800931 -1944211456 -642930785 1233059469 -1350515272 1769174643 495039025 978930248 74619310 1893416086 434741482 -1449079743 -26851298 1858900058 -1341117415 -965841240 -244785282
REM
CELL 1.54180   50.00000   50.00000   50.00000   90.00000   90.00000   90.00000
LATT -1
SFAC C  
C      1  0.4355210000000  0.5285600000000  0.4948610000000 1.0
C      1  0.4947460000000  0.4356850000000  0.5290870000000 1.0
C      1  0.5289030000000  0.4943000000000  0.4353010000000 1.0
C      1  0.5632220000000  0.4727940000000  0.4958870000000 1.0
C      1  0.5566180000000  0.5209900000000  0.5098340000000 1.0
C      1  0.4378590000000  0.4715880000000  0.5056000000000 1.0
C      1  0.5057470000000  0.5631660000000  0.5266300000000 1.0
C      1  0.5054910000000  0.4349010000000  0.4711850000000 1.0
C      1  0.4920720000000  0.5696150000000  0.4692980000000 1.0
C      1  0.4707390000000  0.5053190000000  0.4348740000000 1.0
C      1  0.4720430000000  0.4941250000000  0.5638880000000 1.0
C      1  0.5303600000000  0.5056130000000  0.5659680000000 1.0
C      1  0.5292620000000  0.4368260000000  0.4941400000000 1.0
C      1  0.4362520000000  0.4948360000000  0.5286140000000 1.0
C      1  0.4944590000000  0.5285630000000  0.4329550000000 1.0
C      1  0.4698050000000  0.5653210000000  0.4936150000000 1.0
C      1  0.5299140000000  0.5705290000000  0.5078080000000 1.0
C      1  0.4714390000000  0.4341540000000  0.5053270000000 1.0
C      1  0.5699680000000  0.5054070000000  0.5300200000000 1.0
C      1  0.4373870000000  0.5056730000000  0.4711930000000 1.0
C      1  0.5612850000000  0.4941080000000  0.4729680000000 1.0
C      1  0.5055880000000  0.4708780000000  0.4362610000000 1.0
C      1  0.4953850000000  0.4707340000000  0.5660520000000 1.0
C      1  0.5073780000000  0.5280190000000  0.5612780000000 1.0
C      1  0.4794110000000  0.4382430000000  0.4587080000000 1.0
C      1  0.4589370000000  0.4792720000000  0.4379950000000 1.0
C      1  0.4392400000000  0.4593310000000  0.4799180000000 1.0
C      1  0.5197670000000  0.5600060000000  0.4605150000000 1.0
C      1  0.5207930000000  0.4382400000000  0.5408160000000 1.0
C      1  0.4809490000000  0.5603730000000  0.5394310000000 1.0
C      1  0.5411440000000  0.5204030000000  0.4393360000000 1.0
C      1  0.5422560000000  0.4791280000000  0.5615250000000 1.0
C      1  0.4607400000000  0.5202120000000  0.5611670000000 1.0
C      1  0.5578340000000  0.5369780000000  0.4841010000000 1.0
C      1  0.5610520000000  0.4594380000000  0.5207330000000 1.0
C      1  0.4390710000000  0.5411730000000  0.5207660000000 1.0
C      1  0.4391390000000  0.4797110000000  0.4592680000000 1.0
C      1  0.4796860000000  0.4588060000000  0.4383210000000 1.0
C      1  0.4589090000000  0.4381190000000  0.4792980000000 1.0
C      1  0.5609100000000  0.5197260000000  0.4606420000000 1.0
C      1  0.4396820000000  0.5207080000000  0.5413140000000 1.0
C      1  0.5623770000000  0.4793820000000  0.5411760000000 1.0
C      1  0.5204430000000  0.5408210000000  0.4390800000000 1.0
C      1  0.4818130000000  0.5400440000000  0.5596580000000 1.0
C      1  0.5216050000000  0.4585250000000  0.5616150000000 1.0
C      1  0.5394300000000  0.5589780000000  0.4816310000000 1.0
C      1  0.4594270000000  0.5615860000000  0.5200190000000 1.0
C      1  0.5411580000000  0.4386350000000  0.5200910000000 1.0
C      1  0.5104150000000  0.4896560000000  0.4625840000000 1.0
C      1  0.4891720000000  0.5114870000000  0.4609800000000 1.0
C      1  0.4903880000000  0.4875990000000  0.5378150000000 1.0
C      1  0.4643050000000  0.5123310000000  0.4890320000000 1.0
C      1  0.4889530000000  0.4618760000000  0.5104870000000 1.0
C      1  0.5137530000000  0.5068430000000  0.5370420000000 1.0
C      1  0.5342160000000  0.4917640000000  0.4915180000000 1.0
C      1  0.5255790000000  0.5153800000000  0.5118780000000 1.0
C      1  0.4643770000000  0.4902570000000  0.5108410000000 1.0
C      1  0.5121890000000  0.5401420000000  0.5040170000000 1.0
C      1  0.5103660000000  0.4628610000000  0.4888490000000 1.0
C      1  0.4890760000000  0.5402630000000  0.4851890000000 1.0
END
