TITL C-27132-7279-100 -0.0107924319825276 125000 -315.567499517556 0 0 60 (C1) n - 1
REM
REM in /home/nfs/bkarasulu/CARBON/AIRSS/Generating-Clusters/AIREBO/Higher-Symm/Only-C60
REM
REM
REM
REM
REM
REM ./C.cell (28575a23ae977d3b5fae324c64b13b57)
REM
REM compiler GCC version 9.2.1 20190827 (Red Hat 9.2.1-1)
REM options -cpp -mtune=generic -march=x86-64 -g -O0 -fpre-include=/usr/include/finclude/math-vector-fortran.h
REM seed 237906699 1149087021 -232968246 1800821563 378142441 734107433 1641453710 1668092890 1034261566 -561147526 1333153375 342001557 581946058 534821499 -1669723457 -521181629 -1201093526 -405867811 241591278 -836157852 766252853 -1275909599 -134143642 -907105168 -70914979 -1378906053 339485011 -993578491 -1589896837 695744440 798725638 2098551306 -466484916
REM
CELL 1.54180   50.00000   50.00000   50.00000   90.00000   90.00000   90.00000
LATT -1
SFAC C  
C      1  0.4988800000000  0.5310140000000  0.4223210000000 1.0
C      1  0.4895520000000  0.5644300000000  0.4794120000000 1.0
C      1  0.4776010000000  0.5666830000000  0.5384560000000 1.0
C      1  0.4843430000000  0.5047000000000  0.5712220000000 1.0
C      1  0.4867080000000  0.4515640000000  0.5408330000000 1.0
C      1  0.4720640000000  0.4346370000000  0.4901540000000 1.0
C      1  0.4760030000000  0.4708960000000  0.4319300000000 1.0
C      1  0.5049530000000  0.5597640000000  0.5355180000000 1.0
C      1  0.5108230000000  0.5082890000000  0.5802550000000 1.0
C      1  0.5121380000000  0.4505230000000  0.5515610000000 1.0
C      1  0.4837780000000  0.4124950000000  0.4790140000000 1.0
C      1  0.5042990000000  0.4605970000000  0.4314870000000 1.0
C      1  0.5254070000000  0.5260200000000  0.4286060000000 1.0
C      1  0.5160070000000  0.5731360000000  0.4769420000000 1.0
C      1  0.4822600000000  0.4809300000000  0.4638070000000 1.0
C      1  0.4787210000000  0.5143390000000  0.4691610000000 1.0
C      1  0.4877420000000  0.5359310000000  0.4918010000000 1.0
C      1  0.4814830000000  0.5308800000000  0.5212610000000 1.0
C      1  0.4785140000000  0.5027440000000  0.5385050000000 1.0
C      1  0.4828130000000  0.4745320000000  0.5219210000000 1.0
C      1  0.4877440000000  0.4605770000000  0.4912650000000 1.0
C      1  0.5684130000000  0.4437850000000  0.4919510000000 1.0
C      1  0.5261710000000  0.4654960000000  0.4484760000000 1.0
C      1  0.5553170000000  0.5242690000000  0.4309170000000 1.0
C      1  0.5404790000000  0.5621400000000  0.4723760000000 1.0
C      1  0.5340140000000  0.5581340000000  0.5268370000000 1.0
C      1  0.5291900000000  0.5165300000000  0.5612980000000 1.0
C      1  0.5788610000000  0.4527380000000  0.5559610000000 1.0
C      1  0.5614940000000  0.5121310000000  0.4620610000000 1.0
C      1  0.5512840000000  0.5342690000000  0.4852630000000 1.0
C      1  0.5500350000000  0.5381070000000  0.5169280000000 1.0
C      1  0.5488060000000  0.5131070000000  0.5331810000000 1.0
C      1  0.5599310000000  0.4650100000000  0.5422610000000 1.0
C      1  0.5523870000000  0.4670310000000  0.4927880000000 1.0
C      1  0.5496000000000  0.4818510000000  0.4635660000000 1.0
C      1  0.4501500000000  0.4804690000000  0.4525660000000 1.0
C      1  0.4789750000000  0.5268440000000  0.4407080000000 1.0
C      1  0.4670700000000  0.5782050000000  0.4722870000000 1.0
C      1  0.4546560000000  0.5487610000000  0.5295530000000 1.0
C      1  0.4529220000000  0.5035960000000  0.5612880000000 1.0
C      1  0.4656370000000  0.4366610000000  0.5499490000000 1.0
C      1  0.4462300000000  0.4349270000000  0.5003830000000 1.0
C      1  0.4263760000000  0.5031150000000  0.4699840000000 1.0
C      1  0.4209640000000  0.5225270000000  0.4906180000000 1.0
C      1  0.4277610000000  0.5262560000000  0.5186290000000 1.0
C      1  0.4267700000000  0.5028080000000  0.5358780000000 1.0
C      1  0.4177250000000  0.4782920000000  0.5246960000000 1.0
C      1  0.4242210000000  0.4635380000000  0.5013630000000 1.0
C      1  0.4214460000000  0.4742080000000  0.4752610000000 1.0
C      1  0.5187510000000  0.5303040000000  0.4865270000000 1.0
C      1  0.5113130000000  0.5265310000000  0.5360210000000 1.0
C      1  0.5214720000000  0.4947760000000  0.5293070000000 1.0
C      1  0.5307950000000  0.4689630000000  0.5432010000000 1.0
C      1  0.5203630000000  0.4626010000000  0.4818580000000 1.0
C      1  0.5124590000000  0.4933140000000  0.4733380000000 1.0
C      1  0.5283190000000  0.5153170000000  0.4585950000000 1.0
C      1  0.4769410000000  0.4981200000000  0.4989980000000 1.0
C      1  0.5078520000000  0.5034730000000  0.5035850000000 1.0
C      1  0.4479660000000  0.4956550000000  0.5027810000000 1.0
C      1  0.5582120000000  0.4839220000000  0.5183870000000 1.0
END
