TITL C-27131-4585-88 2.05022002661058e-05 125000 -275.760959891437 0 0 60 (C1) n - 1
REM
REM in /home/nfs/bkarasulu/CARBON/AIRSS/Generating-Clusters/AIREBO/Higher-Symm/Only-C60
REM
REM
REM
REM
REM
REM ./C.cell (28575a23ae977d3b5fae324c64b13b57)
REM
REM compiler GCC version 9.2.1 20190827 (Red Hat 9.2.1-1)
REM options -cpp -mtune=generic -march=x86-64 -g -O0 -fpre-include=/usr/include/finclude/math-vector-fortran.h
REM seed 353597553 -858632614 940209315 -714203442 540324731 -1227785762 -235939255 -1538097601 1429786056 -2056948574 -1660092072 197465246 1400187202 -940751787 -608627297 -1912351865 -1020703240 -548104439 878867161 1483002043 853637674 -1671120097 -1065833569 -609577606 2072202596 1077272138 19596954 542819662 586260657 958020986 534108650 1469563886 1100104510
REM
CELL 1.54180   50.00000   50.00000   50.00000   90.00000   90.00000   90.00000
LATT -1
SFAC C  
C      1  0.4461830000000  0.4887630000000  0.4727440000000 1.0
C      1  0.4731070000000  0.4458150000000  0.4886230000000 1.0
C      1  0.4892870000000  0.4732030000000  0.4460860000000 1.0
C      1  0.5549840000000  0.4890110000000  0.5282710000000 1.0
C      1  0.4447530000000  0.5099400000000  0.5297710000000 1.0
C      1  0.5547940000000  0.5125330000000  0.4707550000000 1.0
C      1  0.5300670000000  0.4457780000000  0.5110580000000 1.0
C      1  0.4699300000000  0.5542920000000  0.5123000000000 1.0
C      1  0.5270980000000  0.5550700000000  0.4885470000000 1.0
C      1  0.5117530000000  0.4692780000000  0.5546100000000 1.0
C      1  0.4885940000000  0.5258570000000  0.5532920000000 1.0
C      1  0.5106290000000  0.5304950000000  0.4454090000000 1.0
C      1  0.4676900000000  0.4943230000000  0.4480440000000 1.0
C      1  0.4947240000000  0.4484510000000  0.4676040000000 1.0
C      1  0.4481960000000  0.4671660000000  0.4938760000000 1.0
C      1  0.5296850000000  0.4930170000000  0.5497710000000 1.0
C      1  0.5299960000000  0.5076260000000  0.4492090000000 1.0
C      1  0.4674020000000  0.5044440000000  0.5532490000000 1.0
C      1  0.5066480000000  0.4486160000000  0.5300090000000 1.0
C      1  0.5047720000000  0.5535570000000  0.4684070000000 1.0
C      1  0.4931710000000  0.5505290000000  0.5311160000000 1.0
C      1  0.5531650000000  0.4693620000000  0.5055380000000 1.0
C      1  0.5517770000000  0.5321520000000  0.4933300000000 1.0
C      1  0.4487510000000  0.5294740000000  0.5069840000000 1.0
C      1  0.4980810000000  0.4212860000000  0.5414260000000 1.0
C      1  0.5420810000000  0.4985950000000  0.4222990000000 1.0
C      1  0.4218250000000  0.5414530000000  0.4978070000000 1.0
C      1  0.4987590000000  0.4222780000000  0.4520380000000 1.0
C      1  0.5011090000000  0.5807110000000  0.4540990000000 1.0
C      1  0.4994030000000  0.5765810000000  0.5463440000000 1.0
C      1  0.4531180000000  0.5027000000000  0.5804970000000 1.0
C      1  0.5412320000000  0.5038410000000  0.5762860000000 1.0
C      1  0.4522720000000  0.4974450000000  0.4216800000000 1.0
C      1  0.5781770000000  0.5477410000000  0.4976060000000 1.0
C      1  0.4219300000000  0.4514820000000  0.4966680000000 1.0
C      1  0.5803830000000  0.4551210000000  0.5015000000000 1.0
C      1  0.5426780000000  0.4180600000000  0.5117050000000 1.0
C      1  0.4165520000000  0.5103850000000  0.5412360000000 1.0
C      1  0.5114670000000  0.5425260000000  0.4174630000000 1.0
C      1  0.4647200000000  0.4168870000000  0.4933450000000 1.0
C      1  0.4558120000000  0.5810120000000  0.5159150000000 1.0
C      1  0.5381270000000  0.5833880000000  0.4916360000000 1.0
C      1  0.5817700000000  0.5148390000000  0.4567350000000 1.0
C      1  0.5819010000000  0.4880570000000  0.5425370000000 1.0
C      1  0.4173820000000  0.4943150000000  0.4643690000000 1.0
C      1  0.4959280000000  0.5348280000000  0.5815410000000 1.0
C      1  0.4951460000000  0.4649510000000  0.4173260000000 1.0
C      1  0.5167310000000  0.4552840000000  0.5810930000000 1.0
C      1  0.5140030000000  0.4828950000000  0.4625090000000 1.0
C      1  0.4808100000000  0.4747080000000  0.5455060000000 1.0
C      1  0.4826400000000  0.5224570000000  0.4571610000000 1.0
C      1  0.4622200000000  0.5137900000000  0.4823220000000 1.0
C      1  0.4819750000000  0.4614780000000  0.5141450000000 1.0
C      1  0.5433080000000  0.5179790000000  0.5218990000000 1.0
C      1  0.4568070000000  0.4819590000000  0.5221860000000 1.0
C      1  0.5446300000000  0.4827900000000  0.4766600000000 1.0
C      1  0.5223120000000  0.4578700000000  0.4832060000000 1.0
C      1  0.4757090000000  0.5448460000000  0.4820150000000 1.0
C      1  0.5194160000000  0.5406920000000  0.5147820000000 1.0
C      1  0.5124340000000  0.5160170000000  0.5358520000000 1.0
END
