TITL C-27135-6010-199 0.00113338864916268 125000 -289.688712295856 0 0 60 (C1) n - 1
REM
REM in /home/nfs/bkarasulu/CARBON/AIRSS/Generating-Clusters/AIREBO/Higher-Symm/Only-C60
REM
REM
REM
REM
REM
REM ./C.cell (28575a23ae977d3b5fae324c64b13b57)
REM
REM compiler GCC version 9.2.1 20190827 (Red Hat 9.2.1-1)
REM options -cpp -mtune=generic -march=x86-64 -g -O0 -fpre-include=/usr/include/finclude/math-vector-fortran.h
REM seed -1667872009 1624256307 -1580832016 -1881259953 588889073 1576581128 1701595700 1789021251 -1501773976 -286809863 275591335 -1065746144 2046069300 -699169796 673938947 -526884366 2012102460 -1650906221 1760622846 2063137009 -596437277 -948267307 -1183411102 -1602058523 63524103 -1039753970 -283621419 -630206519 -835872998 1836248756 -109395226 170839347 -1648721714
REM
CELL 1.54180   50.00000   50.00000   50.00000   90.00000   90.00000   90.00000
LATT -1
SFAC C  
C      1  0.4482300000000  0.5176860000000  0.4913330000000 1.0
C      1  0.5169110000000  0.4908520000000  0.4413520000000 1.0
C      1  0.4904180000000  0.4429760000000  0.5173980000000 1.0
C      1  0.5597770000000  0.4718450000000  0.4840920000000 1.0
C      1  0.4457660000000  0.4728610000000  0.5203310000000 1.0
C      1  0.5489730000000  0.5168200000000  0.5142730000000 1.0
C      1  0.4710560000000  0.5215760000000  0.4446010000000 1.0
C      1  0.5180690000000  0.5154720000000  0.5483440000000 1.0
C      1  0.4718470000000  0.4846880000000  0.5605110000000 1.0
C      1  0.5151730000000  0.5486880000000  0.5175310000000 1.0
C      1  0.4838260000000  0.5615170000000  0.4734380000000 1.0
C      1  0.5197170000000  0.4438230000000  0.4751510000000 1.0
C      1  0.4470300000000  0.4529240000000  0.4952290000000 1.0
C      1  0.4540650000000  0.4946250000000  0.4445640000000 1.0
C      1  0.4981100000000  0.4461720000000  0.4528280000000 1.0
C      1  0.5581340000000  0.5440900000000  0.4961220000000 1.0
C      1  0.4435860000000  0.5481340000000  0.5057340000000 1.0
C      1  0.5557860000000  0.4536890000000  0.5104420000000 1.0
C      1  0.5467450000000  0.5053480000000  0.4438290000000 1.0
C      1  0.4544690000000  0.5111730000000  0.5570170000000 1.0
C      1  0.5438280000000  0.4959990000000  0.5590340000000 1.0
C      1  0.5090380000000  0.5561730000000  0.4547180000000 1.0
C      1  0.4963460000000  0.5593280000000  0.5437920000000 1.0
C      1  0.5042500000000  0.4439500000000  0.5476580000000 1.0
C      1  0.4865450000000  0.5437000000000  0.4337970000000 1.0
C      1  0.5426530000000  0.4323360000000  0.4883180000000 1.0
C      1  0.4352610000000  0.4870610000000  0.5435620000000 1.0
C      1  0.5119960000000  0.4647330000000  0.4290100000000 1.0
C      1  0.4856860000000  0.4598940000000  0.5686740000000 1.0
C      1  0.5135910000000  0.5409690000000  0.5615330000000 1.0
C      1  0.4597620000000  0.5703940000000  0.4884140000000 1.0
C      1  0.5400680000000  0.5624580000000  0.5132310000000 1.0
C      1  0.4651020000000  0.4296260000000  0.5105790000000 1.0
C      1  0.5623400000000  0.5122320000000  0.5397850000000 1.0
C      1  0.4348100000000  0.5125260000000  0.4654500000000 1.0
C      1  0.5678970000000  0.4860410000000  0.4592440000000 1.0
C      1  0.4708600000000  0.5528380000000  0.5238810000000 1.0
C      1  0.5516870000000  0.5236900000000  0.4709180000000 1.0
C      1  0.5229470000000  0.4707780000000  0.5525160000000 1.0
C      1  0.5236800000000  0.4475560000000  0.5199760000000 1.0
C      1  0.4760520000000  0.4494060000000  0.4778290000000 1.0
C      1  0.5315870000000  0.5496990000000  0.4755660000000 1.0
C      1  0.4493670000000  0.4762290000000  0.4727770000000 1.0
C      1  0.5494180000000  0.4750540000000  0.5328200000000 1.0
C      1  0.4468750000000  0.5205730000000  0.5252040000000 1.0
C      1  0.4754410000000  0.5332150000000  0.5499850000000 1.0
C      1  0.5184990000000  0.5241940000000  0.4478200000000 1.0
C      1  0.4785930000000  0.4737170000000  0.4487180000000 1.0
C      1  0.4816540000000  0.5384780000000  0.4983600000000 1.0
C      1  0.5380400000000  0.4979870000000  0.4829620000000 1.0
C      1  0.4974100000000  0.4829190000000  0.5381590000000 1.0
C      1  0.5215110000000  0.4710340000000  0.4954690000000 1.0
C      1  0.4821240000000  0.4711040000000  0.5025930000000 1.0
C      1  0.5184680000000  0.5239910000000  0.4931030000000 1.0
C      1  0.4741000000000  0.4974060000000  0.4825780000000 1.0
C      1  0.5242720000000  0.4941840000000  0.5202520000000 1.0
C      1  0.4704190000000  0.4962110000000  0.5223150000000 1.0
C      1  0.4941700000000  0.5204630000000  0.5246330000000 1.0
C      1  0.4931360000000  0.5228510000000  0.4704320000000 1.0
C      1  0.5028270000000  0.4840440000000  0.4702130000000 1.0
END
