TITL C-27143-4867-163 0.00108497664649105 125000 -344.056773660727 0 0 60 (C1) n - 1
REM
REM in /home/nfs/bkarasulu/CARBON/AIRSS/Generating-Clusters/AIREBO/Higher-Symm/Only-C60
REM
REM
REM
REM
REM
REM ./C.cell (28575a23ae977d3b5fae324c64b13b57)
REM
REM compiler GCC version 9.2.1 20190827 (Red Hat 9.2.1-1)
REM options -cpp -mtune=generic -march=x86-64 -g -O0 -fpre-include=/usr/include/finclude/math-vector-fortran.h
REM seed -853631934 1465565958 -157034006 -714428566 -1758512572 -1944599734 -1375158140 -386975435 -178864326 1404941176 1803954698 -1405661487 1520302968 -805991098 471193275 2049319455 1558241512 271280215 1729571605 1179227318 -1634628678 878530018 1053946402 -152867548 -1443084817 -1457363058 108673296 -2087095522 266802067 -739760406 -633742027 1584359013 -467238692
REM
CELL 1.54180   50.00000   50.00000   50.00000   90.00000   90.00000   90.00000
LATT -1
SFAC C  
C      1  0.5782460000000  0.5237370000000  0.5184000000000 1.0
C      1  0.5688780000000  0.5166080000000  0.4864190000000 1.0
C      1  0.5796460000000  0.4884770000000  0.4702530000000 1.0
C      1  0.5681830000000  0.4743340000000  0.4979570000000 1.0
C      1  0.5642870000000  0.4942690000000  0.5218040000000 1.0
C      1  0.4841290000000  0.5523850000000  0.5486410000000 1.0
C      1  0.4862570000000  0.5631430000000  0.4630170000000 1.0
C      1  0.4823520000000  0.4862150000000  0.4319060000000 1.0
C      1  0.4812610000000  0.4334520000000  0.4910410000000 1.0
C      1  0.4860450000000  0.4723070000000  0.5686970000000 1.0
C      1  0.5089270000000  0.4763550000000  0.4355480000000 1.0
C      1  0.5076480000000  0.4314140000000  0.5017380000000 1.0
C      1  0.5125540000000  0.4817770000000  0.5682510000000 1.0
C      1  0.5102900000000  0.5574570000000  0.5388840000000 1.0
C      1  0.5127280000000  0.5551530000000  0.4572290000000 1.0
C      1  0.4758710000000  0.4623000000000  0.5445930000000 1.0
C      1  0.4756200000000  0.5252160000000  0.5482310000000 1.0
C      1  0.4756780000000  0.5568570000000  0.4882740000000 1.0
C      1  0.4764180000000  0.5076940000000  0.4488380000000 1.0
C      1  0.4728540000000  0.4584790000000  0.4842570000000 1.0
C      1  0.4569140000000  0.4427050000000  0.5422540000000 1.0
C      1  0.4617560000000  0.5153690000000  0.5697030000000 1.0
C      1  0.4562900000000  0.5704470000000  0.5019600000000 1.0
C      1  0.4589060000000  0.5271530000000  0.4406690000000 1.0
C      1  0.4651130000000  0.4754740000000  0.4142880000000 1.0
C      1  0.4132800000000  0.4708290000000  0.4898560000000 1.0
C      1  0.4058010000000  0.4769990000000  0.5178980000000 1.0
C      1  0.4157220000000  0.5049940000000  0.5246550000000 1.0
C      1  0.4037350000000  0.5170680000000  0.4991910000000 1.0
C      1  0.4169850000000  0.4996080000000  0.4787550000000 1.0
C      1  0.5383710000000  0.5229720000000  0.5559590000000 1.0
C      1  0.5371270000000  0.5579240000000  0.4974110000000 1.0
C      1  0.5378330000000  0.5134420000000  0.4428630000000 1.0
C      1  0.5359480000000  0.4490100000000  0.4675090000000 1.0
C      1  0.5356630000000  0.4538020000000  0.5373500000000 1.0
C      1  0.5283730000000  0.4265920000000  0.4830330000000 1.0
C      1  0.5314930000000  0.4613060000000  0.5642230000000 1.0
C      1  0.5314530000000  0.5503270000000  0.5562010000000 1.0
C      1  0.5322260000000  0.5691100000000  0.4719750000000 1.0
C      1  0.5294500000000  0.4929340000000  0.4253990000000 1.0
C      1  0.4447070000000  0.4715020000000  0.4854740000000 1.0
C      1  0.4572540000000  0.4818090000000  0.5126550000000 1.0
C      1  0.4451330000000  0.5068850000000  0.5242780000000 1.0
C      1  0.4568650000000  0.5194610000000  0.4994490000000 1.0
C      1  0.4459100000000  0.5067700000000  0.4766160000000 1.0
C      1  0.4892500000000  0.5287940000000  0.5018600000000 1.0
C      1  0.4963050000000  0.5105670000000  0.4740020000000 1.0
C      1  0.4976840000000  0.4801550000000  0.4840540000000 1.0
C      1  0.4896390000000  0.4764720000000  0.5169140000000 1.0
C      1  0.4955930000000  0.5080560000000  0.5281500000000 1.0
C      1  0.5138140000000  0.5502550000000  0.5117990000000 1.0
C      1  0.5168980000000  0.5272990000000  0.4559160000000 1.0
C      1  0.5142210000000  0.4657810000000  0.4610280000000 1.0
C      1  0.5126710000000  0.4516960000000  0.5208850000000 1.0
C      1  0.5164330000000  0.5053410000000  0.5531920000000 1.0
C      1  0.5608690000000  0.4601370000000  0.4700290000000 1.0
C      1  0.5597390000000  0.4613350000000  0.5262510000000 1.0
C      1  0.5632510000000  0.5145970000000  0.5471180000000 1.0
C      1  0.5609740000000  0.5451830000000  0.5005730000000 1.0
C      1  0.5624810000000  0.5122100000000  0.4546280000000 1.0
END
