TITL C-27130-3996-52 0.000432806177804532 125000 -365.533242778202 0 0 60 (C1) n - 1
REM
REM in /home/nfs/bkarasulu/CARBON/AIRSS/Generating-Clusters/AIREBO/Higher-Symm/Only-C60
REM
REM
REM
REM
REM
REM ./C.cell (28575a23ae977d3b5fae324c64b13b57)
REM
REM compiler GCC version 9.2.1 20190827 (Red Hat 9.2.1-1)
REM options -cpp -mtune=generic -march=x86-64 -g -O0 -fpre-include=/usr/include/finclude/math-vector-fortran.h
REM seed -1142598884 -1801073578 -1661786895 1980282959 1725067858 1080718061 -771854405 -851430666 2143868646 1319603361 1847257513 -1950171733 -1426101117 -653786674 1366409307 -1484486013 -1238519353 -1391559643 2035457462 -258753979 -838319153 -1640111846 612604312 -1109968651 995217923 -737612120 1548763430 -2094745639 961088556 -33915872 -2104903055 656384108 187205689
REM
CELL 1.54180   50.00000   50.00000   50.00000   90.00000   90.00000   90.00000
LATT -1
SFAC C  
C      1  0.4234970000000  0.5232770000000  0.5276930000000 1.0
C      1  0.4843380000000  0.5281510000000  0.5831150000000 1.0
C      1  0.5613950000000  0.5260560000000  0.5547180000000 1.0
C      1  0.5782200000000  0.5251700000000  0.4736600000000 1.0
C      1  0.5168470000000  0.5274450000000  0.4161660000000 1.0
C      1  0.4390370000000  0.5223280000000  0.4465110000000 1.0
C      1  0.5751480000000  0.5292370000000  0.5282250000000 1.0
C      1  0.5140280000000  0.5300890000000  0.5798450000000 1.0
C      1  0.4377820000000  0.5299190000000  0.5538120000000 1.0
C      1  0.4282880000000  0.5223480000000  0.4750960000000 1.0
C      1  0.4872820000000  0.5248840000000  0.4232180000000 1.0
C      1  0.5617650000000  0.5287960000000  0.4487300000000 1.0
C      1  0.4227710000000  0.4976190000000  0.4876660000000 1.0
C      1  0.4436060000000  0.5066290000000  0.5690480000000 1.0
C      1  0.5262920000000  0.5046030000000  0.5792660000000 1.0
C      1  0.5818900000000  0.5042810000000  0.5168790000000 1.0
C      1  0.5541000000000  0.5044110000000  0.4367410000000 1.0
C      1  0.4756590000000  0.4991800000000  0.4263180000000 1.0
C      1  0.5813390000000  0.5007830000000  0.4869650000000 1.0
C      1  0.5508360000000  0.5013640000000  0.5626220000000 1.0
C      1  0.4718240000000  0.5033830000000  0.5799960000000 1.0
C      1  0.4241780000000  0.4974810000000  0.5157510000000 1.0
C      1  0.4489890000000  0.4984010000000  0.4352720000000 1.0
C      1  0.5332440000000  0.5048710000000  0.4157060000000 1.0
C      1  0.4399310000000  0.4774260000000  0.5280760000000 1.0
C      1  0.4842530000000  0.4780650000000  0.5605690000000 1.0
C      1  0.5421730000000  0.4778480000000  0.5399200000000 1.0
C      1  0.5587290000000  0.4755620000000  0.4833300000000 1.0
C      1  0.5238550000000  0.4785190000000  0.4337780000000 1.0
C      1  0.4385970000000  0.4739820000000  0.4451850000000 1.0
C      1  0.5594650000000  0.4840940000000  0.5155190000000 1.0
C      1  0.5150840000000  0.4844020000000  0.5594950000000 1.0
C      1  0.4521580000000  0.4832210000000  0.5521680000000 1.0
C      1  0.4275270000000  0.4733810000000  0.4741610000000 1.0
C      1  0.4920030000000  0.4776040000000  0.4317390000000 1.0
C      1  0.5490080000000  0.4823370000000  0.4555590000000 1.0
C      1  0.5493080000000  0.4462740000000  0.4863380000000 1.0
C      1  0.5144810000000  0.4500170000000  0.4492950000000 1.0
C      1  0.4588980000000  0.4541630000000  0.4591500000000 1.0
C      1  0.4497520000000  0.4542030000000  0.5154360000000 1.0
C      1  0.4874730000000  0.4486180000000  0.5494100000000 1.0
C      1  0.5365060000000  0.4477470000000  0.5359440000000 1.0
C      1  0.4462760000000  0.4523620000000  0.4878590000000 1.0
C      1  0.4839040000000  0.4529510000000  0.4474620000000 1.0
C      1  0.5338440000000  0.4374290000000  0.4646790000000 1.0
C      1  0.5481080000000  0.4372420000000  0.5127720000000 1.0
C      1  0.5135570000000  0.4388180000000  0.5489340000000 1.0
C      1  0.4670050000000  0.4396850000000  0.5323470000000 1.0
C      1  0.5174580000000  0.5494960000000  0.5549830000000 1.0
C      1  0.5560290000000  0.5487040000000  0.5122580000000 1.0
C      1  0.5389950000000  0.5484590000000  0.4571740000000 1.0
C      1  0.4833560000000  0.5455820000000  0.4465260000000 1.0
C      1  0.4459630000000  0.5444900000000  0.4892670000000 1.0
C      1  0.4612110000000  0.5491210000000  0.5439350000000 1.0
C      1  0.4855250000000  0.5465720000000  0.5574930000000 1.0
C      1  0.4452930000000  0.5432170000000  0.5170690000000 1.0
C      1  0.4597840000000  0.5418310000000  0.4607270000000 1.0
C      1  0.5151280000000  0.5449610000000  0.4431800000000 1.0
C      1  0.5558010000000  0.5450300000000  0.4845580000000 1.0
C      1  0.5412070000000  0.5458830000000  0.5406870000000 1.0
END
