TITL C-27134-4977-24 -0.000219421978828876 125000 -327.75863407594 0 0 60 (C1) n - 1
REM
REM in /home/nfs/bkarasulu/CARBON/AIRSS/Generating-Clusters/AIREBO/Higher-Symm/Only-C60
REM
REM
REM
REM
REM
REM ./C.cell (28575a23ae977d3b5fae324c64b13b57)
REM
REM compiler GCC version 9.2.1 20190827 (Red Hat 9.2.1-1)
REM options -cpp -mtune=generic -march=x86-64 -g -O0 -fpre-include=/usr/include/finclude/math-vector-fortran.h
REM seed -328246203 -1706582520 -1263462427 787690273 2069351313 -1423301949 1721604680 -325609721 -1228398554 -902393213 1636060174 1360926603 434762362 -2070375128 -1086208319 -525413196 -552751122 205440020 -1717023593 -1707281829 -741113918 -829265738 668588262 575352738 -898683481 -359906919 -1469151563 -29752167 394239474 -1201518716 -98560679 -471411194 1154344499
REM
CELL 1.54180   50.00000   50.00000   50.00000   90.00000   90.00000   90.00000
LATT -1
SFAC C  
C      1  0.4887810000000  0.5285110000000  0.5372360000000 1.0
C      1  0.5181480000000  0.5218480000000  0.5248870000000 1.0
C      1  0.5357110000000  0.5295060000000  0.4710780000000 1.0
C      1  0.4874260000000  0.5264110000000  0.4695140000000 1.0
C      1  0.4674150000000  0.5311080000000  0.4969840000000 1.0
C      1  0.4835700000000  0.4725200000000  0.5399280000000 1.0
C      1  0.5298200000000  0.4922780000000  0.5223770000000 1.0
C      1  0.5334370000000  0.4739940000000  0.4759550000000 1.0
C      1  0.4889620000000  0.4749600000000  0.4701160000000 1.0
C      1  0.4575790000000  0.4679410000000  0.4964110000000 1.0
C      1  0.4905200000000  0.5161350000000  0.5920480000000 1.0
C      1  0.5878180000000  0.5299890000000  0.4887320000000 1.0
C      1  0.5128150000000  0.5274480000000  0.4259510000000 1.0
C      1  0.4325660000000  0.5250000000000  0.4562640000000 1.0
C      1  0.4170820000000  0.5348120000000  0.5511110000000 1.0
C      1  0.5390160000000  0.4571310000000  0.5868480000000 1.0
C      1  0.5752270000000  0.4740980000000  0.5053900000000 1.0
C      1  0.5187530000000  0.4658510000000  0.4032740000000 1.0
C      1  0.4439460000000  0.4707380000000  0.4457980000000 1.0
C      1  0.4330350000000  0.4731960000000  0.5176880000000 1.0
C      1  0.4594400000000  0.4834080000000  0.4686760000000 1.0
C      1  0.4633930000000  0.4867780000000  0.5231670000000 1.0
C      1  0.5097650000000  0.4860510000000  0.5483800000000 1.0
C      1  0.5499240000000  0.4892680000000  0.4962890000000 1.0
C      1  0.5132670000000  0.4864270000000  0.4550650000000 1.0
C      1  0.4568730000000  0.5136800000000  0.4700740000000 1.0
C      1  0.4629390000000  0.5163620000000  0.5243950000000 1.0
C      1  0.5015960000000  0.5125810000000  0.5600980000000 1.0
C      1  0.5584410000000  0.5141320000000  0.4815880000000 1.0
C      1  0.5125430000000  0.5169440000000  0.4548480000000 1.0
C      1  0.5069790000000  0.4318880000000  0.5447780000000 1.0
C      1  0.5319480000000  0.4417840000000  0.5379750000000 1.0
C      1  0.5250350000000  0.4174070000000  0.4838100000000 1.0
C      1  0.5030830000000  0.4017240000000  0.4897800000000 1.0
C      1  0.4777580000000  0.4107030000000  0.4963010000000 1.0
C      1  0.5048340000000  0.5742390000000  0.5444120000000 1.0
C      1  0.5302970000000  0.5672810000000  0.5358960000000 1.0
C      1  0.5358950000000  0.5848270000000  0.4781120000000 1.0
C      1  0.5065500000000  0.5857670000000  0.4782510000000 1.0
C      1  0.4804310000000  0.5891180000000  0.4913310000000 1.0
C      1  0.5276100000000  0.5533600000000  0.4881430000000 1.0
C      1  0.4955900000000  0.5540340000000  0.4807400000000 1.0
C      1  0.4729940000000  0.5620500000000  0.5071200000000 1.0
C      1  0.4845350000000  0.5588170000000  0.5350360000000 1.0
C      1  0.5314510000000  0.5461350000000  0.5171150000000 1.0
C      1  0.5235240000000  0.4477200000000  0.4894410000000 1.0
C      1  0.4944030000000  0.4559600000000  0.4865090000000 1.0
C      1  0.4752400000000  0.4403280000000  0.5050280000000 1.0
C      1  0.4847050000000  0.4451180000000  0.5339140000000 1.0
C      1  0.5338790000000  0.4590480000000  0.5169770000000 1.0
C      1  0.5175050000000  0.5284830000000  0.5857290000000 1.0
C      1  0.5872090000000  0.5133500000000  0.4634800000000 1.0
C      1  0.5129960000000  0.5364230000000  0.4020670000000 1.0
C      1  0.4106430000000  0.5337080000000  0.4465210000000 1.0
C      1  0.4378550000000  0.5263270000000  0.5389600000000 1.0
C      1  0.5252290000000  0.4695950000000  0.5693590000000 1.0
C      1  0.5963540000000  0.4617690000000  0.5127250000000 1.0
C      1  0.5174330000000  0.4746820000000  0.4271810000000 1.0
C      1  0.4288460000000  0.4607460000000  0.4278130000000 1.0
C      1  0.4093830000000  0.4685020000000  0.5253280000000 1.0
END
