TITL C-27138-9601-183 -0.000205740989352364 125000 -316.410441326637 0 0 60 (C1) n - 1
REM
REM in /home/nfs/bkarasulu/CARBON/AIRSS/Generating-Clusters/AIREBO/Higher-Symm/Only-C60
REM
REM
REM
REM
REM
REM ./C.cell (28575a23ae977d3b5fae324c64b13b57)
REM
REM compiler GCC version 9.2.1 20190827 (Red Hat 9.2.1-1)
REM options -cpp -mtune=generic -march=x86-64 -g -O0 -fpre-include=/usr/include/finclude/math-vector-fortran.h
REM seed -636053816 1925937122 -1245749858 1541085618 -1852939409 -558231643 1767676749 -1736090382 216857897 -1762216371 -158953815 -1145480146 1847867698 359753526 -1517108424 -59390570 -150100563 -1043975335 1719127297 -2085942437 -2118739184 285966388 1648098673 -986999559 -412268443 -1744424676 -379636875 794539011 1040922327 996195406 -1540821926 -1475166127 366205232
REM
CELL 1.54180   50.00000   50.00000   50.00000   90.00000   90.00000   90.00000
LATT -1
SFAC C  
C      1  0.4241790000000  0.4856660000000  0.5221270000000 1.0
C      1  0.5191790000000  0.4244780000000  0.4864460000000 1.0
C      1  0.4880700000000  0.5210350000000  0.4237440000000 1.0
C      1  0.5677110000000  0.4830550000000  0.4724080000000 1.0
C      1  0.4366750000000  0.5075740000000  0.4825640000000 1.0
C      1  0.5716920000000  0.5118080000000  0.5172960000000 1.0
C      1  0.4809050000000  0.4361100000000  0.5095260000000 1.0
C      1  0.5169780000000  0.5726200000000  0.5120840000000 1.0
C      1  0.4725480000000  0.5668270000000  0.4826080000000 1.0
C      1  0.5125000000000  0.5174820000000  0.5721360000000 1.0
C      1  0.4825470000000  0.4731840000000  0.5675420000000 1.0
C      1  0.5106060000000  0.4821830000000  0.4344410000000 1.0
C      1  0.4201850000000  0.5079590000000  0.5052490000000 1.0
C      1  0.5068200000000  0.5720710000000  0.4834110000000 1.0
C      1  0.4783970000000  0.4732390000000  0.4355210000000 1.0
C      1  0.5665710000000  0.5138630000000  0.4816100000000 1.0
C      1  0.4404970000000  0.4780610000000  0.4728850000000 1.0
C      1  0.5713080000000  0.4832130000000  0.5066870000000 1.0
C      1  0.4812680000000  0.5659060000000  0.5133170000000 1.0
C      1  0.5042980000000  0.4217850000000  0.5106520000000 1.0
C      1  0.4717240000000  0.4377240000000  0.4777420000000 1.0
C      1  0.5132260000000  0.4818150000000  0.5658690000000 1.0
C      1  0.4834920000000  0.5074960000000  0.5723720000000 1.0
C      1  0.5121850000000  0.5060670000000  0.4209830000000 1.0
C      1  0.4509020000000  0.4855820000000  0.5352430000000 1.0
C      1  0.5339310000000  0.4504680000000  0.4844040000000 1.0
C      1  0.4854420000000  0.5345880000000  0.4504870000000 1.0
C      1  0.5404840000000  0.4958620000000  0.4576530000000 1.0
C      1  0.4642680000000  0.5212260000000  0.4680950000000 1.0
C      1  0.5462900000000  0.5194790000000  0.5302620000000 1.0
C      1  0.4676110000000  0.4641240000000  0.5218690000000 1.0
C      1  0.5338610000000  0.5497840000000  0.5211330000000 1.0
C      1  0.4575380000000  0.5396090000000  0.4952790000000 1.0
C      1  0.5198480000000  0.5318920000000  0.5472320000000 1.0
C      1  0.4946340000000  0.4574280000000  0.5405590000000 1.0
C      1  0.5216960000000  0.4685010000000  0.4631870000000 1.0
C      1  0.4643660000000  0.5147290000000  0.5447670000000 1.0
C      1  0.5533120000000  0.5409340000000  0.4973420000000 1.0
C      1  0.4918830000000  0.4546450000000  0.4561420000000 1.0
C      1  0.5364370000000  0.5266910000000  0.4717520000000 1.0
C      1  0.4573280000000  0.4931650000000  0.4517810000000 1.0
C      1  0.5393880000000  0.4972470000000  0.5509560000000 1.0
C      1  0.4711420000000  0.5360000000000  0.5263490000000 1.0
C      1  0.5435880000000  0.4642470000000  0.5138610000000 1.0
C      1  0.4512470000000  0.4563630000000  0.4924690000000 1.0
C      1  0.5255730000000  0.4709690000000  0.5357940000000 1.0
C      1  0.4974040000000  0.5516090000000  0.5395480000000 1.0
C      1  0.5146460000000  0.5445260000000  0.4647020000000 1.0
C      1  0.5504140000000  0.4981250000000  0.4282000000000 1.0
C      1  0.4274520000000  0.5462740000000  0.4973730000000 1.0
C      1  0.4963780000000  0.4277450000000  0.5491660000000 1.0
C      1  0.4538820000000  0.4914680000000  0.5676300000000 1.0
C      1  0.5400400000000  0.5050300000000  0.5834320000000 1.0
C      1  0.4661630000000  0.5017540000000  0.4213930000000 1.0
C      1  0.5854810000000  0.5386730000000  0.5059750000000 1.0
C      1  0.4228910000000  0.4609770000000  0.5089960000000 1.0
C      1  0.5660650000000  0.4540320000000  0.4900420000000 1.0
C      1  0.4997500000000  0.4236990000000  0.4645530000000 1.0
C      1  0.4907740000000  0.5667670000000  0.4539060000000 1.0
C      1  0.5043280000000  0.5845660000000  0.5392500000000 1.0
END
