TITL C-27142-7278-192 0.0013309017596071 125000 -313.079310226141 0 0 60 (C1) n - 1
REM
REM in /home/nfs/bkarasulu/CARBON/AIRSS/Generating-Clusters/AIREBO/Higher-Symm/Only-C60
REM
REM
REM
REM
REM
REM ./C.cell (28575a23ae977d3b5fae324c64b13b57)
REM
REM compiler GCC version 9.2.1 20190827 (Red Hat 9.2.1-1)
REM options -cpp -mtune=generic -march=x86-64 -g -O0 -fpre-include=/usr/include/finclude/math-vector-fortran.h
REM seed -421851367 -1418715712 -1290969285 146415822 -1312088793 -741794271 456648238 872191400 1250515292 -1679370433 566263386 -632383410 -1663023586 1168323311 -1514397501 339740722 -256348064 -812114407 1949726669 -1022527379 -1675879794 702339209 -90661376 1691301458 981792091 -1052193579 776515480 1750333379 1462406297 1917536258 674880850 -1082379422 -373042881
REM
CELL 1.54180   50.00000   50.00000   50.00000   90.00000   90.00000   90.00000
LATT -1
SFAC C  
C      1  0.5168100000000  0.4371830000000  0.5160790000000 1.0
C      1  0.5643270000000  0.5153250000000  0.4858450000000 1.0
C      1  0.4833640000000  0.5621670000000  0.5156450000000 1.0
C      1  0.4335070000000  0.4859470000000  0.4892840000000 1.0
C      1  0.4557780000000  0.5446440000000  0.4646980000000 1.0
C      1  0.4482670000000  0.4595280000000  0.5349750000000 1.0
C      1  0.5393620000000  0.4523230000000  0.4570300000000 1.0
C      1  0.5525210000000  0.5418290000000  0.5347330000000 1.0
C      1  0.4778650000000  0.4626140000000  0.5052960000000 1.0
C      1  0.5448840000000  0.4685160000000  0.4931030000000 1.0
C      1  0.5304430000000  0.5384060000000  0.5090410000000 1.0
C      1  0.4624550000000  0.5291700000000  0.4942320000000 1.0
C      1  0.5177520000000  0.4776270000000  0.5732620000000 1.0
C      1  0.5205730000000  0.5207430000000  0.4196290000000 1.0
C      1  0.4827060000000  0.5217390000000  0.5746530000000 1.0
C      1  0.4748470000000  0.4756860000000  0.4212830000000 1.0
C      1  0.5556520000000  0.4771460000000  0.5413050000000 1.0
C      1  0.5198260000000  0.5593090000000  0.4704210000000 1.0
C      1  0.4441140000000  0.5233120000000  0.5428250000000 1.0
C      1  0.4774540000000  0.4393410000000  0.4702010000000 1.0
C      1  0.5320760000000  0.5021670000000  0.5613060000000 1.0
C      1  0.4952730000000  0.5233990000000  0.4421880000000 1.0
C      1  0.4682770000000  0.4979100000000  0.5620040000000 1.0
C      1  0.4991790000000  0.4757870000000  0.4450340000000 1.0
C      1  0.5174910000000  0.4869890000000  0.5346020000000 1.0
C      1  0.5282510000000  0.5251300000000  0.4524620000000 1.0
C      1  0.4838470000000  0.5129970000000  0.5358080000000 1.0
C      1  0.4658790000000  0.4748830000000  0.4540730000000 1.0
C      1  0.4861570000000  0.4915830000000  0.5102550000000 1.0
C      1  0.5122740000000  0.4782220000000  0.4930450000000 1.0
C      1  0.5220120000000  0.5073160000000  0.5077100000000 1.0
C      1  0.4942660000000  0.5193660000000  0.4921690000000 1.0
C      1  0.5229420000000  0.4939310000000  0.4406600000000 1.0
C      1  0.5092700000000  0.5239400000000  0.5557530000000 1.0
C      1  0.4724310000000  0.5047780000000  0.4387170000000 1.0
C      1  0.4909970000000  0.4762830000000  0.5542470000000 1.0
C      1  0.5081140000000  0.4540430000000  0.4693990000000 1.0
C      1  0.5542040000000  0.5093020000000  0.5364260000000 1.0
C      1  0.4896640000000  0.5436900000000  0.4688520000000 1.0
C      1  0.4454770000000  0.4913110000000  0.5388670000000 1.0
C      1  0.4401860000000  0.4482680000000  0.5107180000000 1.0
C      1  0.5562990000000  0.4401470000000  0.4781970000000 1.0
C      1  0.5754700000000  0.5599430000000  0.5403790000000 1.0
C      1  0.4405350000000  0.5692760000000  0.4574030000000 1.0
C      1  0.5593970000000  0.4905260000000  0.4751710000000 1.0
C      1  0.5092950000000  0.5605870000000  0.5232440000000 1.0
C      1  0.4410870000000  0.5104640000000  0.4789070000000 1.0
C      1  0.4902020000000  0.4415400000000  0.5220530000000 1.0
C      1  0.5420970000000  0.5352520000000  0.4790790000000 1.0
C      1  0.4657650000000  0.5385580000000  0.5246490000000 1.0
C      1  0.4546410000000  0.4612010000000  0.4827810000000 1.0
C      1  0.5345090000000  0.4611550000000  0.5228220000000 1.0
C      1  0.5231320000000  0.5486170000000  0.5466310000000 1.0
C      1  0.4468100000000  0.5173060000000  0.4497580000000 1.0
C      1  0.4747130000000  0.4527160000000  0.5438660000000 1.0
C      1  0.5472270000000  0.4789610000000  0.4510050000000 1.0
C      1  0.4797280000000  0.5687700000000  0.4895520000000 1.0
C      1  0.4240430000000  0.4848520000000  0.5152920000000 1.0
C      1  0.5196330000000  0.4294630000000  0.4898760000000 1.0
C      1  0.5746410000000  0.5168180000000  0.5115030000000 1.0
END
