TITL C-27139-4854-189 1.93886765338846e-05 125000 -329.959768997366 0 0 60 (C1) n - 1
REM
REM in /home/nfs/bkarasulu/CARBON/AIRSS/Generating-Clusters/AIREBO/Higher-Symm/Only-C60
REM
REM
REM
REM
REM
REM ./C.cell (28575a23ae977d3b5fae324c64b13b57)
REM
REM compiler GCC version 9.2.1 20190827 (Red Hat 9.2.1-1)
REM options -cpp -mtune=generic -march=x86-64 -g -O0 -fpre-include=/usr/include/finclude/math-vector-fortran.h
REM seed 1321046747 1124453207 -678836816 699811895 -680064530 1948835375 -779772920 510686101 -1667365526 372326412 -1249522413 -22106836 -982848906 1202191167 422781620 185879338 249512851 -274809890 -1052593348 -25907109 1951286332 1708983040 -2045494119 -689715888 478267295 300247655 1031883947 -1994781280 -2110391219 -1105057911 -1940055524 -29755947 -525364474
REM
CELL 1.54180   50.00000   50.00000   50.00000   90.00000   90.00000   90.00000
LATT -1
SFAC C  
C      1  0.5844950000000  0.4277250000000  0.5804310000000 1.0
C      1  0.5323600000000  0.5839500000000  0.4230910000000 1.0
C      1  0.5013570000000  0.5243430000000  0.4660370000000 1.0
C      1  0.5006490000000  0.4857200000000  0.5416480000000 1.0
C      1  0.4834880000000  0.4568530000000  0.4740180000000 1.0
C      1  0.4694110000000  0.5511190000000  0.5286160000000 1.0
C      1  0.4963030000000  0.4300530000000  0.4872150000000 1.0
C      1  0.5025380000000  0.5562140000000  0.5224090000000 1.0
C      1  0.4641190000000  0.4791040000000  0.4280530000000 1.0
C      1  0.4475210000000  0.5169740000000  0.5557260000000 1.0
C      1  0.4735410000000  0.5258470000000  0.4799890000000 1.0
C      1  0.4737690000000  0.4810700000000  0.5275720000000 1.0
C      1  0.5480220000000  0.5170040000000  0.5281600000000 1.0
C      1  0.5427310000000  0.4710890000000  0.4734310000000 1.0
C      1  0.5504250000000  0.5483030000000  0.4892900000000 1.0
C      1  0.5472350000000  0.4410940000000  0.5150860000000 1.0
C      1  0.4288950000000  0.5265560000000  0.5039820000000 1.0
C      1  0.4357040000000  0.4801450000000  0.4842630000000 1.0
C      1  0.5212640000000  0.5625160000000  0.4946310000000 1.0
C      1  0.5155620000000  0.4383530000000  0.5140520000000 1.0
C      1  0.4935420000000  0.5796220000000  0.4994470000000 1.0
C      1  0.4880380000000  0.4202110000000  0.5162750000000 1.0
C      1  0.5141520000000  0.4726130000000  0.4744870000000 1.0
C      1  0.5208650000000  0.5298860000000  0.5268350000000 1.0
C      1  0.5483040000000  0.4887420000000  0.5515840000000 1.0
C      1  0.5460150000000  0.5144560000000  0.4483160000000 1.0
C      1  0.4486430000000  0.5348970000000  0.4595730000000 1.0
C      1  0.4431290000000  0.4687620000000  0.5353100000000 1.0
C      1  0.5570550000000  0.4953340000000  0.4655040000000 1.0
C      1  0.5495740000000  0.4855650000000  0.5187990000000 1.0
C      1  0.4673690000000  0.4835430000000  0.4604550000000 1.0
C      1  0.4540980000000  0.5060900000000  0.5271780000000 1.0
C      1  0.4527130000000  0.5598240000000  0.4810680000000 1.0
C      1  0.4485650000000  0.4465340000000  0.5140220000000 1.0
C      1  0.5214940000000  0.4916110000000  0.5626390000000 1.0
C      1  0.5192370000000  0.5121160000000  0.4425930000000 1.0
C      1  0.4344240000000  0.5103150000000  0.4776750000000 1.0
C      1  0.4282660000000  0.4938010000000  0.5131160000000 1.0
C      1  0.5182120000000  0.5498350000000  0.4659870000000 1.0
C      1  0.5228580000000  0.4674430000000  0.5298700000000 1.0
C      1  0.5009630000000  0.5090810000000  0.5190720000000 1.0
C      1  0.5037400000000  0.5008800000000  0.4874150000000 1.0
C      1  0.5733970000000  0.5075710000000  0.4858800000000 1.0
C      1  0.5788230000000  0.4740250000000  0.5062490000000 1.0
C      1  0.5543190000000  0.4558920000000  0.5448670000000 1.0
C      1  0.5521870000000  0.5437210000000  0.4569210000000 1.0
C      1  0.5692390000000  0.4404850000000  0.5643750000000 1.0
C      1  0.5338040000000  0.5662180000000  0.4411490000000 1.0
C      1  0.4447140000000  0.5495370000000  0.5061370000000 1.0
C      1  0.4523640000000  0.4572030000000  0.4877640000000 1.0
C      1  0.4782630000000  0.4516510000000  0.4399290000000 1.0
C      1  0.4577650000000  0.5423970000000  0.5567680000000 1.0
C      1  0.4351690000000  0.4899380000000  0.5583580000000 1.0
C      1  0.4575380000000  0.5077960000000  0.4449840000000 1.0
C      1  0.4611540000000  0.4228610000000  0.5220670000000 1.0
C      1  0.4719700000000  0.5801200000000  0.4833280000000 1.0
C      1  0.5624430000000  0.5274050000000  0.5032380000000 1.0
C      1  0.5579050000000  0.4561190000000  0.4931620000000 1.0
C      1  0.4838600000000  0.4786090000000  0.4997510000000 1.0
C      1  0.4744400000000  0.5232580000000  0.5101530000000 1.0
END
