TITL C-27141-4733-24 0.00174551694642 125000 -333.480928894036 0 0 60 (C1) n - 1
REM
REM in /home/nfs/bkarasulu/CARBON/AIRSS/Generating-Clusters/AIREBO/Higher-Symm/Only-C60
REM
REM
REM
REM
REM
REM ./C.cell (28575a23ae977d3b5fae324c64b13b57)
REM
REM compiler GCC version 9.2.1 20190827 (Red Hat 9.2.1-1)
REM options -cpp -mtune=generic -march=x86-64 -g -O0 -fpre-include=/usr/include/finclude/math-vector-fortran.h
REM seed -1033195584 678948276 1209568610 539479249 1886539208 -31411477 -179846807 -1719415171 906115120 -932092062 -1922912640 990386910 -1644359606 1852647641 903518938 1610586471 -1023698712 -830785183 -1500638379 1703496996 -1836499223 755758835 -281376582 1445191908 -183679241 -483065354 1682774539 -38591244 -665609309 -1743444983 512871420 -772248629 1681840273
REM
CELL 1.54180   50.00000   50.00000   50.00000   90.00000   90.00000   90.00000
LATT -1
SFAC C  
C      1  0.4726370000000  0.4957170000000  0.5354030000000 1.0
C      1  0.5263410000000  0.4922940000000  0.4454090000000 1.0
C      1  0.5308750000000  0.4930810000000  0.5346480000000 1.0
C      1  0.4683050000000  0.4889980000000  0.4492400000000 1.0
C      1  0.5123930000000  0.5520450000000  0.5312960000000 1.0
C      1  0.4904740000000  0.5634470000000  0.4701370000000 1.0
C      1  0.4785920000000  0.5552620000000  0.5331280000000 1.0
C      1  0.5263300000000  0.5555750000000  0.4775370000000 1.0
C      1  0.4760220000000  0.4502600000000  0.4480550000000 1.0
C      1  0.5212700000000  0.4545600000000  0.5375650000000 1.0
C      1  0.5219960000000  0.4528660000000  0.4463460000000 1.0
C      1  0.4768460000000  0.4572840000000  0.5449630000000 1.0
C      1  0.4346470000000  0.4630430000000  0.4726370000000 1.0
C      1  0.5660700000000  0.4602660000000  0.5163250000000 1.0
C      1  0.5637270000000  0.4657460000000  0.4692000000000 1.0
C      1  0.4348430000000  0.4666090000000  0.5217520000000 1.0
C      1  0.5529920000000  0.5714820000000  0.4842510000000 1.0
C      1  0.4514370000000  0.5641460000000  0.5190800000000 1.0
C      1  0.4620020000000  0.5696430000000  0.4744960000000 1.0
C      1  0.5430790000000  0.5521300000000  0.5296190000000 1.0
C      1  0.4506060000000  0.4726180000000  0.5437490000000 1.0
C      1  0.5468780000000  0.4697460000000  0.4474820000000 1.0
C      1  0.5504610000000  0.4655500000000  0.5388010000000 1.0
C      1  0.4490480000000  0.4651840000000  0.4492400000000 1.0
C      1  0.5188620000000  0.5388490000000  0.4398580000000 1.0
C      1  0.4682490000000  0.5264340000000  0.5577110000000 1.0
C      1  0.4695350000000  0.5344910000000  0.4413820000000 1.0
C      1  0.5242040000000  0.5339810000000  0.5649730000000 1.0
C      1  0.4792280000000  0.4356420000000  0.5269360000000 1.0
C      1  0.5148010000000  0.4352810000000  0.4672830000000 1.0
C      1  0.5173930000000  0.4290000000000  0.5173020000000 1.0
C      1  0.4865980000000  0.4362360000000  0.4699950000000 1.0
C      1  0.4620610000000  0.5139510000000  0.4592160000000 1.0
C      1  0.5369180000000  0.5156100000000  0.5544960000000 1.0
C      1  0.5317150000000  0.5181140000000  0.4537540000000 1.0
C      1  0.4629220000000  0.5262860000000  0.5241220000000 1.0
C      1  0.4176290000000  0.4606150000000  0.4975760000000 1.0
C      1  0.5611330000000  0.4812140000000  0.4949130000000 1.0
C      1  0.4491450000000  0.5540670000000  0.4936530000000 1.0
C      1  0.5542830000000  0.5481220000000  0.5046740000000 1.0
C      1  0.5313350000000  0.4313980000000  0.4895670000000 1.0
C      1  0.4778810000000  0.4460880000000  0.4971120000000 1.0
C      1  0.4545710000000  0.5220480000000  0.4914220000000 1.0
C      1  0.5391480000000  0.5249260000000  0.4848140000000 1.0
C      1  0.5575590000000  0.4419370000000  0.4902260000000 1.0
C      1  0.4566150000000  0.4683580000000  0.4961920000000 1.0
C      1  0.5373540000000  0.4994550000000  0.5018590000000 1.0
C      1  0.4734570000000  0.4954160000000  0.5014110000000 1.0
C      1  0.4934300000000  0.5483780000000  0.4459030000000 1.0
C      1  0.4955510000000  0.5464980000000  0.5605590000000 1.0
C      1  0.5007640000000  0.4805250000000  0.5428070000000 1.0
C      1  0.4975680000000  0.4753570000000  0.4385540000000 1.0
C      1  0.5066920000000  0.4887960000000  0.4985470000000 1.0
C      1  0.5049350000000  0.4602260000000  0.5086960000000 1.0
C      1  0.4929590000000  0.6109190000000  0.5071110000000 1.0
C      1  0.4952160000000  0.5856840000000  0.5039070000000 1.0
C      1  0.4934530000000  0.3860590000000  0.5402240000000 1.0
C      1  0.4958230000000  0.5209750000000  0.4968050000000 1.0
C      1  0.4953590000000  0.4106700000000  0.5297630000000 1.0
C      1  0.5013680000000  0.5524230000000  0.5004060000000 1.0
END
