TITL C-27145-253-16 -0.000515778699445472 125000 -325.66860530787 0 0 60 (C3) n - 1
REM
REM in /home/nfs/bkarasulu/CARBON/AIRSS/Generating-Clusters/AIREBO/Higher-Symm/Only-C60
REM
REM
REM
REM
REM
REM ./C.cell (28575a23ae977d3b5fae324c64b13b57)
REM
REM compiler GCC version 9.2.1 20190827 (Red Hat 9.2.1-1)
REM options -cpp -mtune=generic -march=x86-64 -g -O0 -fpre-include=/usr/include/finclude/math-vector-fortran.h
REM seed -189935446 -1139760622 -1571583253 -1463087182 -1722719969 674680602 1160485041 -74256283 972632248 1382501553 1082003382 -1561048980 1403424665 1331238641 1845381002 -491734732 -1170836251 2019103959 -1228576757 -976881233 1486973869 333529096 -839266486 1235372547 28661897 -1533736093 -915255059 -394306054 -691511098 797821120 191685952 776887504 -1397357724
REM
CELL 1.54180   50.00000   50.00000   50.00000   90.00000   90.00000   90.00000
LATT -1
SFAC C  
C      1  0.5321790000000  0.4454280000000  0.5377660000000 1.0
C      1  0.4471660000000  0.5380670000000  0.5245730000000 1.0
C      1  0.5424330000000  0.5279290000000  0.4439960000000 1.0
C      1  0.4714780000000  0.5569520000000  0.5347410000000 1.0
C      1  0.5279340000000  0.5560130000000  0.4575710000000 1.0
C      1  0.4753750000000  0.4471840000000  0.4619580000000 1.0
C      1  0.5570010000000  0.4652520000000  0.5285490000000 1.0
C      1  0.4453870000000  0.4622690000000  0.4678300000000 1.0
C      1  0.5560120000000  0.5424340000000  0.4720740000000 1.0
C      1  0.4652340000000  0.4714720000000  0.4430270000000 1.0
C      1  0.5380860000000  0.4754160000000  0.5528360000000 1.0
C      1  0.4622550000000  0.5321150000000  0.5545440000000 1.0
C      1  0.5330940000000  0.4399780000000  0.4583290000000 1.0
C      1  0.4399650000000  0.5417150000000  0.4668820000000 1.0
C      1  0.5416850000000  0.5331210000000  0.5600230000000 1.0
C      1  0.4634500000000  0.5631310000000  0.4562590000000 1.0
C      1  0.5312910000000  0.5546350000000  0.5381890000000 1.0
C      1  0.4685280000000  0.4411100000000  0.5495920000000 1.0
C      1  0.5546120000000  0.4618050000000  0.4687290000000 1.0
C      1  0.4411330000000  0.4504910000000  0.5314660000000 1.0
C      1  0.5631220000000  0.5437530000000  0.5365590000000 1.0
C      1  0.4505180000000  0.4684520000000  0.5587710000000 1.0
C      1  0.5437330000000  0.4634410000000  0.4368960000000 1.0
C      1  0.4618060000000  0.5312950000000  0.4453880000000 1.0
C      1  0.4820320000000  0.4781980000000  0.5556950000000 1.0
C      1  0.4817660000000  0.5739900000000  0.4820020000000 1.0
C      1  0.5496100000000  0.4883540000000  0.4858150000000 1.0
C      1  0.5156010000000  0.5173570000000  0.5727420000000 1.0
C      1  0.4883480000000  0.5142010000000  0.4503990000000 1.0
C      1  0.5179960000000  0.4817590000000  0.4260280000000 1.0
C      1  0.5173500000000  0.4272540000000  0.4844200000000 1.0
C      1  0.4781980000000  0.4441210000000  0.5180180000000 1.0
C      1  0.5141880000000  0.5496150000000  0.5116560000000 1.0
C      1  0.4272050000000  0.5156380000000  0.4826260000000 1.0
C      1  0.5739910000000  0.5180120000000  0.5182460000000 1.0
C      1  0.4442870000000  0.4820190000000  0.5217300000000 1.0
C      1  0.4916250000000  0.4822220000000  0.4267290000000 1.0
C      1  0.4822170000000  0.5732960000000  0.5083740000000 1.0
C      1  0.5732920000000  0.4916410000000  0.5177840000000 1.0
C      1  0.5138860000000  0.5187440000000  0.4600230000000 1.0
C      1  0.4899100000000  0.5160740000000  0.5657570000000 1.0
C      1  0.5074300000000  0.4772500000000  0.5530610000000 1.0
C      1  0.5161150000000  0.4342410000000  0.5101100000000 1.0
C      1  0.4772370000000  0.4468450000000  0.4926250000000 1.0
C      1  0.5187410000000  0.5399920000000  0.4861190000000 1.0
C      1  0.4469300000000  0.5074150000000  0.5227060000000 1.0
C      1  0.5399840000000  0.5138910000000  0.4812690000000 1.0
C      1  0.4341900000000  0.4899420000000  0.4838720000000 1.0
C      1  0.5415090000000  0.4971680000000  0.4409670000000 1.0
C      1  0.4596480000000  0.5004480000000  0.5663490000000 1.0
C      1  0.5005230000000  0.4336350000000  0.5403870000000 1.0
C      1  0.4312760000000  0.5432440000000  0.4995120000000 1.0
C      1  0.4644240000000  0.5024450000000  0.4289450000000 1.0
C      1  0.5432260000000  0.5004940000000  0.5687100000000 1.0
C      1  0.5024340000000  0.5710700000000  0.5355830000000 1.0
C      1  0.4971750000000  0.5590500000000  0.4584890000000 1.0
C      1  0.5004600000000  0.4312950000000  0.4568250000000 1.0
C      1  0.5710690000000  0.4644330000000  0.4975690000000 1.0
C      1  0.4336040000000  0.4596700000000  0.4994760000000 1.0
C      1  0.5590450000000  0.5415200000000  0.5028340000000 1.0
END
