TITL C-27139-4854-45 -0.000137293064348935 125000 -319.214517527367 0 0 60 (C1) n - 1
REM
REM in /home/nfs/bkarasulu/CARBON/AIRSS/Generating-Clusters/AIREBO/Higher-Symm/Only-C60
REM
REM
REM
REM
REM
REM ./C.cell (28575a23ae977d3b5fae324c64b13b57)
REM
REM compiler GCC version 9.2.1 20190827 (Red Hat 9.2.1-1)
REM options -cpp -mtune=generic -march=x86-64 -g -O0 -fpre-include=/usr/include/finclude/math-vector-fortran.h
REM seed 289005966 1091691059 140246778 -683843095 -814023659 -412340996 -1811472064 132385593 -556158516 -1096573432 829089995 988029709 -403847518 569449507 1209611586 1392837516 1931417047 1353940358 934116902 -168306883 1601639456 -530523156 -1970381052 -443949119 -1747643350 -1467776212 27089182 1160063519 867392000 6786344 -113961977 -131147939 -1270288865
REM
CELL 1.54180   50.00000   50.00000   50.00000   90.00000   90.00000   90.00000
LATT -1
SFAC C  
C      1  0.5445770000000  0.4504940000000  0.4808850000000 1.0
C      1  0.4344810000000  0.4911340000000  0.4793310000000 1.0
C      1  0.5223820000000  0.5666070000000  0.4869270000000 1.0
C      1  0.4889530000000  0.4348460000000  0.4718400000000 1.0
C      1  0.4534320000000  0.5365680000000  0.4491010000000 1.0
C      1  0.5562650000000  0.5339500000000  0.4568410000000 1.0
C      1  0.5185630000000  0.5582260000000  0.5741750000000 1.0
C      1  0.5452480000000  0.4576250000000  0.5640960000000 1.0
C      1  0.4478300000000  0.4800800000000  0.5689270000000 1.0
C      1  0.4603530000000  0.5582390000000  0.4685950000000 1.0
C      1  0.5678940000000  0.5101410000000  0.4704320000000 1.0
C      1  0.4646280000000  0.4354610000000  0.4852540000000 1.0
C      1  0.5373830000000  0.5644900000000  0.5546580000000 1.0
C      1  0.5453330000000  0.4375240000000  0.5451200000000 1.0
C      1  0.4443520000000  0.4931090000000  0.5440040000000 1.0
C      1  0.4607980000000  0.4559880000000  0.5095750000000 1.0
C      1  0.4743420000000  0.5437430000000  0.4959870000000 1.0
C      1  0.5463620000000  0.5001900000000  0.4946080000000 1.0
C      1  0.5240520000000  0.4390430000000  0.5264200000000 1.0
C      1  0.4373290000000  0.5135820000000  0.5237990000000 1.0
C      1  0.5408660000000  0.5466410000000  0.5326230000000 1.0
C      1  0.4434280000000  0.4600050000000  0.4806030000000 1.0
C      1  0.4908100000000  0.5669650000000  0.4775450000000 1.0
C      1  0.5606930000000  0.4781920000000  0.4749070000000 1.0
C      1  0.4827290000000  0.5082150000000  0.5631690000000 1.0
C      1  0.5222800000000  0.5069870000000  0.5581490000000 1.0
C      1  0.4971460000000  0.4688830000000  0.5817870000000 1.0
C      1  0.4745060000000  0.4856150000000  0.5787400000000 1.0
C      1  0.5025230000000  0.5326710000000  0.5684500000000 1.0
C      1  0.5204210000000  0.4762200000000  0.5620080000000 1.0
C      1  0.4888150000000  0.5260050000000  0.4335960000000 1.0
C      1  0.5277920000000  0.4970590000000  0.4333620000000 1.0
C      1  0.4819420000000  0.4756780000000  0.4319090000000 1.0
C      1  0.4806160000000  0.4683720000000  0.5289290000000 1.0
C      1  0.4749730000000  0.5349970000000  0.5240760000000 1.0
C      1  0.5383430000000  0.4971710000000  0.5219190000000 1.0
C      1  0.5510640000000  0.4803270000000  0.4223020000000 1.0
C      1  0.4569240000000  0.4605570000000  0.4242280000000 1.0
C      1  0.5032020000000  0.5519030000000  0.4250690000000 1.0
C      1  0.5313480000000  0.5242270000000  0.4779370000000 1.0
C      1  0.5032410000000  0.4578760000000  0.4702860000000 1.0
C      1  0.4749030000000  0.5211820000000  0.4705550000000 1.0
C      1  0.5451330000000  0.5196810000000  0.5396700000000 1.0
C      1  0.4985050000000  0.4427270000000  0.5382440000000 1.0
C      1  0.4441900000000  0.5410940000000  0.5338890000000 1.0
C      1  0.5059820000000  0.5264190000000  0.5353650000000 1.0
C      1  0.5130080000000  0.4787540000000  0.5289140000000 1.0
C      1  0.4747260000000  0.5017780000000  0.5313880000000 1.0
C      1  0.5078330000000  0.5230230000000  0.5022530000000 1.0
C      1  0.5026630000000  0.4756170000000  0.4966680000000 1.0
C      1  0.4816980000000  0.5024180000000  0.4980910000000 1.0
C      1  0.5137170000000  0.5548870000000  0.4566390000000 1.0
C      1  0.5417870000000  0.4644920000000  0.4510140000000 1.0
C      1  0.4477860000000  0.4778590000000  0.4521250000000 1.0
C      1  0.5095110000000  0.4717020000000  0.4430860000000 1.0
C      1  0.4698060000000  0.5024280000000  0.4438760000000 1.0
C      1  0.5192650000000  0.5227000000000  0.4469760000000 1.0
C      1  0.4478820000000  0.5060860000000  0.4984350000000 1.0
C      1  0.5266750000000  0.5493670000000  0.5086370000000 1.0
C      1  0.5267150000000  0.4521810000000  0.5020080000000 1.0
END
