TITL C-27138-9601-59 -2.15098836947491e-05 125000 -360.551240658923 0 0 60 (C1) n - 1
REM
REM in /home/nfs/bkarasulu/CARBON/AIRSS/Generating-Clusters/AIREBO/Higher-Symm/Only-C60
REM
REM
REM
REM
REM
REM ./C.cell (28575a23ae977d3b5fae324c64b13b57)
REM
REM compiler GCC version 9.2.1 20190827 (Red Hat 9.2.1-1)
REM options -cpp -mtune=generic -march=x86-64 -g -O0 -fpre-include=/usr/include/finclude/math-vector-fortran.h
REM seed -36762731 1155457432 -1450813525 706102053 -1547384846 -1457729675 -489931107 -1640242623 635154371 1794627230 -1884985936 -821060673 524925028 681812902 1428321925 803363684 100404825 1580706324 -1202070465 -1879806376 -377871811 -1730597195 -1420846951 -1942051607 -894504736 455779140 -1443564148 866289163 -825752951 14802855 -973383036 -940890041 -86341832
REM
CELL 1.54180   50.00000   50.00000   50.00000   90.00000   90.00000   90.00000
LATT -1
SFAC C  
C      1  0.4522880000000  0.4859730000000  0.5516380000000 1.0
C      1  0.4513370000000  0.5331290000000  0.5368670000000 1.0
C      1  0.4591630000000  0.5462470000000  0.4886560000000 1.0
C      1  0.4403460000000  0.5140760000000  0.4556970000000 1.0
C      1  0.4555680000000  0.4634140000000  0.4644800000000 1.0
C      1  0.4539250000000  0.4486320000000  0.5146310000000 1.0
C      1  0.4409230000000  0.5114060000000  0.5509850000000 1.0
C      1  0.4435070000000  0.4612810000000  0.5386730000000 1.0
C      1  0.4449800000000  0.4483760000000  0.4868550000000 1.0
C      1  0.4484390000000  0.4880870000000  0.4503050000000 1.0
C      1  0.4576230000000  0.5351060000000  0.4630960000000 1.0
C      1  0.4431610000000  0.5408150000000  0.5111450000000 1.0
C      1  0.5459410000000  0.4836490000000  0.4553530000000 1.0
C      1  0.5440740000000  0.4500340000000  0.4903080000000 1.0
C      1  0.5438430000000  0.4664760000000  0.5362930000000 1.0
C      1  0.5454700000000  0.5168890000000  0.5491370000000 1.0
C      1  0.5356400000000  0.5529210000000  0.5132070000000 1.0
C      1  0.5398430000000  0.5308330000000  0.4686790000000 1.0
C      1  0.5389390000000  0.5099200000000  0.4505730000000 1.0
C      1  0.5290610000000  0.5486470000000  0.4867960000000 1.0
C      1  0.5496930000000  0.5365170000000  0.5305340000000 1.0
C      1  0.5375180000000  0.4887220000000  0.5512260000000 1.0
C      1  0.5373330000000  0.4476680000000  0.5170680000000 1.0
C      1  0.5385400000000  0.4586250000000  0.4645520000000 1.0
C      1  0.5275110000000  0.5431190000000  0.4136330000000 1.0
C      1  0.5185980000000  0.4433200000000  0.4194090000000 1.0
C      1  0.5175480000000  0.4012300000000  0.5093890000000 1.0
C      1  0.5166330000000  0.4609620000000  0.5898400000000 1.0
C      1  0.5105520000000  0.5652510000000  0.5813180000000 1.0
C      1  0.5150800000000  0.5962440000000  0.4831480000000 1.0
C      1  0.5127880000000  0.4631870000000  0.4047640000000 1.0
C      1  0.5144040000000  0.5642160000000  0.4258440000000 1.0
C      1  0.5217790000000  0.6003170000000  0.5075380000000 1.0
C      1  0.5207950000000  0.5436120000000  0.5897940000000 1.0
C      1  0.5107940000000  0.4366500000000  0.5782670000000 1.0
C      1  0.5104410000000  0.4007060000000  0.4827430000000 1.0
C      1  0.5130840000000  0.4859580000000  0.5721690000000 1.0
C      1  0.5010610000000  0.5654960000000  0.5529930000000 1.0
C      1  0.5057690000000  0.5667840000000  0.4763520000000 1.0
C      1  0.5224200000000  0.5150410000000  0.4260730000000 1.0
C      1  0.5158560000000  0.4445700000000  0.4501400000000 1.0
C      1  0.5149900000000  0.4284030000000  0.5239720000000 1.0
C      1  0.5216000000000  0.5193450000000  0.5711040000000 1.0
C      1  0.5016720000000  0.4355560000000  0.5529470000000 1.0
C      1  0.5018500000000  0.4229040000000  0.4700610000000 1.0
C      1  0.5032350000000  0.4882800000000  0.4180090000000 1.0
C      1  0.4976120000000  0.5602260000000  0.4481670000000 1.0
C      1  0.5191850000000  0.5753400000000  0.5259550000000 1.0
C      1  0.4796750000000  0.4846720000000  0.4409090000000 1.0
C      1  0.4805560000000  0.4407160000000  0.4859850000000 1.0
C      1  0.4787490000000  0.4567720000000  0.5453640000000 1.0
C      1  0.4938440000000  0.5158590000000  0.5550310000000 1.0
C      1  0.4875190000000  0.5662450000000  0.5226010000000 1.0
C      1  0.4797250000000  0.5389740000000  0.4464870000000 1.0
C      1  0.4895150000000  0.5158520000000  0.4315790000000 1.0
C      1  0.4814560000000  0.5612340000000  0.4943650000000 1.0
C      1  0.4799620000000  0.5407820000000  0.5440350000000 1.0
C      1  0.4834860000000  0.4858020000000  0.5578140000000 1.0
C      1  0.4858920000000  0.4410920000000  0.5170330000000 1.0
C      1  0.4872120000000  0.4578390000000  0.4584150000000 1.0
END
