TITL C-27139-4854-28 -0.016692024352677 125000 -334.241479147052 0 0 60 (D2) n - 1
REM
REM in /home/nfs/bkarasulu/CARBON/AIRSS/Generating-Clusters/AIREBO/Higher-Symm/Only-C60
REM
REM
REM
REM
REM
REM ./C.cell (28575a23ae977d3b5fae324c64b13b57)
REM
REM compiler GCC version 9.2.1 20190827 (Red Hat 9.2.1-1)
REM options -cpp -mtune=generic -march=x86-64 -g -O0 -fpre-include=/usr/include/finclude/math-vector-fortran.h
REM seed 1984876211 -1061122193 -1456939508 333232176 -138574108 1629083158 -2110936876 1546401963 1897809095 -1369178762 -511651335 1998574233 -1271332652 -2033167009 111174023 255493591 -1778606581 -2123029502 -1525812567 865946830 797591825 929576326 761376706 -43314304 288666426 1464770448 -1816014218 1459026196 2106225697 1158007223 -1805272885 -1334634615 -200098554
REM
CELL 1.54180   50.00000   50.00000   50.00000   90.00000   90.00000   90.00000
LATT -1
SFAC C  
C      1  0.4716610000000  0.4978190000000  0.4338610000000 1.0
C      1  0.4667270000000  0.4351380000000  0.5052320000000 1.0
C      1  0.4716990000000  0.5022100000000  0.5662750000000 1.0
C      1  0.4667020000000  0.5648020000000  0.4947360000000 1.0
C      1  0.5354140000000  0.4947760000000  0.5648550000000 1.0
C      1  0.5304410000000  0.4337310000000  0.4977840000000 1.0
C      1  0.5354090000000  0.5052710000000  0.4351900000000 1.0
C      1  0.5304520000000  0.5661460000000  0.5021750000000 1.0
C      1  0.4651140000000  0.5198010000000  0.5011870000000 1.0
C      1  0.4717130000000  0.5009280000000  0.4736800000000 1.0
C      1  0.4648590000000  0.4799160000000  0.4986640000000 1.0
C      1  0.4720810000000  0.4993410000000  0.5264540000000 1.0
C      1  0.5304070000000  0.5263270000000  0.4990660000000 1.0
C      1  0.5372720000000  0.5013440000000  0.5200760000000 1.0
C      1  0.5300520000000  0.4735520000000  0.5006530000000 1.0
C      1  0.5370090000000  0.4988210000000  0.4801910000000 1.0
C      1  0.5520670000000  0.5280900000000  0.4389870000000 1.0
C      1  0.5459670000000  0.4365460000000  0.4740220000000 1.0
C      1  0.5519140000000  0.4718720000000  0.5609700000000 1.0
C      1  0.5459410000000  0.5634620000000  0.5259550000000 1.0
C      1  0.4561670000000  0.5259690000000  0.5634630000000 1.0
C      1  0.4502320000000  0.4390190000000  0.5281390000000 1.0
C      1  0.4561770000000  0.4740350000000  0.4365470000000 1.0
C      1  0.4500400000000  0.5610020000000  0.4719210000000 1.0
C      1  0.5428070000000  0.4506860000000  0.5186760000000 1.0
C      1  0.5455540000000  0.5169310000000  0.5491380000000 1.0
C      1  0.5428680000000  0.5493270000000  0.4812420000000 1.0
C      1  0.5453250000000  0.4831840000000  0.4511650000000 1.0
C      1  0.4565790000000  0.4508520000000  0.4830790000000 1.0
C      1  0.4592440000000  0.5187480000000  0.4506820000000 1.0
C      1  0.4567940000000  0.5488260000000  0.5168250000000 1.0
C      1  0.4593340000000  0.4813150000000  0.5493230000000 1.0
C      1  0.5093310000000  0.4863050000000  0.5323470000000 1.0
C      1  0.5055420000000  0.5364340000000  0.5169610000000 1.0
C      1  0.5090670000000  0.5136900000000  0.4677240000000 1.0
C      1  0.5051020000000  0.4635450000000  0.4829510000000 1.0
C      1  0.4965800000000  0.4830380000000  0.4635670000000 1.0
C      1  0.4930490000000  0.5322740000000  0.4863110000000 1.0
C      1  0.4970290000000  0.5170490000000  0.5364550000000 1.0
C      1  0.4928050000000  0.4676510000000  0.5136970000000 1.0
C      1  0.5614570000000  0.4637830000000  0.5349810000000 1.0
C      1  0.5593410000000  0.5398570000000  0.5342470000000 1.0
C      1  0.5616150000000  0.5362810000000  0.4649600000000 1.0
C      1  0.5592740000000  0.4602790000000  0.4659290000000 1.0
C      1  0.4427840000000  0.4657400000000  0.4601560000000 1.0
C      1  0.4404960000000  0.5350270000000  0.4637320000000 1.0
C      1  0.4428530000000  0.5340580000000  0.5397340000000 1.0
C      1  0.4406850000000  0.4650060000000  0.5362310000000 1.0
C      1  0.4256290000000  0.4812900000000  0.5183710000000 1.0
C      1  0.4337760000000  0.5140900000000  0.5137540000000 1.0
C      1  0.4254320000000  0.5185650000000  0.4814850000000 1.0
C      1  0.4336910000000  0.4858680000000  0.4860060000000 1.0
C      1  0.5683500000000  0.4862610000000  0.4858950000000 1.0
C      1  0.5766870000000  0.5185320000000  0.4814180000000 1.0
C      1  0.5684360000000  0.5140080000000  0.5141170000000 1.0
C      1  0.5765060000000  0.4816460000000  0.5186940000000 1.0
C      1  0.4984780000000  0.4359970000000  0.5017450000000 1.0
C      1  0.4984730000000  0.5639180000000  0.4982340000000 1.0
C      1  0.5036390000000  0.5017660000000  0.4360810000000 1.0
C      1  0.5036630000000  0.4982560000000  0.5640030000000 1.0
END
