TITL C-27132-7279-163 4.71965664463656 125000 -355.425201241609 0 0 60 (C3) n - 1
REM
REM in /home/nfs/bkarasulu/CARBON/AIRSS/Generating-Clusters/AIREBO/Higher-Symm/Only-C60
REM
REM
REM
REM
REM
REM ./C.cell (28575a23ae977d3b5fae324c64b13b57)
REM
REM compiler GCC version 9.2.1 20190827 (Red Hat 9.2.1-1)
REM options -cpp -mtune=generic -march=x86-64 -g -O0 -fpre-include=/usr/include/finclude/math-vector-fortran.h
REM seed 398118398 -689090365 -18211663 -66795780 -445265865 -780960504 1947896654 -1673300238 -1067022430 1313758931 1336092804 1322535812 833516663 -1764830465 1911107657 457712243 -2101091997 789124856 -976329880 -2084169702 -858031784 336627342 -607227931 -1753504295 1806570809 -2074503997 739028828 -1099289630 -1555338299 -1376259851 -189602653 -2107502616 1773177913
REM
CELL 1.54180   50.00000   50.00000   50.00000   90.00000   90.00000   90.00000
LATT -1
SFAC C  
C      1  0.5334660000000  0.4802730000000  0.4372210000000 1.0
C      1  0.5334670000000  0.5642410000000  0.5142910000000 1.0
C      1  0.5334600000000  0.4555190000000  0.5484780000000 1.0
C      1  0.5334390000000  0.4803210000000  0.5627700000000 1.0
C      1  0.5334580000000  0.5642300000000  0.4856680000000 1.0
C      1  0.5334710000000  0.4554860000000  0.4515350000000 1.0
C      1  0.4780590000000  0.4538340000000  0.4490290000000 1.0
C      1  0.4780460000000  0.5672240000000  0.4855210000000 1.0
C      1  0.4780420000000  0.4789390000000  0.5654660000000 1.0
C      1  0.4780540000000  0.4538460000000  0.5509870000000 1.0
C      1  0.4780560000000  0.5672200000000  0.5144910000000 1.0
C      1  0.4780550000000  0.4789210000000  0.4345430000000 1.0
C      1  0.4575550000000  0.4519960000000  0.4731590000000 1.0
C      1  0.4575440000000  0.5472410000000  0.4718660000000 1.0
C      1  0.4574810000000  0.5007300000000  0.5550400000000 1.0
C      1  0.4575570000000  0.4519950000000  0.5268530000000 1.0
C      1  0.4575590000000  0.5472360000000  0.5281540000000 1.0
C      1  0.4575490000000  0.5007370000000  0.4450170000000 1.0
C      1  0.5045070000000  0.4954220000000  0.4415950000000 1.0
C      1  0.5045180000000  0.5528720000000  0.5252390000000 1.0
C      1  0.5045120000000  0.4517120000000  0.5331690000000 1.0
C      1  0.5044640000000  0.4954600000000  0.5583400000000 1.0
C      1  0.5044960000000  0.5528610000000  0.4747470000000 1.0
C      1  0.5045140000000  0.4516950000000  0.4668410000000 1.0
C      1  0.5228950000000  0.5259510000000  0.4844120000000 1.0
C      1  0.5229020000000  0.5005220000000  0.5302250000000 1.0
C      1  0.5228960000000  0.4735370000000  0.4853100000000 1.0
C      1  0.5229020000000  0.5259630000000  0.5155440000000 1.0
C      1  0.5228950000000  0.5005030000000  0.4697390000000 1.0
C      1  0.5228940000000  0.4735410000000  0.5146850000000 1.0
C      1  0.5520380000000  0.4997030000000  0.4521510000000 1.0
C      1  0.5520410000000  0.5415980000000  0.5236530000000 1.0
C      1  0.5520390000000  0.4587240000000  0.5241870000000 1.0
C      1  0.5520240000000  0.4997370000000  0.5478310000000 1.0
C      1  0.5520310000000  0.5415790000000  0.4763120000000 1.0
C      1  0.5520370000000  0.4587120000000  0.4758320000000 1.0
C      1  0.4830100000000  0.4716200000000  0.5157310000000 1.0
C      1  0.4830100000000  0.5005640000000  0.4675650000000 1.0
C      1  0.4830170000000  0.5278010000000  0.5167150000000 1.0
C      1  0.4830110000000  0.4716200000000  0.4842790000000 1.0
C      1  0.4830230000000  0.5005600000000  0.5324350000000 1.0
C      1  0.4830090000000  0.5278050000000  0.4832900000000 1.0
C      1  0.5738080000000  0.5250850000000  0.4854470000000 1.0
C      1  0.5738070000000  0.5000710000000  0.5289850000000 1.0
C      1  0.5738080000000  0.4748730000000  0.4855550000000 1.0
C      1  0.5738140000000  0.5250940000000  0.5145280000000 1.0
C      1  0.5738100000000  0.5000530000000  0.4710070000000 1.0
C      1  0.5738100000000  0.4748810000000  0.5144550000000 1.0
C      1  0.4433730000000  0.4764070000000  0.4863050000000 1.0
C      1  0.4433740000000  0.5236480000000  0.4864390000000 1.0
C      1  0.4433810000000  0.4999120000000  0.5272830000000 1.0
C      1  0.4433710000000  0.4764050000000  0.5137120000000 1.0
C      1  0.4433800000000  0.5236470000000  0.5135840000000 1.0
C      1  0.4433730000000  0.4999150000000  0.4727350000000 1.0
C      1  0.4513400000000  0.4256360000000  0.5126920000000 1.0
C      1  0.4513210000000  0.5261800000000  0.4292730000000 1.0
C      1  0.4513110000000  0.5481600000000  0.5580560000000 1.0
C      1  0.4513380000000  0.4256370000000  0.4873190000000 1.0
C      1  0.4512610000000  0.5261930000000  0.5707530000000 1.0
C      1  0.4513180000000  0.5481530000000  0.4419600000000 1.0
END
