TITL C-27142-7278-6 -0.000644163636966657 125000 -336.840863969745 0 0 60 (C1) n - 1
REM
REM in /home/nfs/bkarasulu/CARBON/AIRSS/Generating-Clusters/AIREBO/Higher-Symm/Only-C60
REM
REM
REM
REM
REM
REM ./C.cell (28575a23ae977d3b5fae324c64b13b57)
REM
REM compiler GCC version 9.2.1 20190827 (Red Hat 9.2.1-1)
REM options -cpp -mtune=generic -march=x86-64 -g -O0 -fpre-include=/usr/include/finclude/math-vector-fortran.h
REM seed -353022982 1319180497 671820220 -334140138 200183710 -1015785909 -73208864 1643158734 392924571 -298688777 2093819554 2018731788 2043367442 -692551219 192205039 -1860547129 1146936865 -1874419972 -1928607934 216197178 -952714511 143930167 852895 56889092 -1635893780 979914138 1800666252 -1885490052 1199874195 2093509643 1608611315 2044725786 -1894127222
REM
CELL 1.54180   50.00000   50.00000   50.00000   90.00000   90.00000   90.00000
LATT -1
SFAC C  
C      1  0.5477030000000  0.5536500000000  0.4727000000000 1.0
C      1  0.4551330000000  0.5552500000000  0.5317460000000 1.0
C      1  0.5486440000000  0.4553780000000  0.5244090000000 1.0
C      1  0.4465700000000  0.4400210000000  0.4706730000000 1.0
C      1  0.4822210000000  0.5558480000000  0.5479050000000 1.0
C      1  0.5278350000000  0.5517100000000  0.4529730000000 1.0
C      1  0.5287370000000  0.4513460000000  0.5456300000000 1.0
C      1  0.4713780000000  0.4381390000000  0.4513730000000 1.0
C      1  0.4827340000000  0.4822960000000  0.4227590000000 1.0
C      1  0.5063020000000  0.4870880000000  0.5769880000000 1.0
C      1  0.4947050000000  0.5287960000000  0.5881310000000 1.0
C      1  0.5060750000000  0.5144510000000  0.4268360000000 1.0
C      1  0.4217660000000  0.4811390000000  0.4798140000000 1.0
C      1  0.5824750000000  0.4813780000000  0.5036940000000 1.0
C      1  0.5776700000000  0.5270810000000  0.5005090000000 1.0
C      1  0.4146100000000  0.5261970000000  0.4762420000000 1.0
C      1  0.4468870000000  0.4470700000000  0.4984220000000 1.0
C      1  0.5409250000000  0.4617030000000  0.4981950000000 1.0
C      1  0.4549540000000  0.5502790000000  0.5041660000000 1.0
C      1  0.5477070000000  0.5533580000000  0.5032530000000 1.0
C      1  0.4987190000000  0.4448400000000  0.4519610000000 1.0
C      1  0.5020020000000  0.4582710000000  0.5395230000000 1.0
C      1  0.5015540000000  0.5483280000000  0.4628550000000 1.0
C      1  0.5075140000000  0.5392960000000  0.5441760000000 1.0
C      1  0.5490520000000  0.4742410000000  0.5596670000000 1.0
C      1  0.4560680000000  0.4656520000000  0.4416740000000 1.0
C      1  0.5329860000000  0.5316610000000  0.4332180000000 1.0
C      1  0.4718230000000  0.5373430000000  0.5726810000000 1.0
C      1  0.5720850000000  0.4756060000000  0.5321700000000 1.0
C      1  0.4289360000000  0.4617090000000  0.4584600000000 1.0
C      1  0.4544520000000  0.5274860000000  0.5472470000000 1.0
C      1  0.5621900000000  0.5281550000000  0.4758980000000 1.0
C      1  0.5305310000000  0.4998300000000  0.4453980000000 1.0
C      1  0.4830980000000  0.4993180000000  0.5367510000000 1.0
C      1  0.5316950000000  0.5026100000000  0.5649480000000 1.0
C      1  0.4762190000000  0.4892680000000  0.4555620000000 1.0
C      1  0.4542330000000  0.5034100000000  0.5231990000000 1.0
C      1  0.5441250000000  0.5029320000000  0.4739040000000 1.0
C      1  0.5490970000000  0.5001670000000  0.5371080000000 1.0
C      1  0.4566850000000  0.4934280000000  0.4807010000000 1.0
C      1  0.5147040000000  0.4761780000000  0.4955670000000 1.0
C      1  0.4679330000000  0.4712520000000  0.5039040000000 1.0
C      1  0.5219570000000  0.5092520000000  0.4989240000000 1.0
C      1  0.4725900000000  0.5228070000000  0.5021110000000 1.0
C      1  0.4943440000000  0.4640570000000  0.5132320000000 1.0
C      1  0.5027360000000  0.4728770000000  0.4691400000000 1.0
C      1  0.5042900000000  0.5159100000000  0.5272220000000 1.0
C      1  0.4962930000000  0.5240390000000  0.4847760000000 1.0
C      1  0.4882110000000  0.5189050000000  0.4529300000000 1.0
C      1  0.5180770000000  0.5306740000000  0.5702180000000 1.0
C      1  0.4906720000000  0.4787740000000  0.5551950000000 1.0
C      1  0.5106440000000  0.4734620000000  0.4372000000000 1.0
C      1  0.4429990000000  0.5240920000000  0.4861630000000 1.0
C      1  0.5479410000000  0.5222400000000  0.5166160000000 1.0
C      1  0.5606080000000  0.4776190000000  0.4853020000000 1.0
C      1  0.4358810000000  0.4777750000000  0.5104130000000 1.0
C      1  0.4882950000000  0.5032490000000  0.4018490000000 1.0
C      1  0.4946870000000  0.5019760000000  0.5985670000000 1.0
C      1  0.5959530000000  0.5058970000000  0.5019030000000 1.0
C      1  0.4030900000000  0.5032360000000  0.4752500000000 1.0
END
