TITL C-27135-6010-124 -0.000771661274090566 125000 -336.159609368523 0 0 60 (C1) n - 1
REM
REM in /home/nfs/bkarasulu/CARBON/AIRSS/Generating-Clusters/AIREBO/Higher-Symm/Only-C60
REM
REM
REM
REM
REM
REM ./C.cell (28575a23ae977d3b5fae324c64b13b57)
REM
REM compiler GCC version 9.2.1 20190827 (Red Hat 9.2.1-1)
REM options -cpp -mtune=generic -march=x86-64 -g -O0 -fpre-include=/usr/include/finclude/math-vector-fortran.h
REM seed -267674330 -593909022 915413693 739129398 -342690996 2147451851 1058344331 1205424513 816583523 599381573 -1579665174 -1288531572 -2119387541 651273521 -1018013224 -361828137 -952587669 -1359334554 1780610059 -1710634912 1139127979 -1532651140 -368558120 -975569376 1533892915 1266106282 1917154418 1142088178 588499336 887384814 -1961161230 282820148 261837106
REM
CELL 1.54180   50.00000   50.00000   50.00000   90.00000   90.00000   90.00000
LATT -1
SFAC C  
C      1  0.5034880000000  0.4843620000000  0.5281530000000 1.0
C      1  0.4709590000000  0.4668920000000  0.4146020000000 1.0
C      1  0.4857060000000  0.4439490000000  0.4526660000000 1.0
C      1  0.5200860000000  0.5135990000000  0.5332300000000 1.0
C      1  0.5322740000000  0.4510000000000  0.5046940000000 1.0
C      1  0.5305880000000  0.4617110000000  0.4341310000000 1.0
C      1  0.5271860000000  0.5058300000000  0.4499720000000 1.0
C      1  0.5635220000000  0.4620610000000  0.5390010000000 1.0
C      1  0.4708240000000  0.4807060000000  0.5505530000000 1.0
C      1  0.4689870000000  0.5341510000000  0.5588110000000 1.0
C      1  0.4878150000000  0.4551780000000  0.5358470000000 1.0
C      1  0.4861290000000  0.5060160000000  0.5649920000000 1.0
C      1  0.5149500000000  0.5816390000000  0.5176790000000 1.0
C      1  0.4851470000000  0.4359520000000  0.5129400000000 1.0
C      1  0.5113100000000  0.4753780000000  0.5608750000000 1.0
C      1  0.5402390000000  0.5476800000000  0.5424050000000 1.0
C      1  0.4468300000000  0.5549470000000  0.4758390000000 1.0
C      1  0.5180130000000  0.4482040000000  0.5498330000000 1.0
C      1  0.5401360000000  0.4474090000000  0.5328520000000 1.0
C      1  0.4398050000000  0.5078720000000  0.4536170000000 1.0
C      1  0.5635210000000  0.4919330000000  0.5012220000000 1.0
C      1  0.5065950000000  0.4363020000000  0.4956560000000 1.0
C      1  0.4653460000000  0.4268990000000  0.4460790000000 1.0
C      1  0.5120430000000  0.5574510000000  0.5382470000000 1.0
C      1  0.5533990000000  0.5165720000000  0.4913610000000 1.0
C      1  0.5639600000000  0.4889960000000  0.5295180000000 1.0
C      1  0.5419160000000  0.5424600000000  0.4803550000000 1.0
C      1  0.5299650000000  0.5605520000000  0.4970700000000 1.0
C      1  0.4659640000000  0.5046020000000  0.4440530000000 1.0
C      1  0.5004220000000  0.5744840000000  0.4876260000000 1.0
C      1  0.5086400000000  0.5308140000000  0.5591040000000 1.0
C      1  0.4806240000000  0.5514910000000  0.5402550000000 1.0
C      1  0.4617020000000  0.4594220000000  0.3920290000000 1.0
C      1  0.5550670000000  0.4912010000000  0.4606050000000 1.0
C      1  0.4802840000000  0.5272220000000  0.4414680000000 1.0
C      1  0.5159890000000  0.4973610000000  0.5788300000000 1.0
C      1  0.4968050000000  0.5445520000000  0.4615020000000 1.0
C      1  0.4326180000000  0.5248800000000  0.4749850000000 1.0
C      1  0.5140190000000  0.4838270000000  0.4346430000000 1.0
C      1  0.4708810000000  0.5498680000000  0.5151940000000 1.0
C      1  0.4923620000000  0.5423170000000  0.4951380000000 1.0
C      1  0.5163650000000  0.4783580000000  0.4972590000000 1.0
C      1  0.4446790000000  0.4849780000000  0.5431920000000 1.0
C      1  0.4830240000000  0.4766410000000  0.4439470000000 1.0
C      1  0.4640470000000  0.4185820000000  0.5118920000000 1.0
C      1  0.4409990000000  0.5299490000000  0.5550860000000 1.0
C      1  0.4891400000000  0.4812180000000  0.4767820000000 1.0
C      1  0.5252240000000  0.5061930000000  0.4825130000000 1.0
C      1  0.4723480000000  0.5661210000000  0.4701220000000 1.0
C      1  0.4334130000000  0.5177140000000  0.5079370000000 1.0
C      1  0.5486390000000  0.5077030000000  0.5444630000000 1.0
C      1  0.5085580000000  0.4380690000000  0.4680210000000 1.0
C      1  0.5259880000000  0.5369350000000  0.4570480000000 1.0
C      1  0.4337770000000  0.5102270000000  0.5355120000000 1.0
C      1  0.4454130000000  0.5468630000000  0.5052400000000 1.0
C      1  0.5042060000000  0.5160820000000  0.5039030000000 1.0
C      1  0.5333380000000  0.4490740000000  0.4594610000000 1.0
C      1  0.4802410000000  0.4937590000000  0.5046600000000 1.0
C      1  0.5522340000000  0.4660310000000  0.4822030000000 1.0
C      1  0.5422480000000  0.5077600000000  0.5731280000000 1.0
END
