TITL C-27139-4854-3 0.000691141964250641 125000 -321.163616558857 0 0 60 (C1) n - 1
REM
REM in /home/nfs/bkarasulu/CARBON/AIRSS/Generating-Clusters/AIREBO/Higher-Symm/Only-C60
REM
REM
REM
REM
REM
REM ./C.cell (28575a23ae977d3b5fae324c64b13b57)
REM
REM compiler GCC version 9.2.1 20190827 (Red Hat 9.2.1-1)
REM options -cpp -mtune=generic -march=x86-64 -g -O0 -fpre-include=/usr/include/finclude/math-vector-fortran.h
REM seed 1526622771 5948623 328314279 -1726143615 -1083476910 1952194149 627633731 -953061429 1487261330 303757968 -62139110 -687114657 1951958315 -1348674702 1182597461 115545798 -377081635 -1620867896 903074621 76479976 573887193 146950244 -2076473290 -1398818581 -1137211623 513570646 -1501970995 -844226571 -1322420621 -1640101097 -67133992 -1080443687 1147127498
REM
CELL 1.54180   50.00000   50.00000   50.00000   90.00000   90.00000   90.00000
LATT -1
SFAC C  
C      1  0.5024670000000  0.5313170000000  0.5744270000000 1.0
C      1  0.5602100000000  0.4660940000000  0.5362600000000 1.0
C      1  0.5637680000000  0.5305260000000  0.4659700000000 1.0
C      1  0.5039710000000  0.4703080000000  0.4310450000000 1.0
C      1  0.4360860000000  0.5297320000000  0.4635830000000 1.0
C      1  0.4419050000000  0.4674330000000  0.5311160000000 1.0
C      1  0.5224350000000  0.5313820000000  0.5070970000000 1.0
C      1  0.5064550000000  0.4675120000000  0.4917170000000 1.0
C      1  0.4870140000000  0.5347150000000  0.4741360000000 1.0
C      1  0.4772390000000  0.4725160000000  0.4913420000000 1.0
C      1  0.4936960000000  0.5407870000000  0.5048310000000 1.0
C      1  0.5135240000000  0.4687380000000  0.5217170000000 1.0
C      1  0.5634660000000  0.5051740000000  0.4544810000000 1.0
C      1  0.4958200000000  0.4964820000000  0.4223730000000 1.0
C      1  0.4258410000000  0.5043770000000  0.4692670000000 1.0
C      1  0.4388270000000  0.4945200000000  0.5391610000000 1.0
C      1  0.5087140000000  0.5047340000000  0.5820760000000 1.0
C      1  0.5702080000000  0.4915520000000  0.5312690000000 1.0
C      1  0.5393020000000  0.5493420000000  0.4625000000000 1.0
C      1  0.4800170000000  0.4560020000000  0.4425600000000 1.0
C      1  0.4426380000000  0.5432680000000  0.4864500000000 1.0
C      1  0.4648590000000  0.4525060000000  0.5449940000000 1.0
C      1  0.5239310000000  0.5434020000000  0.5615570000000 1.0
C      1  0.5535690000000  0.4535000000000  0.5129820000000 1.0
C      1  0.5151650000000  0.4565430000000  0.4636550000000 1.0
C      1  0.4696770000000  0.5528690000000  0.4587450000000 1.0
C      1  0.4599190000000  0.4505770000000  0.5032490000000 1.0
C      1  0.4831710000000  0.5511350000000  0.5322420000000 1.0
C      1  0.5250190000000  0.4475140000000  0.5402550000000 1.0
C      1  0.5425140000000  0.5499820000000  0.4930460000000 1.0
C      1  0.4807800000000  0.5026170000000  0.4644830000000 1.0
C      1  0.4662600000000  0.4975170000000  0.5091970000000 1.0
C      1  0.4800470000000  0.4961950000000  0.5372080000000 1.0
C      1  0.5139970000000  0.4985880000000  0.5380120000000 1.0
C      1  0.5271700000000  0.5021390000000  0.4918620000000 1.0
C      1  0.5127970000000  0.5059720000000  0.4640940000000 1.0
C      1  0.5138240000000  0.5374140000000  0.4538130000000 1.0
C      1  0.4661430000000  0.4726010000000  0.4618050000000 1.0
C      1  0.4627070000000  0.5299890000000  0.5054880000000 1.0
C      1  0.4909860000000  0.4672450000000  0.5471330000000 1.0
C      1  0.5315510000000  0.5270610000000  0.5368230000000 1.0
C      1  0.5402960000000  0.4707680000000  0.4911340000000 1.0
C      1  0.5353500000000  0.4940870000000  0.5640890000000 1.0
C      1  0.5597280000000  0.5041330000000  0.5013120000000 1.0
C      1  0.5333190000000  0.4939200000000  0.4444690000000 1.0
C      1  0.4650430000000  0.5037630000000  0.4343630000000 1.0
C      1  0.4359520000000  0.4917040000000  0.4993700000000 1.0
C      1  0.4598190000000  0.5072400000000  0.5622100000000 1.0
C      1  0.5432390000000  0.4615890000000  0.5637320000000 1.0
C      1  0.5723310000000  0.5355870000000  0.4984950000000 1.0
C      1  0.5350510000000  0.4608050000000  0.4369540000000 1.0
C      1  0.4542110000000  0.5349410000000  0.4367870000000 1.0
C      1  0.4278470000000  0.4587450000000  0.5014020000000 1.0
C      1  0.4773030000000  0.5346930000000  0.5592180000000 1.0
C      1  0.5101260000000  0.4726590000000  0.5702980000000 1.0
C      1  0.5611020000000  0.5233520000000  0.5285620000000 1.0
C      1  0.5527300000000  0.4739850000000  0.4631050000000 1.0
C      1  0.4891080000000  0.5277070000000  0.4345180000000 1.0
C      1  0.4369750000000  0.4731470000000  0.4714740000000 1.0
C      1  0.4527840000000  0.5252970000000  0.5344820000000 1.0
END
