TITL C-27130-3996-14 -0.000633414724327738 125000 -329.623092208286 0 0 60 (C1) n - 1
REM
REM in /home/nfs/bkarasulu/CARBON/AIRSS/Generating-Clusters/AIREBO/Higher-Symm/Only-C60
REM
REM
REM
REM
REM
REM ./C.cell (28575a23ae977d3b5fae324c64b13b57)
REM
REM compiler GCC version 9.2.1 20190827 (Red Hat 9.2.1-1)
REM options -cpp -mtune=generic -march=x86-64 -g -O0 -fpre-include=/usr/include/finclude/math-vector-fortran.h
REM seed -1181057635 -364407762 -61792433 -366867175 -1905370783 1271763971 -2137394996 371058419 -994701309 -926106420 2003495848 -854271601 1825447099 -1994954324 294356821 -1718053496 80177753 -117851784 -1932784360 1478669816 -335111959 1096302474 -948684680 -709296334 -2141764963 137917480 963761542 2040788715 -492759770 1623169037 306835367 80636321 -302422393
REM
CELL 1.54180   50.00000   50.00000   50.00000   90.00000   90.00000   90.00000
LATT -1
SFAC C  
C      1  0.4570340000000  0.5361730000000  0.5008560000000 1.0
C      1  0.5549720000000  0.4845380000000  0.4612070000000 1.0
C      1  0.4967040000000  0.4446320000000  0.5437290000000 1.0
C      1  0.5488180000000  0.5341910000000  0.5082120000000 1.0
C      1  0.5124190000000  0.4670690000000  0.4922950000000 1.0
C      1  0.4468170000000  0.4605190000000  0.5132410000000 1.0
C      1  0.4448870000000  0.4825900000000  0.5390490000000 1.0
C      1  0.4632860000000  0.5154100000000  0.4592360000000 1.0
C      1  0.5284760000000  0.5215240000000  0.5323340000000 1.0
C      1  0.5050580000000  0.4522610000000  0.4643560000000 1.0
C      1  0.5077340000000  0.5476100000000  0.5395620000000 1.0
C      1  0.4964890000000  0.5264440000000  0.4551890000000 1.0
C      1  0.4604110000000  0.4463650000000  0.4895820000000 1.0
C      1  0.5454780000000  0.5069520000000  0.4446170000000 1.0
C      1  0.4827500000000  0.5363700000000  0.5521360000000 1.0
C      1  0.5366210000000  0.4753350000000  0.5058940000000 1.0
C      1  0.5372540000000  0.5482260000000  0.4842100000000 1.0
C      1  0.4565490000000  0.5354800000000  0.5302460000000 1.0
C      1  0.4384150000000  0.5087220000000  0.5407980000000 1.0
C      1  0.4609660000000  0.4909960000000  0.4411780000000 1.0
C      1  0.5296140000000  0.4916960000000  0.5344390000000 1.0
C      1  0.5256680000000  0.5324310000000  0.4564180000000 1.0
C      1  0.5178440000000  0.4646300000000  0.5513890000000 1.0
C      1  0.4853850000000  0.4651350000000  0.4457570000000 1.0
C      1  0.4574550000000  0.5490580000000  0.5675230000000 1.0
C      1  0.5568740000000  0.5567010000000  0.4604690000000 1.0
C      1  0.5546420000000  0.4795840000000  0.5543530000000 1.0
C      1  0.5372610000000  0.5562330000000  0.4338060000000 1.0
C      1  0.5458580000000  0.4485220000000  0.5607110000000 1.0
C      1  0.4653660000000  0.4404430000000  0.4336620000000 1.0
C      1  0.4362460000000  0.5598620000000  0.5446970000000 1.0
C      1  0.4512320000000  0.4440290000000  0.4640620000000 1.0
C      1  0.5505890000000  0.4584040000000  0.5291640000000 1.0
C      1  0.4456870000000  0.4652100000000  0.4409050000000 1.0
C      1  0.4311990000000  0.5309120000000  0.5605030000000 1.0
C      1  0.5610590000000  0.5337550000000  0.4382880000000 1.0
C      1  0.4718870000000  0.4456130000000  0.5562810000000 1.0
C      1  0.5551800000000  0.4294670000000  0.4378680000000 1.0
C      1  0.5402750000000  0.5370940000000  0.5602370000000 1.0
C      1  0.5287380000000  0.4410460000000  0.4519140000000 1.0
C      1  0.5309170000000  0.5677790000000  0.5541150000000 1.0
C      1  0.4785130000000  0.5520330000000  0.4557470000000 1.0
C      1  0.4475870000000  0.4406240000000  0.5387870000000 1.0
C      1  0.4583190000000  0.5556850000000  0.4808200000000 1.0
C      1  0.5531660000000  0.5526440000000  0.5340700000000 1.0
C      1  0.4473980000000  0.5442600000000  0.4507550000000 1.0
C      1  0.4582390000000  0.4714890000000  0.5617730000000 1.0
C      1  0.5547720000000  0.4594270000000  0.4505870000000 1.0
C      1  0.5011440000000  0.5632830000000  0.5134300000000 1.0
C      1  0.4900240000000  0.4426640000000  0.4929390000000 1.0
C      1  0.5674320000000  0.5115380000000  0.4991660000000 1.0
C      1  0.5049100000000  0.4900070000000  0.5657720000000 1.0
C      1  0.4560600000000  0.5114600000000  0.4885600000000 1.0
C      1  0.4465100000000  0.4895840000000  0.4997090000000 1.0
C      1  0.5562790000000  0.4894240000000  0.4882980000000 1.0
C      1  0.4935920000000  0.4973230000000  0.4385010000000 1.0
C      1  0.4907970000000  0.5098630000000  0.5655070000000 1.0
C      1  0.5200330000000  0.5002720000000  0.4258870000000 1.0
C      1  0.5169000000000  0.5686050000000  0.4947070000000 1.0
C      1  0.4982090000000  0.4308070000000  0.5204980000000 1.0
END
