TITL C-27134-4977-182 0.000720302206433539 125000 -310.670332247436 0 0 60 (C1) n - 1
REM
REM in /home/nfs/bkarasulu/CARBON/AIRSS/Generating-Clusters/AIREBO/Higher-Symm/Only-C60
REM
REM
REM
REM
REM
REM ./C.cell (28575a23ae977d3b5fae324c64b13b57)
REM
REM compiler GCC version 9.2.1 20190827 (Red Hat 9.2.1-1)
REM options -cpp -mtune=generic -march=x86-64 -g -O0 -fpre-include=/usr/include/finclude/math-vector-fortran.h
REM seed 1025035854 692754332 -1735561828 340926025 -1147050725 1220954441 -1944415140 409369488 1407593690 1270617607 958636248 -1715469016 2094476391 707399096 721884545 1498751076 -715995860 933401530 -273602477 857021497 -2118178834 1682116975 -557097972 1511399915 1182780126 438670942 22398568 1967302168 528792438 -1156421520 1890824131 -2036327346 -1226308848
REM
CELL 1.54180   50.00000   50.00000   50.00000   90.00000   90.00000   90.00000
LATT -1
SFAC C  
C      1  0.5174730000000  0.4916010000000  0.4806570000000 1.0
C      1  0.4851580000000  0.5136960000000  0.5180390000000 1.0
C      1  0.5493820000000  0.5438130000000  0.4921260000000 1.0
C      1  0.4517220000000  0.4569150000000  0.5110310000000 1.0
C      1  0.5009510000000  0.5373430000000  0.4760590000000 1.0
C      1  0.5005210000000  0.4656480000000  0.5208290000000 1.0
C      1  0.4955680000000  0.4902070000000  0.4543590000000 1.0
C      1  0.5033910000000  0.5113790000000  0.5458060000000 1.0
C      1  0.5184110000000  0.4868520000000  0.5324340000000 1.0
C      1  0.4817710000000  0.5187340000000  0.4786360000000 1.0
C      1  0.4902570000000  0.5672640000000  0.4726410000000 1.0
C      1  0.5113950000000  0.4337790000000  0.5229430000000 1.0
C      1  0.5696990000000  0.5260280000000  0.5022200000000 1.0
C      1  0.4337580000000  0.4761720000000  0.4996200000000 1.0
C      1  0.5564780000000  0.4536830000000  0.5203220000000 1.0
C      1  0.4444270000000  0.5421100000000  0.4811290000000 1.0
C      1  0.5166110000000  0.4334160000000  0.4738400000000 1.0
C      1  0.4759300000000  0.5653240000000  0.5258050000000 1.0
C      1  0.4518320000000  0.5136790000000  0.4635040000000 1.0
C      1  0.5517700000000  0.4894440000000  0.5375960000000 1.0
C      1  0.5052180000000  0.5396860000000  0.5176330000000 1.0
C      1  0.4940880000000  0.4678900000000  0.4875120000000 1.0
C      1  0.5337470000000  0.4844050000000  0.4451280000000 1.0
C      1  0.4656720000000  0.5137520000000  0.5579800000000 1.0
C      1  0.4559350000000  0.4533920000000  0.4520270000000 1.0
C      1  0.5407730000000  0.5383370000000  0.5495490000000 1.0
C      1  0.4446620000000  0.4715210000000  0.4290440000000 1.0
C      1  0.5598120000000  0.5448370000000  0.5670910000000 1.0
C      1  0.4248410000000  0.4911240000000  0.5356060000000 1.0
C      1  0.5708780000000  0.4807610000000  0.4566340000000 1.0
C      1  0.4716770000000  0.4436060000000  0.4955680000000 1.0
C      1  0.5344760000000  0.5657900000000  0.5009580000000 1.0
C      1  0.5165190000000  0.5138210000000  0.4474260000000 1.0
C      1  0.4866770000000  0.4851330000000  0.5566600000000 1.0
C      1  0.4896450000000  0.5310570000000  0.4382900000000 1.0
C      1  0.5093240000000  0.4648930000000  0.5644450000000 1.0
C      1  0.4749160000000  0.4929460000000  0.4944230000000 1.0
C      1  0.5223440000000  0.5164350000000  0.5025260000000 1.0
C      1  0.5021980000000  0.4630680000000  0.4353260000000 1.0
C      1  0.4877730000000  0.5393330000000  0.5572400000000 1.0
C      1  0.4991990000000  0.4293700000000  0.4965330000000 1.0
C      1  0.5005280000000  0.5673760000000  0.5023830000000 1.0
C      1  0.5718350000000  0.4995220000000  0.5125230000000 1.0
C      1  0.4360660000000  0.5016510000000  0.4911280000000 1.0
C      1  0.4560180000000  0.5292900000000  0.4335870000000 1.0
C      1  0.5412530000000  0.4734380000000  0.5637310000000 1.0
C      1  0.4608090000000  0.5398360000000  0.5366740000000 1.0
C      1  0.5245690000000  0.4532470000000  0.4552200000000 1.0
C      1  0.4847430000000  0.4522930000000  0.4587730000000 1.0
C      1  0.5155190000000  0.5493220000000  0.5460000000000 1.0
C      1  0.5307060000000  0.4500370000000  0.5417970000000 1.0
C      1  0.4678660000000  0.5498060000000  0.4577320000000 1.0
C      1  0.5470320000000  0.4789070000000  0.4759440000000 1.0
C      1  0.4551450000000  0.5012950000000  0.5281460000000 1.0
C      1  0.5414100000000  0.5185210000000  0.5294720000000 1.0
C      1  0.4645720000000  0.4862740000000  0.4526010000000 1.0
C      1  0.4696130000000  0.4709630000000  0.5319130000000 1.0
C      1  0.5312440000000  0.5280960000000  0.4718490000000 1.0
C      1  0.4429560000000  0.5282450000000  0.5111900000000 1.0
C      1  0.5612380000000  0.4736340000000  0.5021490000000 1.0
END
