TITL C-27134-4977-120 -0.0046424461635397 125000 -334.000409470969 0 0 60 (C1) n - 1
REM
REM in /home/nfs/bkarasulu/CARBON/AIRSS/Generating-Clusters/AIREBO/Higher-Symm/Only-C60
REM
REM
REM
REM
REM
REM ./C.cell (28575a23ae977d3b5fae324c64b13b57)
REM
REM compiler GCC version 9.2.1 20190827 (Red Hat 9.2.1-1)
REM options -cpp -mtune=generic -march=x86-64 -g -O0 -fpre-include=/usr/include/finclude/math-vector-fortran.h
REM seed 845475770 1691378640 -1485985115 -768018443 1677112405 -366380910 797009796 1597766232 -641952367 -538009754 -2136181278 1804824556 150647493 911059001 -254777061 1825920310 -1386185585 1996130969 -509842296 37364213 2133081930 -1600002994 -124380374 -221555288 -1481532628 1189950827 -1623755727 -1091776302 793208874 139369674 787669516 6212867 -373037641
REM
CELL 1.54180   50.00000   50.00000   50.00000   90.00000   90.00000   90.00000
LATT -1
SFAC C  
C      1  0.4695590000000  0.5389280000000  0.5175220000000 1.0
C      1  0.4664430000000  0.4779940000000  0.5414510000000 1.0
C      1  0.4651620000000  0.4611770000000  0.4876860000000 1.0
C      1  0.4661920000000  0.5171180000000  0.4640660000000 1.0
C      1  0.4732250000000  0.5410750000000  0.4838880000000 1.0
C      1  0.4738520000000  0.4843230000000  0.4655780000000 1.0
C      1  0.4667880000000  0.4535440000000  0.5207820000000 1.0
C      1  0.4622950000000  0.5117490000000  0.5369080000000 1.0
C      1  0.5517100000000  0.5297870000000  0.5421500000000 1.0
C      1  0.5496470000000  0.4781380000000  0.5100500000000 1.0
C      1  0.5416710000000  0.4823780000000  0.4610020000000 1.0
C      1  0.5437250000000  0.5305830000000  0.4789490000000 1.0
C      1  0.5523120000000  0.5127440000000  0.4607230000000 1.0
C      1  0.5521130000000  0.4654860000000  0.4836130000000 1.0
C      1  0.5519450000000  0.4975910000000  0.5358270000000 1.0
C      1  0.5396140000000  0.5477360000000  0.5251310000000 1.0
C      1  0.5484490000000  0.5609320000000  0.4806800000000 1.0
C      1  0.5333020000000  0.5193900000000  0.5635440000000 1.0
C      1  0.5347820000000  0.4279820000000  0.5086600000000 1.0
C      1  0.5487670000000  0.4902820000000  0.4285590000000 1.0
C      1  0.5502170000000  0.5676600000000  0.5080970000000 1.0
C      1  0.5484730000000  0.5221660000000  0.4303450000000 1.0
C      1  0.5388730000000  0.4401050000000  0.4827380000000 1.0
C      1  0.5363620000000  0.4882160000000  0.5658760000000 1.0
C      1  0.5016400000000  0.5144290000000  0.5328730000000 1.0
C      1  0.5192250000000  0.4644740000000  0.5131300000000 1.0
C      1  0.5077130000000  0.4827640000000  0.4628070000000 1.0
C      1  0.5122070000000  0.5326050000000  0.4857380000000 1.0
C      1  0.5054410000000  0.5161370000000  0.4567110000000 1.0
C      1  0.5050290000000  0.4605670000000  0.4882190000000 1.0
C      1  0.5188850000000  0.4915380000000  0.5306760000000 1.0
C      1  0.5108490000000  0.5384270000000  0.5171270000000 1.0
C      1  0.5050160000000  0.5600880000000  0.5550720000000 1.0
C      1  0.5137400000000  0.4665490000000  0.5526160000000 1.0
C      1  0.5159910000000  0.4436590000000  0.4616320000000 1.0
C      1  0.5254810000000  0.5371350000000  0.4439790000000 1.0
C      1  0.5251510000000  0.5605290000000  0.4603110000000 1.0
C      1  0.5066000000000  0.4593330000000  0.4377740000000 1.0
C      1  0.5140380000000  0.4393940000000  0.5330750000000 1.0
C      1  0.5096500000000  0.5351440000000  0.5659210000000 1.0
C      1  0.4377100000000  0.4665530000000  0.5162650000000 1.0
C      1  0.4404300000000  0.4875100000000  0.4710290000000 1.0
C      1  0.4412120000000  0.5343750000000  0.4898490000000 1.0
C      1  0.4284840000000  0.5150380000000  0.5384580000000 1.0
C      1  0.4294210000000  0.4667310000000  0.4883650000000 1.0
C      1  0.4319290000000  0.4859750000000  0.5372530000000 1.0
C      1  0.4359060000000  0.5355110000000  0.5188120000000 1.0
C      1  0.4305420000000  0.5151850000000  0.4701910000000 1.0
C      1  0.4808020000000  0.5105430000000  0.4362130000000 1.0
C      1  0.4907060000000  0.5622140000000  0.5255900000000 1.0
C      1  0.4856940000000  0.4721510000000  0.5636370000000 1.0
C      1  0.4836270000000  0.4349830000000  0.4823410000000 1.0
C      1  0.4842660000000  0.5176220000000  0.5619350000000 1.0
C      1  0.4969080000000  0.5613960000000  0.4760660000000 1.0
C      1  0.4936390000000  0.4686980000000  0.4150560000000 1.0
C      1  0.4853870000000  0.4299620000000  0.5268650000000 1.0
C      1  0.4938760000000  0.5818880000000  0.5006990000000 1.0
C      1  0.4839310000000  0.4936390000000  0.5820060000000 1.0
C      1  0.4835290000000  0.4161440000000  0.5024180000000 1.0
C      1  0.4824220000000  0.4940290000000  0.4154640000000 1.0
END
