TITL C-27138-9601-132 0.000260552756989236 125000 -325.493994713499 0 0 60 (C3) n - 1
REM
REM in /home/nfs/bkarasulu/CARBON/AIRSS/Generating-Clusters/AIREBO/Higher-Symm/Only-C60
REM
REM
REM
REM
REM
REM ./C.cell (28575a23ae977d3b5fae324c64b13b57)
REM
REM compiler GCC version 9.2.1 20190827 (Red Hat 9.2.1-1)
REM options -cpp -mtune=generic -march=x86-64 -g -O0 -fpre-include=/usr/include/finclude/math-vector-fortran.h
REM seed -1075831882 -332722038 -611694388 -374574892 -1885442123 816702917 -806464764 -944403140 -437856249 114181442 650263485 -915476475 673093893 -999618072 1931036204 -1305832650 300056597 -883948016 752479695 -1100889035 -640686164 -28908366 -1472359706 -1028988348 945140920 119424799 -38516621 911567219 -743821224 1773921594 -1545822947 1969022181 2041256040
REM
CELL 1.54180   50.00000   50.00000   50.00000   90.00000   90.00000   90.00000
LATT -1
SFAC C  
C      1  0.4659450000000  0.5581940000000  0.5147370000000 1.0
C      1  0.5165040000000  0.4630190000000  0.5606530000000 1.0
C      1  0.5581930000000  0.5146430000000  0.4658050000000 1.0
C      1  0.5339940000000  0.5579990000000  0.4852810000000 1.0
C      1  0.4658040000000  0.4418070000000  0.4853560000000 1.0
C      1  0.5369810000000  0.4393470000000  0.5165050000000 1.0
C      1  0.4852810000000  0.4660060000000  0.4420010000000 1.0
C      1  0.5147370000000  0.5340550000000  0.4418060000000 1.0
C      1  0.4853560000000  0.5341960000000  0.5581930000000 1.0
C      1  0.4420010000000  0.5147190000000  0.5339940000000 1.0
C      1  0.5606520000000  0.4834950000000  0.5369820000000 1.0
C      1  0.4418060000000  0.4852630000000  0.4659440000000 1.0
C      1  0.5164810000000  0.5606460000000  0.4631100000000 1.0
C      1  0.5581950000000  0.4660150000000  0.5147250000000 1.0
C      1  0.4632110000000  0.5165760000000  0.5606600000000 1.0
C      1  0.4835350000000  0.5607970000000  0.5369000000000 1.0
C      1  0.4834240000000  0.4393400000000  0.4632120000000 1.0
C      1  0.5147240000000  0.4418050000000  0.5339850000000 1.0
C      1  0.4392030000000  0.4631000000000  0.4835340000000 1.0
C      1  0.4393540000000  0.5368900000000  0.5164800000000 1.0
C      1  0.5606610000000  0.5367880000000  0.4834250000000 1.0
C      1  0.5369010000000  0.5164650000000  0.4392040000000 1.0
C      1  0.5339840000000  0.4852750000000  0.5581950000000 1.0
C      1  0.4631100000000  0.4835200000000  0.4393540000000 1.0
C      1  0.5324650000000  0.4216130000000  0.4876110000000 1.0
C      1  0.4873660000000  0.5325450000000  0.4214450000000 1.0
C      1  0.4215230000000  0.4874210000000  0.5325560000000 1.0
C      1  0.4671990000000  0.4211170000000  0.5125700000000 1.0
C      1  0.5325570000000  0.5784770000000  0.5125800000000 1.0
C      1  0.4674560000000  0.5785560000000  0.4873650000000 1.0
C      1  0.5125700000000  0.5328010000000  0.5788830000000 1.0
C      1  0.4876100000000  0.4675340000000  0.5783870000000 1.0
C      1  0.5125800000000  0.4674440000000  0.4215230000000 1.0
C      1  0.5788830000000  0.4874300000000  0.4672000000000 1.0
C      1  0.4214450000000  0.5126360000000  0.4674550000000 1.0
C      1  0.5783870000000  0.5123890000000  0.5324660000000 1.0
C      1  0.4874470000000  0.4211440000000  0.5325010000000 1.0
C      1  0.4212770000000  0.5324350000000  0.4876520000000 1.0
C      1  0.5324270000000  0.4875970000000  0.4212080000000 1.0
C      1  0.5123640000000  0.4216560000000  0.4678870000000 1.0
C      1  0.5124040000000  0.5787920000000  0.5324270000000 1.0
C      1  0.4876530000000  0.5787230000000  0.4675660000000 1.0
C      1  0.5783440000000  0.5321130000000  0.5123650000000 1.0
C      1  0.5788550000000  0.4674980000000  0.4874490000000 1.0
C      1  0.4212070000000  0.4675740000000  0.5124030000000 1.0
C      1  0.4678860000000  0.4876360000000  0.5783440000000 1.0
C      1  0.4675660000000  0.5123480000000  0.4212770000000 1.0
C      1  0.5325010000000  0.5125520000000  0.5788560000000 1.0
C      1  0.5546070000000  0.4455830000000  0.4881080000000 1.0
C      1  0.4454060000000  0.5544690000000  0.4881170000000 1.0
C      1  0.4881070000000  0.4453930000000  0.5544170000000 1.0
C      1  0.5546120000000  0.4881200000000  0.4452290000000 1.0
C      1  0.5544170000000  0.5542420000000  0.5119090000000 1.0
C      1  0.4452280000000  0.4453890000000  0.5118800000000 1.0
C      1  0.5119080000000  0.4455830000000  0.4457580000000 1.0
C      1  0.4881180000000  0.5545950000000  0.4455310000000 1.0
C      1  0.5118800000000  0.5547710000000  0.5546120000000 1.0
C      1  0.4457580000000  0.4880920000000  0.5544170000000 1.0
C      1  0.4455310000000  0.5118830000000  0.4454050000000 1.0
C      1  0.5544170000000  0.5118920000000  0.5546080000000 1.0
END
