TITL C-27143-4867-187 -0.00484683499249381 125000 -337.765924285432 0 0 60 (C1) n - 1
REM
REM in /home/nfs/bkarasulu/CARBON/AIRSS/Generating-Clusters/AIREBO/Higher-Symm/Only-C60
REM
REM
REM
REM
REM
REM ./C.cell (28575a23ae977d3b5fae324c64b13b57)
REM
REM compiler GCC version 9.2.1 20190827 (Red Hat 9.2.1-1)
REM options -cpp -mtune=generic -march=x86-64 -g -O0 -fpre-include=/usr/include/finclude/math-vector-fortran.h
REM seed 928025313 598533492 -1548441071 -1524554585 -1164523513 -135322289 -1020227515 -543605669 956276024 373426065 -1485147854 -745117291 -1811025568 -954642430 -281050629 -1799271221 1856067102 -319421873 -673800555 -1939510282 -992296924 442672791 -281438819 -302950239 -1542942475 814144065 -996441428 1031585510 -1135155508 1871459018 358289725 1299541016 1573814380
REM
CELL 1.54180   50.00000   50.00000   50.00000   90.00000   90.00000   90.00000
LATT -1
SFAC C  
C      1  0.5074770000000  0.5679970000000  0.5568640000000 1.0
C      1  0.5628410000000  0.4272390000000  0.5108270000000 1.0
C      1  0.5461640000000  0.5725490000000  0.4651260000000 1.0
C      1  0.4766610000000  0.4287170000000  0.4441050000000 1.0
C      1  0.4434840000000  0.5729450000000  0.4796020000000 1.0
C      1  0.4644690000000  0.4314180000000  0.5514610000000 1.0
C      1  0.5171110000000  0.5259030000000  0.4370840000000 1.0
C      1  0.4540290000000  0.4832380000000  0.4576050000000 1.0
C      1  0.4396010000000  0.5186100000000  0.5249450000000 1.0
C      1  0.4910150000000  0.4802050000000  0.5684940000000 1.0
C      1  0.5517100000000  0.5191680000000  0.5361160000000 1.0
C      1  0.5604990000000  0.4737990000000  0.4741920000000 1.0
C      1  0.4411900000000  0.4990870000000  0.5038180000000 1.0
C      1  0.4719100000000  0.4986270000000  0.5527260000000 1.0
C      1  0.5332580000000  0.5004790000000  0.5483070000000 1.0
C      1  0.5573260000000  0.4950340000000  0.4965210000000 1.0
C      1  0.5274590000000  0.4998050000000  0.4476640000000 1.0
C      1  0.4699920000000  0.5076590000000  0.4463140000000 1.0
C      1  0.4763690000000  0.4596180000000  0.5451620000000 1.0
C      1  0.5134800000000  0.5472520000000  0.5388760000000 1.0
C      1  0.5520250000000  0.4548810000000  0.5013240000000 1.0
C      1  0.5312390000000  0.5456070000000  0.4611530000000 1.0
C      1  0.4757050000000  0.4570810000000  0.4560430000000 1.0
C      1  0.4528160000000  0.5484060000000  0.4899780000000 1.0
C      1  0.5034890000000  0.4296840000000  0.4822060000000 1.0
C      1  0.4867830000000  0.5688050000000  0.4852980000000 1.0
C      1  0.4840130000000  0.4295540000000  0.5090730000000 1.0
C      1  0.4871000000000  0.5692390000000  0.5185910000000 1.0
C      1  0.5166950000000  0.4290820000000  0.5121840000000 1.0
C      1  0.5159830000000  0.5666110000000  0.5006330000000 1.0
C      1  0.4465340000000  0.5082970000000  0.5508920000000 1.0
C      1  0.5215770000000  0.4917100000000  0.5712560000000 1.0
C      1  0.5698440000000  0.5067330000000  0.5176640000000 1.0
C      1  0.5516640000000  0.4865230000000  0.4465880000000 1.0
C      1  0.4856160000000  0.5210480000000  0.4282570000000 1.0
C      1  0.4308160000000  0.4909830000000  0.4798140000000 1.0
C      1  0.4556850000000  0.5407310000000  0.5166300000000 1.0
C      1  0.5096260000000  0.4615000000000  0.5480050000000 1.0
C      1  0.5363380000000  0.5403040000000  0.5247660000000 1.0
C      1  0.5358370000000  0.4509290000000  0.4721840000000 1.0
C      1  0.4991590000000  0.5488820000000  0.4533010000000 1.0
C      1  0.4571230000000  0.4611670000000  0.4832830000000 1.0
C      1  0.5107370000000  0.4920680000000  0.4725580000000 1.0
C      1  0.4826220000000  0.5050040000000  0.4767230000000 1.0
C      1  0.4713700000000  0.4925190000000  0.5032920000000 1.0
C      1  0.4873070000000  0.5049410000000  0.5270780000000 1.0
C      1  0.5162860000000  0.4922710000000  0.5234140000000 1.0
C      1  0.5276600000000  0.5037630000000  0.4960710000000 1.0
C      1  0.4883920000000  0.5863520000000  0.5455310000000 1.0
C      1  0.5423600000000  0.4123190000000  0.5160070000000 1.0
C      1  0.5380490000000  0.5839590000000  0.4867030000000 1.0
C      1  0.4920180000000  0.4137550000000  0.4582670000000 1.0
C      1  0.4656780000000  0.5904690000000  0.4736720000000 1.0
C      1  0.4688880000000  0.4152500000000  0.5320010000000 1.0
C      1  0.5248540000000  0.4594480000000  0.5210800000000 1.0
C      1  0.5286270000000  0.5358110000000  0.4936140000000 1.0
C      1  0.5060680000000  0.4613070000000  0.4699660000000 1.0
C      1  0.4783450000000  0.5378690000000  0.4738400000000 1.0
C      1  0.4720030000000  0.4601470000000  0.5114060000000 1.0
C      1  0.4870230000000  0.5356420000000  0.5238430000000 1.0
END
