TITL C-27143-4867-82 0.000621497533057737 125000 -363.500236472449 0 0 60 (C1) n - 1
REM
REM in /home/nfs/bkarasulu/CARBON/AIRSS/Generating-Clusters/AIREBO/Higher-Symm/Only-C60
REM
REM
REM
REM
REM
REM ./C.cell (28575a23ae977d3b5fae324c64b13b57)
REM
REM compiler GCC version 9.2.1 20190827 (Red Hat 9.2.1-1)
REM options -cpp -mtune=generic -march=x86-64 -g -O0 -fpre-include=/usr/include/finclude/math-vector-fortran.h
REM seed 825639181 -1086296622 2004984335 -144388902 1635775932 1923955876 1675428936 599613759 -647071920 -103595044 1320656470 -355912689 -1216806223 797118796 140440590 1548823645 1581098921 -1493830398 1214256724 -1605104989 1258126095 397829982 1690379513 1778679303 -1869113172 932781503 634839690 -1262620528 1090874900 -21641208 -672300790 -356623073 1648421711
REM
CELL 1.54180   50.00000   50.00000   50.00000   90.00000   90.00000   90.00000
LATT -1
SFAC C  
C      1  0.4750310000000  0.4759340000000  0.4394740000000 1.0
C      1  0.4744630000000  0.4411490000000  0.4736910000000 1.0
C      1  0.4393230000000  0.4752020000000  0.4719130000000 1.0
C      1  0.4790370000000  0.5198820000000  0.5557690000000 1.0
C      1  0.5042810000000  0.4738790000000  0.5696960000000 1.0
C      1  0.5229570000000  0.5240650000000  0.4397880000000 1.0
C      1  0.4759660000000  0.5564090000000  0.5230080000000 1.0
C      1  0.5195140000000  0.4444560000000  0.5244930000000 1.0
C      1  0.5228870000000  0.5585680000000  0.4739070000000 1.0
C      1  0.4432580000000  0.5207090000000  0.5222970000000 1.0
C      1  0.5602740000000  0.4770530000000  0.5230380000000 1.0
C      1  0.5572680000000  0.5243550000000  0.4741680000000 1.0
C      1  0.5228000000000  0.4761110000000  0.4406720000000 1.0
C      1  0.5217610000000  0.4426420000000  0.4761490000000 1.0
C      1  0.5568110000000  0.4762320000000  0.4756190000000 1.0
C      1  0.5286550000000  0.5249940000000  0.5577260000000 1.0
C      1  0.4810110000000  0.4610520000000  0.5837270000000 1.0
C      1  0.4746960000000  0.5241090000000  0.4390960000000 1.0
C      1  0.5239180000000  0.5583740000000  0.5217130000000 1.0
C      1  0.4716490000000  0.4402810000000  0.5217550000000 1.0
C      1  0.4748220000000  0.5576780000000  0.4746650000000 1.0
C      1  0.5605810000000  0.5262890000000  0.5214410000000 1.0
C      1  0.4385830000000  0.4734230000000  0.5199820000000 1.0
C      1  0.4393050000000  0.5233780000000  0.4738780000000 1.0
C      1  0.4869100000000  0.5460070000000  0.5472960000000 1.0
C      1  0.5482520000000  0.5496580000000  0.4831230000000 1.0
C      1  0.5635240000000  0.4896190000000  0.5485860000000 1.0
C      1  0.4847410000000  0.4509400000000  0.4491650000000 1.0
C      1  0.5130540000000  0.5491410000000  0.4489830000000 1.0
C      1  0.5075230000000  0.4531910000000  0.5474570000000 1.0
C      1  0.5454410000000  0.4535430000000  0.5152330000000 1.0
C      1  0.4511890000000  0.5462790000000  0.5133670000000 1.0
C      1  0.4485180000000  0.4496350000000  0.4812970000000 1.0
C      1  0.5477520000000  0.5141970000000  0.4496670000000 1.0
C      1  0.4496300000000  0.4856050000000  0.4477430000000 1.0
C      1  0.4564980000000  0.5079680000000  0.5444650000000 1.0
C      1  0.5157140000000  0.5485820000000  0.5470770000000 1.0
C      1  0.4500580000000  0.5476580000000  0.4847410000000 1.0
C      1  0.4535150000000  0.4801690000000  0.5428140000000 1.0
C      1  0.5131640000000  0.4513140000000  0.4504150000000 1.0
C      1  0.4843660000000  0.5490070000000  0.4491780000000 1.0
C      1  0.4738600000000  0.4569530000000  0.5504850000000 1.0
C      1  0.4465400000000  0.4483040000000  0.5096000000000 1.0
C      1  0.5492140000000  0.5504550000000  0.5116000000000 1.0
C      1  0.5461900000000  0.4521690000000  0.4864760000000 1.0
C      1  0.4495220000000  0.5142700000000  0.4485000000000 1.0
C      1  0.5475700000000  0.4857000000000  0.4503910000000 1.0
C      1  0.5539170000000  0.5168400000000  0.5476970000000 1.0
C      1  0.4960660000000  0.5238550000000  0.4962810000000 1.0
C      1  0.5121760000000  0.5030580000000  0.5287550000000 1.0
C      1  0.4970820000000  0.5030060000000  0.4731340000000 1.0
C      1  0.4962060000000  0.4748750000000  0.5013860000000 1.0
C      1  0.4719170000000  0.5045620000000  0.4914410000000 1.0
C      1  0.5259010000000  0.5004870000000  0.5088270000000 1.0
C      1  0.4406220000000  0.4983150000000  0.4968380000000 1.0
C      1  0.4992690000000  0.5558420000000  0.4982420000000 1.0
C      1  0.4967900000000  0.4444270000000  0.4991950000000 1.0
C      1  0.5571600000000  0.5009410000000  0.4990230000000 1.0
C      1  0.5051810000000  0.5019260000000  0.5603270000000 1.0
C      1  0.4987760000000  0.5002100000000  0.4415400000000 1.0
END
