TITL C-27133-8107-130 -0.000128351657971963 125000 -325.605852801213 0 0 60 (C2) n - 1
REM
REM in /home/nfs/bkarasulu/CARBON/AIRSS/Generating-Clusters/AIREBO/Higher-Symm/Only-C60
REM
REM
REM
REM
REM
REM ./C.cell (28575a23ae977d3b5fae324c64b13b57)
REM
REM compiler GCC version 9.2.1 20190827 (Red Hat 9.2.1-1)
REM options -cpp -mtune=generic -march=x86-64 -g -O0 -fpre-include=/usr/include/finclude/math-vector-fortran.h
REM seed -403361832 -1092453565 -1623713837 -1095697448 -1984369393 1924523126 -642242363 2054312898 1483348081 -376898095 2010770027 1045449753 550948812 711039784 -767222274 -1054171232 -1988768223 -901783758 1710110742 -1553566547 877278793 788419278 555900189 2120996556 -1078457035 -845152042 1381678854 -1211275784 1529043916 1288931414 -1664806773 -1857440712 -120664877
REM
CELL 1.54180   50.00000   50.00000   50.00000   90.00000   90.00000   90.00000
LATT -1
SFAC C  
C      1  0.5182720000000  0.4562870000000  0.5671950000000 1.0
C      1  0.5685580000000  0.5131110000000  0.4538870000000 1.0
C      1  0.4541570000000  0.5689340000000  0.5122590000000 1.0
C      1  0.5126990000000  0.5462330000000  0.4314260000000 1.0
C      1  0.4873110000000  0.5462310000000  0.5685740000000 1.0
C      1  0.4817190000000  0.4562970000000  0.4328020000000 1.0
C      1  0.5666850000000  0.4818560000000  0.5444230000000 1.0
C      1  0.4333100000000  0.4818710000000  0.4555790000000 1.0
C      1  0.4314440000000  0.5131200000000  0.5461140000000 1.0
C      1  0.4562030000000  0.4335700000000  0.4809830000000 1.0
C      1  0.5437850000000  0.4335620000000  0.5190120000000 1.0
C      1  0.5458570000000  0.5689280000000  0.4877450000000 1.0
C      1  0.5119140000000  0.5639720000000  0.4556040000000 1.0
C      1  0.5618240000000  0.4590050000000  0.5167560000000 1.0
C      1  0.4553840000000  0.5119560000000  0.5641400000000 1.0
C      1  0.5161630000000  0.4379720000000  0.5420810000000 1.0
C      1  0.4881010000000  0.5639720000000  0.5443980000000 1.0
C      1  0.4838260000000  0.4379800000000  0.4579150000000 1.0
C      1  0.5636210000000  0.5448240000000  0.4883200000000 1.0
C      1  0.4381680000000  0.4590160000000  0.4832430000000 1.0
C      1  0.4363880000000  0.5448340000000  0.5116840000000 1.0
C      1  0.4591100000000  0.4840920000000  0.4381590000000 1.0
C      1  0.5446180000000  0.5119520000000  0.4358610000000 1.0
C      1  0.5408840000000  0.4840800000000  0.5618410000000 1.0
C      1  0.4541550000000  0.4991620000000  0.5265310000000 1.0
C      1  0.5260670000000  0.4543730000000  0.4998750000000 1.0
C      1  0.4991370000000  0.5263720000000  0.4541240000000 1.0
C      1  0.4539770000000  0.4998730000000  0.4743700000000 1.0
C      1  0.5460230000000  0.4998630000000  0.5256310000000 1.0
C      1  0.5458450000000  0.4991580000000  0.4734700000000 1.0
C      1  0.5261630000000  0.5461380000000  0.5015670000000 1.0
C      1  0.4738490000000  0.5461400000000  0.4984430000000 1.0
C      1  0.4739250000000  0.4543760000000  0.5001210000000 1.0
C      1  0.5001620000000  0.4742280000000  0.5458190000000 1.0
C      1  0.4998340000000  0.4742330000000  0.4541800000000 1.0
C      1  0.5008650000000  0.5263670000000  0.5458740000000 1.0
C      1  0.4542950000000  0.5200690000000  0.4994200000000 1.0
C      1  0.5199960000000  0.4993060000000  0.4538550000000 1.0
C      1  0.4986300000000  0.4552200000000  0.5197930000000 1.0
C      1  0.4556150000000  0.4804620000000  0.5016480000000 1.0
C      1  0.5457100000000  0.5200620000000  0.5005830000000 1.0
C      1  0.5443810000000  0.4804560000000  0.4983510000000 1.0
C      1  0.5195450000000  0.5015550000000  0.5435170000000 1.0
C      1  0.4800030000000  0.4993040000000  0.5461460000000 1.0
C      1  0.4804540000000  0.5015610000000  0.4564820000000 1.0
C      1  0.4997450000000  0.5455340000000  0.4801460000000 1.0
C      1  0.5013630000000  0.4552220000000  0.4802030000000 1.0
C      1  0.5002580000000  0.5455290000000  0.5198520000000 1.0
C      1  0.4676270000000  0.5807480000000  0.5342110000000 1.0
C      1  0.5293920000000  0.4099010000000  0.5345680000000 1.0
C      1  0.5345380000000  0.5327630000000  0.4193920000000 1.0
C      1  0.5802700000000  0.5349990000000  0.4675410000000 1.0
C      1  0.5901040000000  0.4659130000000  0.5300280000000 1.0
C      1  0.4098890000000  0.4659310000000  0.4699730000000 1.0
C      1  0.4197370000000  0.5350120000000  0.5324610000000 1.0
C      1  0.4705930000000  0.4099090000000  0.4654250000000 1.0
C      1  0.4662740000000  0.4715570000000  0.4096250000000 1.0
C      1  0.5323900000000  0.5807430000000  0.4657930000000 1.0
C      1  0.4654690000000  0.5327650000000  0.5806080000000 1.0
C      1  0.5337190000000  0.4715440000000  0.5903730000000 1.0
END
