TITL C-27138-9601-167 0.00259529427804092 125000 -323.6916075381 0 0 60 (C1) n - 1
REM
REM in /home/nfs/bkarasulu/CARBON/AIRSS/Generating-Clusters/AIREBO/Higher-Symm/Only-C60
REM
REM
REM
REM
REM
REM ./C.cell (28575a23ae977d3b5fae324c64b13b57)
REM
REM compiler GCC version 9.2.1 20190827 (Red Hat 9.2.1-1)
REM options -cpp -mtune=generic -march=x86-64 -g -O0 -fpre-include=/usr/include/finclude/math-vector-fortran.h
REM seed 1979104189 406412377 -1375239597 741884823 145434965 754638674 1513673379 1879588082 1121858955 1386825598 1394651704 -1154063279 -1987538885 454539658 1002195553 -53670929 -1990871641 -665097403 -1959582674 980719571 1239103051 -2080068105 1354056539 513648296 1663336018 -649116327 -510969029 570727347 -284682080 1214030131 113810220 -1096950138 189152795
REM
CELL 1.54180   50.00000   50.00000   50.00000   90.00000   90.00000   90.00000
LATT -1
SFAC C  
C      1  0.5455880000000  0.4544180000000  0.5124750000000 1.0
C      1  0.5628170000000  0.5073000000000  0.5311550000000 1.0
C      1  0.4671480000000  0.4992290000000  0.4455000000000 1.0
C      1  0.4599350000000  0.4855120000000  0.4965990000000 1.0
C      1  0.5225520000000  0.5660020000000  0.5242000000000 1.0
C      1  0.5344100000000  0.5641760000000  0.4979840000000 1.0
C      1  0.5099740000000  0.4817770000000  0.4751050000000 1.0
C      1  0.4505610000000  0.5468440000000  0.5039290000000 1.0
C      1  0.4834800000000  0.4744960000000  0.5426760000000 1.0
C      1  0.5714530000000  0.5160080000000  0.4780280000000 1.0
C      1  0.5099820000000  0.4337150000000  0.4604730000000 1.0
C      1  0.5394270000000  0.4657980000000  0.4809790000000 1.0
C      1  0.4418690000000  0.5032950000000  0.4657070000000 1.0
C      1  0.5755900000000  0.5276860000000  0.5177920000000 1.0
C      1  0.4814550000000  0.5003070000000  0.4748190000000 1.0
C      1  0.4397910000000  0.4811720000000  0.5234520000000 1.0
C      1  0.5258050000000  0.5230070000000  0.4548280000000 1.0
C      1  0.4976470000000  0.5357920000000  0.5317270000000 1.0
C      1  0.4401510000000  0.5368780000000  0.5338380000000 1.0
C      1  0.5235380000000  0.4938620000000  0.4471490000000 1.0
C      1  0.4895570000000  0.4371050000000  0.4394800000000 1.0
C      1  0.4820230000000  0.5262090000000  0.5550700000000 1.0
C      1  0.4928410000000  0.5001240000000  0.5137860000000 1.0
C      1  0.4884420000000  0.4842340000000  0.5748740000000 1.0
C      1  0.5628400000000  0.4904760000000  0.4830270000000 1.0
C      1  0.4635580000000  0.5169130000000  0.5084760000000 1.0
C      1  0.4388930000000  0.5270700000000  0.4788360000000 1.0
C      1  0.4923350000000  0.5305190000000  0.4985440000000 1.0
C      1  0.4470590000000  0.4495890000000  0.4820500000000 1.0
C      1  0.4581210000000  0.4345260000000  0.5035840000000 1.0
C      1  0.5599200000000  0.5437890000000  0.4939210000000 1.0
C      1  0.4855390000000  0.4672310000000  0.5094940000000 1.0
C      1  0.4743930000000  0.4685200000000  0.4375170000000 1.0
C      1  0.5147250000000  0.5667650000000  0.4738320000000 1.0
C      1  0.4730820000000  0.5681270000000  0.5031170000000 1.0
C      1  0.4546660000000  0.4896890000000  0.5451460000000 1.0
C      1  0.4779100000000  0.5306280000000  0.4492360000000 1.0
C      1  0.4558510000000  0.5180170000000  0.5483720000000 1.0
C      1  0.4595140000000  0.4428830000000  0.4541730000000 1.0
C      1  0.5305350000000  0.4443340000000  0.5330240000000 1.0
C      1  0.4919910000000  0.5116850000000  0.5770560000000 1.0
C      1  0.5151380000000  0.4668290000000  0.5513160000000 1.0
C      1  0.4847750000000  0.5778060000000  0.4803670000000 1.0
C      1  0.5308550000000  0.4915860000000  0.5628370000000 1.0
C      1  0.4832370000000  0.4613750000000  0.4700430000000 1.0
C      1  0.4984710000000  0.5372690000000  0.4691640000000 1.0
C      1  0.5339390000000  0.4702630000000  0.4361910000000 1.0
C      1  0.4998980000000  0.4378430000000  0.5406890000000 1.0
C      1  0.5334770000000  0.5262070000000  0.4848690000000 1.0
C      1  0.4339200000000  0.4765350000000  0.4775820000000 1.0
C      1  0.5243850000000  0.5545240000000  0.4443060000000 1.0
C      1  0.5232980000000  0.4984060000000  0.5016010000000 1.0
C      1  0.5514870000000  0.4858510000000  0.5130910000000 1.0
C      1  0.4956330000000  0.4404310000000  0.4910700000000 1.0
C      1  0.5343260000000  0.5445530000000  0.5457360000000 1.0
C      1  0.5445140000000  0.5144910000000  0.5518620000000 1.0
C      1  0.5265820000000  0.5268130000000  0.5184660000000 1.0
C      1  0.4916490000000  0.5661550000000  0.5238030000000 1.0
C      1  0.5335410000000  0.4483700000000  0.4560400000000 1.0
C      1  0.4839120000000  0.4289890000000  0.5199350000000 1.0
END
