TITL C-27137-4574-103 0.00128858162753109 125000 -337.337618744574 0 0 60 (C1) n - 1
REM
REM in /home/nfs/bkarasulu/CARBON/AIRSS/Generating-Clusters/AIREBO/Higher-Symm/Only-C60
REM
REM
REM
REM
REM
REM ./C.cell (28575a23ae977d3b5fae324c64b13b57)
REM
REM compiler GCC version 9.2.1 20190827 (Red Hat 9.2.1-1)
REM options -cpp -mtune=generic -march=x86-64 -g -O0 -fpre-include=/usr/include/finclude/math-vector-fortran.h
REM seed -1176802886 -1407700718 -1025254723 420416995 -1473121303 -506406143 332854823 -2120630211 1681536227 -1584759906 -754021125 -2024834985 820333778 -447484609 1841816359 1396650117 219343775 -1321322007 -1293303938 -478689876 -213021611 -43894506 492965965 1685550262 573543247 862799319 1055490806 -1494908426 2017986548 337652326 986114619 1411797331 -751509688
REM
CELL 1.54180   50.00000   50.00000   50.00000   90.00000   90.00000   90.00000
LATT -1
SFAC C  
C      1  0.4720240000000  0.4421640000000  0.5362240000000 1.0
C      1  0.4701530000000  0.4467850000000  0.4560710000000 1.0
C      1  0.4678560000000  0.5277100000000  0.4390610000000 1.0
C      1  0.4686250000000  0.5632060000000  0.5028570000000 1.0
C      1  0.4680690000000  0.5177010000000  0.5593440000000 1.0
C      1  0.5248330000000  0.4514850000000  0.5442390000000 1.0
C      1  0.5267990000000  0.4453020000000  0.4636750000000 1.0
C      1  0.5257860000000  0.5164880000000  0.4373410000000 1.0
C      1  0.5262620000000  0.5639600000000  0.4963690000000 1.0
C      1  0.5244750000000  0.5248490000000  0.5590020000000 1.0
C      1  0.5103520000000  0.4919270000000  0.4321170000000 1.0
C      1  0.5124520000000  0.5618350000000  0.4712570000000 1.0
C      1  0.5103380000000  0.5482670000000  0.5504470000000 1.0
C      1  0.5102340000000  0.4680200000000  0.5617180000000 1.0
C      1  0.5123020000000  0.4325570000000  0.4851470000000 1.0
C      1  0.4783680000000  0.4897770000000  0.4334990000000 1.0
C      1  0.4788270000000  0.5652420000000  0.4714740000000 1.0
C      1  0.4769090000000  0.5491980000000  0.5535580000000 1.0
C      1  0.4773230000000  0.4647670000000  0.5611210000000 1.0
C      1  0.4784560000000  0.4335470000000  0.4856940000000 1.0
C      1  0.4401150000000  0.5129600000000  0.4821100000000 1.0
C      1  0.4367820000000  0.5237380000000  0.5142290000000 1.0
C      1  0.4221160000000  0.5041900000000  0.5277240000000 1.0
C      1  0.4338430000000  0.4793600000000  0.5201940000000 1.0
C      1  0.4378580000000  0.4803160000000  0.4915710000000 1.0
C      1  0.5690020000000  0.5232620000000  0.4831240000000 1.0
C      1  0.5710290000000  0.5215050000000  0.5164470000000 1.0
C      1  0.5658470000000  0.4901050000000  0.5271420000000 1.0
C      1  0.5692110000000  0.4713580000000  0.4997040000000 1.0
C      1  0.5701770000000  0.4910940000000  0.4726400000000 1.0
C      1  0.5471270000000  0.5124040000000  0.4602390000000 1.0
C      1  0.5468850000000  0.5406120000000  0.5022580000000 1.0
C      1  0.5453360000000  0.5146510000000  0.5376730000000 1.0
C      1  0.5452450000000  0.4636700000000  0.5222650000000 1.0
C      1  0.5469000000000  0.4665090000000  0.4748810000000 1.0
C      1  0.4605210000000  0.5020750000000  0.4584080000000 1.0
C      1  0.4623830000000  0.5374220000000  0.4822800000000 1.0
C      1  0.4621410000000  0.5312400000000  0.5287230000000 1.0
C      1  0.4595850000000  0.4730520000000  0.5337940000000 1.0
C      1  0.4596480000000  0.4618390000000  0.4839450000000 1.0
C      1  0.4856240000000  0.4611740000000  0.4381170000000 1.0
C      1  0.4858460000000  0.5466990000000  0.4458950000000 1.0
C      1  0.4839160000000  0.5646480000000  0.5256460000000 1.0
C      1  0.4830010000000  0.4962160000000  0.5684610000000 1.0
C      1  0.4874930000000  0.4304400000000  0.5161440000000 1.0
C      1  0.5158930000000  0.4583630000000  0.4394810000000 1.0
C      1  0.5157380000000  0.5439640000000  0.4423050000000 1.0
C      1  0.5139860000000  0.5681000000000  0.5229950000000 1.0
C      1  0.5130990000000  0.5006120000000  0.5711040000000 1.0
C      1  0.5177940000000  0.4333070000000  0.5188390000000 1.0
C      1  0.4864120000000  0.5237610000000  0.5111670000000 1.0
C      1  0.4838980000000  0.4936660000000  0.5252510000000 1.0
C      1  0.4856290000000  0.4706450000000  0.5016060000000 1.0
C      1  0.4872880000000  0.4880590000000  0.4724500000000 1.0
C      1  0.4889150000000  0.5204280000000  0.4792340000000 1.0
C      1  0.5196040000000  0.5253730000000  0.5036180000000 1.0
C      1  0.5169160000000  0.5036890000000  0.5262550000000 1.0
C      1  0.5172180000000  0.4755330000000  0.5132840000000 1.0
C      1  0.5191290000000  0.4795170000000  0.4824030000000 1.0
C      1  0.5204120000000  0.5096550000000  0.4761780000000 1.0
END
