TITL C-27140-5627-188 -0.000587695466565319 125000 -328.478040486428 0 0 60 (C1) n - 1
REM
REM in /home/nfs/bkarasulu/CARBON/AIRSS/Generating-Clusters/AIREBO/Higher-Symm/Only-C60
REM
REM
REM
REM
REM
REM ./C.cell (28575a23ae977d3b5fae324c64b13b57)
REM
REM compiler GCC version 9.2.1 20190827 (Red Hat 9.2.1-1)
REM options -cpp -mtune=generic -march=x86-64 -g -O0 -fpre-include=/usr/include/finclude/math-vector-fortran.h
REM seed -546421674 -1490953071 -1513927271 -1174868693 -767149239 -1602053579 -1186926520 970336159 -660701939 1730299602 -548536941 -1972631745 -258675031 -2097607988 286654469 -73925688 -1384802354 2084682186 -1288275604 -1992630245 -1694684898 -1365136890 2107824218 996650093 1274546649 -535311657 867059212 957497564 -144981951 699622909 1070761663 -1407647338 -1836704957
REM
CELL 1.54180   50.00000   50.00000   50.00000   90.00000   90.00000   90.00000
LATT -1
SFAC C  
C      1  0.4261980000000  0.4853960000000  0.4821060000000 1.0
C      1  0.5667810000000  0.4758110000000  0.4936220000000 1.0
C      1  0.4339020000000  0.4742580000000  0.5071210000000 1.0
C      1  0.5844700000000  0.4856200000000  0.5346190000000 1.0
C      1  0.4147720000000  0.5102490000000  0.5366090000000 1.0
C      1  0.5799010000000  0.5122970000000  0.5242120000000 1.0
C      1  0.4192120000000  0.5246020000000  0.5119880000000 1.0
C      1  0.5802560000000  0.5204000000000  0.4956470000000 1.0
C      1  0.4214270000000  0.5144820000000  0.4845420000000 1.0
C      1  0.5754640000000  0.4976760000000  0.4779760000000 1.0
C      1  0.4579420000000  0.5221950000000  0.5024220000000 1.0
C      1  0.5323510000000  0.5331870000000  0.4839080000000 1.0
C      1  0.4673440000000  0.5186050000000  0.4699170000000 1.0
C      1  0.5359690000000  0.5033610000000  0.4761830000000 1.0
C      1  0.4657960000000  0.4888810000000  0.4778910000000 1.0
C      1  0.5276170000000  0.4837630000000  0.4938410000000 1.0
C      1  0.4724260000000  0.4849980000000  0.5044140000000 1.0
C      1  0.5483810000000  0.4869910000000  0.5175600000000 1.0
C      1  0.4493390000000  0.4971520000000  0.5215830000000 1.0
C      1  0.5337260000000  0.5175430000000  0.5140660000000 1.0
C      1  0.4682900000000  0.4927190000000  0.5563930000000 1.0
C      1  0.5443970000000  0.5207240000000  0.5613890000000 1.0
C      1  0.4676190000000  0.5537730000000  0.5248050000000 1.0
C      1  0.5475510000000  0.5639290000000  0.5044680000000 1.0
C      1  0.4440190000000  0.5589490000000  0.4657150000000 1.0
C      1  0.5301560000000  0.5054740000000  0.4371360000000 1.0
C      1  0.4697970000000  0.4670040000000  0.4448700000000 1.0
C      1  0.5359300000000  0.4438960000000  0.4747190000000 1.0
C      1  0.4703070000000  0.4406610000000  0.5088870000000 1.0
C      1  0.5304750000000  0.4606140000000  0.5416240000000 1.0
C      1  0.5076510000000  0.4846450000000  0.5422020000000 1.0
C      1  0.4912970000000  0.5141290000000  0.5467950000000 1.0
C      1  0.5051940000000  0.5315460000000  0.5209650000000 1.0
C      1  0.4850660000000  0.5448780000000  0.4970060000000 1.0
C      1  0.5032040000000  0.5362430000000  0.4696120000000 1.0
C      1  0.4915050000000  0.5103570000000  0.4509120000000 1.0
C      1  0.5104140000000  0.4820920000000  0.4520650000000 1.0
C      1  0.4924630000000  0.4563250000000  0.4656380000000 1.0
C      1  0.5112440000000  0.4559290000000  0.4940000000000 1.0
C      1  0.4914440000000  0.4641550000000  0.5204210000000 1.0
C      1  0.4394890000000  0.5466840000000  0.5171210000000 1.0
C      1  0.5631780000000  0.5426200000000  0.4903940000000 1.0
C      1  0.4387200000000  0.5310070000000  0.4685120000000 1.0
C      1  0.5575210000000  0.4999750000000  0.4523900000000 1.0
C      1  0.4442490000000  0.4729170000000  0.4602400000000 1.0
C      1  0.5614960000000  0.4495630000000  0.4852020000000 1.0
C      1  0.4431620000000  0.4481690000000  0.5127430000000 1.0
C      1  0.5587460000000  0.4710100000000  0.5435710000000 1.0
C      1  0.4403250000000  0.5029630000000  0.5518020000000 1.0
C      1  0.5557160000000  0.5217930000000  0.5358410000000 1.0
C      1  0.4789060000000  0.5446240000000  0.5479510000000 1.0
C      1  0.5275770000000  0.5562380000000  0.5217600000000 1.0
C      1  0.4661310000000  0.5677300000000  0.4803950000000 1.0
C      1  0.5230580000000  0.5324600000000  0.4422510000000 1.0
C      1  0.4780070000000  0.4889420000000  0.4301260000000 1.0
C      1  0.5291550000000  0.4546940000000  0.4498840000000 1.0
C      1  0.4803420000000  0.4324000000000  0.4845390000000 1.0
C      1  0.5256810000000  0.4421210000000  0.5215210000000 1.0
C      1  0.4726080000000  0.4664660000000  0.5486380000000 1.0
C      1  0.5246390000000  0.5021110000000  0.5652690000000 1.0
END
