TITL C-27132-7279-17 -0.000225921913713628 125000 -297.435752729393 0 0 60 (S12) n - 1
REM
REM in /home/nfs/bkarasulu/CARBON/AIRSS/Generating-Clusters/AIREBO/Higher-Symm/Only-C60
REM
REM
REM
REM
REM
REM ./C.cell (28575a23ae977d3b5fae324c64b13b57)
REM
REM compiler GCC version 9.2.1 20190827 (Red Hat 9.2.1-1)
REM options -cpp -mtune=generic -march=x86-64 -g -O0 -fpre-include=/usr/include/finclude/math-vector-fortran.h
REM seed 487621635 -1232438796 -106064449 1678589981 -273547189 905394723 -220217285 -974701555 746972285 431025559 1111395782 1772083599 819366211 365157003 114310627 546164914 -718076995 761050389 1410415342 -313783775 1553108674 -1266756833 1538711119 -2145682194 781024304 1557686355 -1893349485 -553064983 -116137327 -793473716 1408815445 1317639301 -456774727
REM
CELL 1.54180   50.00000   50.00000   50.00000   90.00000   90.00000   90.00000
LATT -1
SFAC C  
C      1  0.5286050000000  0.5162550000000  0.5281930000000 1.0
C      1  0.5166740000000  0.5284450000000  0.4717420000000 1.0
C      1  0.5002280000000  0.5329640000000  0.5282660000000 1.0
C      1  0.4837410000000  0.5286010000000  0.4718080000000 1.0
C      1  0.4716230000000  0.5166420000000  0.5281950000000 1.0
C      1  0.4670300000000  0.5002230000000  0.4717350000000 1.0
C      1  0.4713400000000  0.4837110000000  0.5282670000000 1.0
C      1  0.4833530000000  0.4716220000000  0.4718070000000 1.0
C      1  0.4997790000000  0.4671010000000  0.5281930000000 1.0
C      1  0.5162860000000  0.4713420000000  0.4717320000000 1.0
C      1  0.5284390000000  0.4833210000000  0.5282640000000 1.0
C      1  0.5328940000000  0.4997800000000  0.4718060000000 1.0
C      1  0.5442520000000  0.5325580000000  0.4522640000000 1.0
C      1  0.5220490000000  0.5503140000000  0.5477450000000 1.0
C      1  0.4939680000000  0.5546750000000  0.4522030000000 1.0
C      1  0.4674470000000  0.5443380000000  0.5477950000000 1.0
C      1  0.4496770000000  0.5220480000000  0.4522630000000 1.0
C      1  0.4454050000000  0.4939330000000  0.5477480000000 1.0
C      1  0.4556590000000  0.4674430000000  0.4522030000000 1.0
C      1  0.4778830000000  0.4496340000000  0.5477930000000 1.0
C      1  0.5060630000000  0.4454030000000  0.4522570000000 1.0
C      1  0.5325560000000  0.4557470000000  0.5477410000000 1.0
C      1  0.5503590000000  0.4778870000000  0.4521980000000 1.0
C      1  0.5546800000000  0.5060230000000  0.5477920000000 1.0
C      1  0.5405510000000  0.5669760000000  0.5266170000000 1.0
C      1  0.5016350000000  0.5783080000000  0.4733900000000 1.0
C      1  0.4622950000000  0.5686280000000  0.5265890000000 1.0
C      1  0.4330470000000  0.5405580000000  0.4734120000000 1.0
C      1  0.4217230000000  0.5016270000000  0.5266230000000 1.0
C      1  0.4313620000000  0.4622620000000  0.4733910000000 1.0
C      1  0.4594220000000  0.4330270000000  0.5265880000000 1.0
C      1  0.4983510000000  0.4217420000000  0.4734030000000 1.0
C      1  0.5377310000000  0.4313950000000  0.5266110000000 1.0
C      1  0.5669970000000  0.4594310000000  0.4733800000000 1.0
C      1  0.5782910000000  0.4983410000000  0.5265840000000 1.0
C      1  0.5686020000000  0.5377020000000  0.4734080000000 1.0
C      1  0.4475460000000  0.4936140000000  0.4374510000000 1.0
C      1  0.4577790000000  0.4682440000000  0.5625530000000 1.0
C      1  0.4793420000000  0.4514710000000  0.4375060000000 1.0
C      1  0.5063810000000  0.4476400000000  0.5624910000000 1.0
C      1  0.5317490000000  0.4577790000000  0.4374440000000 1.0
C      1  0.5486170000000  0.4793070000000  0.5625480000000 1.0
C      1  0.5523530000000  0.5063860000000  0.4375070000000 1.0
C      1  0.5421580000000  0.5316990000000  0.5624930000000 1.0
C      1  0.5206900000000  0.5486150000000  0.4374530000000 1.0
C      1  0.4936160000000  0.5524440000000  0.5625530000000 1.0
C      1  0.4682920000000  0.5421510000000  0.4375080000000 1.0
C      1  0.4514730000000  0.5206550000000  0.5624960000000 1.0
C      1  0.5433120000000  0.4670690000000  0.4919520000000 1.0
C      1  0.5539450000000  0.4931140000000  0.5080250000000 1.0
C      1  0.5501310000000  0.5210260000000  0.4919940000000 1.0
C      1  0.5329010000000  0.5433130000000  0.5080180000000 1.0
C      1  0.5068680000000  0.5539720000000  0.4919550000000 1.0
C      1  0.4789940000000  0.5501570000000  0.5080280000000 1.0
C      1  0.4567240000000  0.5329000000000  0.4919990000000 1.0
C      1  0.4460400000000  0.5068340000000  0.5080220000000 1.0
C      1  0.4498210000000  0.4789560000000  0.4919610000000 1.0
C      1  0.4670660000000  0.4567250000000  0.5080290000000 1.0
C      1  0.4931440000000  0.4460730000000  0.4919940000000 1.0
C      1  0.5210610000000  0.4498520000000  0.5080140000000 1.0
END
