TITL C-27139-4854-172 0.000367539177155748 125000 -336.068483469831 0 0 60 (C1) n - 1
REM
REM in /home/nfs/bkarasulu/CARBON/AIRSS/Generating-Clusters/AIREBO/Higher-Symm/Only-C60
REM
REM
REM
REM
REM
REM ./C.cell (28575a23ae977d3b5fae324c64b13b57)
REM
REM compiler GCC version 9.2.1 20190827 (Red Hat 9.2.1-1)
REM options -cpp -mtune=generic -march=x86-64 -g -O0 -fpre-include=/usr/include/finclude/math-vector-fortran.h
REM seed 314257354 -1479127513 235072806 -1924060575 1212057542 1732274043 648462524 -397142083 -849433644 -1423853374 -810237892 717657829 -808699291 1425852133 -218902798 1122895050 -361620348 -1164550361 1513802212 1634898395 -1173972662 1409185208 767267341 825275090 -374731072 1466267667 -1790466653 -228388372 782862145 -81928752 1880264055 -508430198 1031335964
REM
CELL 1.54180   50.00000   50.00000   50.00000   90.00000   90.00000   90.00000
LATT -1
SFAC C  
C      1  0.5300500000000  0.5420090000000  0.5158170000000 1.0
C      1  0.5262260000000  0.5458060000000  0.4865390000000 1.0
C      1  0.5321690000000  0.4707260000000  0.5778820000000 1.0
C      1  0.5176110000000  0.4721900000000  0.4233030000000 1.0
C      1  0.4598950000000  0.4947890000000  0.4750080000000 1.0
C      1  0.4659740000000  0.4931510000000  0.5250940000000 1.0
C      1  0.5259190000000  0.4793360000000  0.5393480000000 1.0
C      1  0.5287880000000  0.4879360000000  0.4583230000000 1.0
C      1  0.4977000000000  0.5430390000000  0.5140680000000 1.0
C      1  0.4952800000000  0.5597870000000  0.4844900000000 1.0
C      1  0.5303680000000  0.4372570000000  0.5158380000000 1.0
C      1  0.5273920000000  0.4408290000000  0.4866070000000 1.0
C      1  0.4870460000000  0.5129360000000  0.5091690000000 1.0
C      1  0.4899480000000  0.5068080000000  0.4776130000000 1.0
C      1  0.4421870000000  0.5362540000000  0.5351790000000 1.0
C      1  0.4482980000000  0.5429040000000  0.4759390000000 1.0
C      1  0.5656250000000  0.5019090000000  0.4651620000000 1.0
C      1  0.5656170000000  0.5020680000000  0.5480280000000 1.0
C      1  0.4622370000000  0.5416130000000  0.4509670000000 1.0
C      1  0.4588340000000  0.5595470000000  0.5360350000000 1.0
C      1  0.4982650000000  0.4481550000000  0.5126580000000 1.0
C      1  0.4960500000000  0.4525420000000  0.4804940000000 1.0
C      1  0.4865150000000  0.5544600000000  0.5395600000000 1.0
C      1  0.4886110000000  0.5552440000000  0.4536470000000 1.0
C      1  0.5437460000000  0.5242210000000  0.4686810000000 1.0
C      1  0.5442660000000  0.5210270000000  0.5355790000000 1.0
C      1  0.5484620000000  0.4469050000000  0.5330810000000 1.0
C      1  0.5507610000000  0.4480050000000  0.4722810000000 1.0
C      1  0.4610460000000  0.4805220000000  0.4451050000000 1.0
C      1  0.4678310000000  0.4777810000000  0.5539220000000 1.0
C      1  0.5082990000000  0.4472350000000  0.5695650000000 1.0
C      1  0.4892090000000  0.4382330000000  0.4439420000000 1.0
C      1  0.5091790000000  0.5458580000000  0.4378100000000 1.0
C      1  0.5024000000000  0.5451730000000  0.5604740000000 1.0
C      1  0.4702670000000  0.4592780000000  0.5260970000000 1.0
C      1  0.4659910000000  0.4613370000000  0.4725210000000 1.0
C      1  0.4545420000000  0.5760590000000  0.5133500000000 1.0
C      1  0.4628640000000  0.5638370000000  0.4896020000000 1.0
C      1  0.5032940000000  0.5118710000000  0.5384970000000 1.0
C      1  0.4801470000000  0.5165120000000  0.4483750000000 1.0
C      1  0.4816120000000  0.4880840000000  0.5756040000000 1.0
C      1  0.4756360000000  0.4958970000000  0.4220750000000 1.0
C      1  0.5068420000000  0.4561570000000  0.5418060000000 1.0
C      1  0.5074120000000  0.4636360000000  0.4525320000000 1.0
C      1  0.4951380000000  0.4763730000000  0.4066100000000 1.0
C      1  0.4997290000000  0.4711400000000  0.5880650000000 1.0
C      1  0.5187640000000  0.4990250000000  0.5659140000000 1.0
C      1  0.5270880000000  0.5006030000000  0.4288660000000 1.0
C      1  0.5252930000000  0.5024340000000  0.5143460000000 1.0
C      1  0.5205570000000  0.5062520000000  0.4851500000000 1.0
C      1  0.5560270000000  0.4744570000000  0.4648160000000 1.0
C      1  0.5549880000000  0.4721130000000  0.5533480000000 1.0
C      1  0.4445200000000  0.5174470000000  0.4887830000000 1.0
C      1  0.4458810000000  0.5152340000000  0.5165900000000 1.0
C      1  0.4454050000000  0.4444020000000  0.4877090000000 1.0
C      1  0.4469140000000  0.4439900000000  0.5130050000000 1.0
C      1  0.5034150000000  0.5185950000000  0.4250910000000 1.0
C      1  0.4914350000000  0.5179530000000  0.5707720000000 1.0
C      1  0.5295350000000  0.5437530000000  0.5556500000000 1.0
C      1  0.5349010000000  0.5473050000000  0.4476160000000 1.0
END
