TITL C-27140-5627-168 0.000197332336704695 125000 -284.859340360931 0 0 60 (C1) n - 1
REM
REM in /home/nfs/bkarasulu/CARBON/AIRSS/Generating-Clusters/AIREBO/Higher-Symm/Only-C60
REM
REM
REM
REM
REM
REM ./C.cell (28575a23ae977d3b5fae324c64b13b57)
REM
REM compiler GCC version 9.2.1 20190827 (Red Hat 9.2.1-1)
REM options -cpp -mtune=generic -march=x86-64 -g -O0 -fpre-include=/usr/include/finclude/math-vector-fortran.h
REM seed -1557548775 12542363 -2146664645 -1969698386 2138751238 -749773420 903501669 -2010316575 1999325933 -2037453801 -267980005 75586373 815738594 -1719839533 840431422 -1118652805 1594590944 -739604301 1237637834 233090639 1200657187 -1449965522 1645887070 -376692952 2110767187 1258625664 306863771 -1806210737 1760909755 -331176558 -565301025 2142246920 -1239901204
REM
CELL 1.54180   50.00000   50.00000   50.00000   90.00000   90.00000   90.00000
LATT -1
SFAC C  
C      1  0.5361840000000  0.5209990000000  0.4550450000000 1.0
C      1  0.4557750000000  0.5217080000000  0.4679980000000 1.0
C      1  0.4636400000000  0.5230160000000  0.5457370000000 1.0
C      1  0.5438710000000  0.5201410000000  0.5313830000000 1.0
C      1  0.4993770000000  0.4871050000000  0.5613870000000 1.0
C      1  0.5618840000000  0.4844330000000  0.4985660000000 1.0
C      1  0.5000410000000  0.4844340000000  0.4410000000000 1.0
C      1  0.4383190000000  0.4833230000000  0.5003620000000 1.0
C      1  0.5624880000000  0.5540610000000  0.4955180000000 1.0
C      1  0.4958790000000  0.5492520000000  0.4358550000000 1.0
C      1  0.4373260000000  0.5534810000000  0.5054870000000 1.0
C      1  0.5053900000000  0.5503030000000  0.5637730000000 1.0
C      1  0.4859510000000  0.5060480000000  0.4570280000000 1.0
C      1  0.4471340000000  0.5064290000000  0.5183310000000 1.0
C      1  0.5128400000000  0.5067260000000  0.5429150000000 1.0
C      1  0.5518030000000  0.5074790000000  0.4820670000000 1.0
C      1  0.5247590000000  0.5333930000000  0.5562050000000 1.0
C      1  0.5609470000000  0.5376240000000  0.4743600000000 1.0
C      1  0.4757030000000  0.5331220000000  0.4429060000000 1.0
C      1  0.4393140000000  0.5366020000000  0.5262260000000 1.0
C      1  0.5691940000000  0.5268200000000  0.5501300000000 1.0
C      1  0.5556250000000  0.5280040000000  0.4305290000000 1.0
C      1  0.4315120000000  0.5297520000000  0.4480850000000 1.0
C      1  0.4451230000000  0.5311310000000  0.5707050000000 1.0
C      1  0.5054880000000  0.4609210000000  0.5567950000000 1.0
C      1  0.5524920000000  0.4605440000000  0.4896980000000 1.0
C      1  0.4919230000000  0.4587890000000  0.4467010000000 1.0
C      1  0.4484020000000  0.4582280000000  0.5064680000000 1.0
C      1  0.5261070000000  0.4416660000000  0.4798930000000 1.0
C      1  0.4907170000000  0.4429330000000  0.4767640000000 1.0
C      1  0.4787100000000  0.4431070000000  0.5095570000000 1.0
C      1  0.5071300000000  0.4436170000000  0.5292390000000 1.0
C      1  0.5103570000000  0.5605130000000  0.4786270000000 1.0
C      1  0.4818680000000  0.5606400000000  0.4914070000000 1.0
C      1  0.4893230000000  0.5620660000000  0.5216230000000 1.0
C      1  0.5176190000000  0.5599240000000  0.5087620000000 1.0
C      1  0.4799810000000  0.4141470000000  0.4683480000000 1.0
C      1  0.4697030000000  0.4132830000000  0.5168670000000 1.0
C      1  0.5218830000000  0.4173390000000  0.5311880000000 1.0
C      1  0.5339860000000  0.4149960000000  0.4756580000000 1.0
C      1  0.4567540000000  0.5507170000000  0.4852010000000 1.0
C      1  0.4833200000000  0.5507800000000  0.5461240000000 1.0
C      1  0.5426990000000  0.5500310000000  0.5152000000000 1.0
C      1  0.5171290000000  0.5491930000000  0.4544110000000 1.0
C      1  0.5339430000000  0.4688890000000  0.4553230000000 1.0
C      1  0.4539080000000  0.4698940000000  0.4660920000000 1.0
C      1  0.4661780000000  0.4706680000000  0.5464930000000 1.0
C      1  0.5454080000000  0.4694170000000  0.5381880000000 1.0
C      1  0.5127460000000  0.5066200000000  0.4750790000000 1.0
C      1  0.4708260000000  0.5056530000000  0.4939410000000 1.0
C      1  0.4860770000000  0.5087330000000  0.5245240000000 1.0
C      1  0.5278860000000  0.5040290000000  0.5060430000000 1.0
C      1  0.4377680000000  0.4931840000000  0.4723530000000 1.0
C      1  0.4706340000000  0.4945740000000  0.5630200000000 1.0
C      1  0.5597930000000  0.4905850000000  0.5259130000000 1.0
C      1  0.5286290000000  0.4922610000000  0.4385000000000 1.0
C      1  0.4850030000000  0.4752210000000  0.5188250000000 1.0
C      1  0.5189100000000  0.4731660000000  0.5172080000000 1.0
C      1  0.5152890000000  0.4737260000000  0.4833410000000 1.0
C      1  0.4813320000000  0.4745610000000  0.4850250000000 1.0
END
