TITL C-27131-4585-60 -0.000183843074468017 125000 -331.043121565028 0 0 60 (C1) n - 1
REM
REM in /home/nfs/bkarasulu/CARBON/AIRSS/Generating-Clusters/AIREBO/Higher-Symm/Only-C60
REM
REM
REM
REM
REM
REM ./C.cell (28575a23ae977d3b5fae324c64b13b57)
REM
REM compiler GCC version 9.2.1 20190827 (Red Hat 9.2.1-1)
REM options -cpp -mtune=generic -march=x86-64 -g -O0 -fpre-include=/usr/include/finclude/math-vector-fortran.h
REM seed 1816713732 -1048044735 -576311889 -1906455206 -1753723114 -397622398 57683685 819282418 -114891251 2123972628 -1094991367 1642678840 -970259085 1594878512 25210498 411008307 -1008935769 1306811848 607808890 675264236 84318760 1752559365 1574414215 646529155 -838476604 1093524699 -218166954 1770623444 -1675627741 -1553435894 -1299421945 92931890 425382329
REM
CELL 1.54180   50.00000   50.00000   50.00000   90.00000   90.00000   90.00000
LATT -1
SFAC C  
C      1  0.4255660000000  0.5131570000000  0.4511050000000 1.0
C      1  0.4706770000000  0.5483050000000  0.5559660000000 1.0
C      1  0.5083030000000  0.5670110000000  0.4695100000000 1.0
C      1  0.4418930000000  0.5025280000000  0.4736580000000 1.0
C      1  0.5381930000000  0.4770490000000  0.4563590000000 1.0
C      1  0.5253390000000  0.4852870000000  0.5544510000000 1.0
C      1  0.5343640000000  0.5674370000000  0.4705510000000 1.0
C      1  0.4614570000000  0.4914700000000  0.4990750000000 1.0
C      1  0.4198320000000  0.5356810000000  0.4701760000000 1.0
C      1  0.4906140000000  0.5279510000000  0.5571520000000 1.0
C      1  0.5482090000000  0.4499690000000  0.5157230000000 1.0
C      1  0.5216920000000  0.4636810000000  0.5709810000000 1.0
C      1  0.5831450000000  0.4980760000000  0.4891990000000 1.0
C      1  0.4399230000000  0.5352400000000  0.5185960000000 1.0
C      1  0.4829360000000  0.5713200000000  0.4874990000000 1.0
C      1  0.4874740000000  0.4944120000000  0.5183940000000 1.0
C      1  0.4400400000000  0.5391310000000  0.4899400000000 1.0
C      1  0.4689610000000  0.5719650000000  0.5111870000000 1.0
C      1  0.4578010000000  0.5541920000000  0.5308640000000 1.0
C      1  0.5181360000000  0.5136370000000  0.5618880000000 1.0
C      1  0.5224450000000  0.5337380000000  0.5240790000000 1.0
C      1  0.4683380000000  0.4364370000000  0.4666840000000 1.0
C      1  0.5421950000000  0.5259340000000  0.4641330000000 1.0
C      1  0.5889930000000  0.4973530000000  0.5209570000000 1.0
C      1  0.4517360000000  0.5093350000000  0.4355070000000 1.0
C      1  0.4794590000000  0.5117850000000  0.4828820000000 1.0
C      1  0.5614990000000  0.4625330000000  0.4617370000000 1.0
C      1  0.5305750000000  0.5077910000000  0.4484280000000 1.0
C      1  0.5328300000000  0.5524910000000  0.5075870000000 1.0
C      1  0.5205530000000  0.4435530000000  0.5877230000000 1.0
C      1  0.5869680000000  0.4717410000000  0.4800750000000 1.0
C      1  0.5210670000000  0.4381450000000  0.5071990000000 1.0
C      1  0.5656770000000  0.4505550000000  0.4912020000000 1.0
C      1  0.4796290000000  0.5547670000000  0.4575990000000 1.0
C      1  0.5776130000000  0.5279780000000  0.4984410000000 1.0
C      1  0.5600360000000  0.4358700000000  0.5372570000000 1.0
C      1  0.4758530000000  0.5244650000000  0.4425910000000 1.0
C      1  0.4283740000000  0.4895830000000  0.5020600000000 1.0
C      1  0.4235870000000  0.4608520000000  0.5121040000000 1.0
C      1  0.5451690000000  0.5175630000000  0.5417640000000 1.0
C      1  0.4370530000000  0.5081720000000  0.5259710000000 1.0
C      1  0.4929400000000  0.4551650000000  0.5154440000000 1.0
C      1  0.4607170000000  0.5036870000000  0.5679530000000 1.0
C      1  0.4687980000000  0.4688140000000  0.5310060000000 1.0
C      1  0.4522600000000  0.4935000000000  0.5440530000000 1.0
C      1  0.4979520000000  0.5027260000000  0.4565760000000 1.0
C      1  0.5038010000000  0.4514360000000  0.4561060000000 1.0
C      1  0.4661500000000  0.5360320000000  0.4795270000000 1.0
C      1  0.5688990000000  0.4933200000000  0.5393460000000 1.0
C      1  0.4977370000000  0.5211040000000  0.5285240000000 1.0
C      1  0.4581000000000  0.4818460000000  0.4309730000000 1.0
C      1  0.4643560000000  0.4542640000000  0.4471190000000 1.0
C      1  0.5403980000000  0.4817640000000  0.5248230000000 1.0
C      1  0.4427640000000  0.4508450000000  0.5256330000000 1.0
C      1  0.4887170000000  0.4760470000000  0.4414550000000 1.0
C      1  0.5173110000000  0.4845170000000  0.4778730000000 1.0
C      1  0.5514680000000  0.5114800000000  0.5089050000000 1.0
C      1  0.5132510000000  0.4798720000000  0.5062690000000 1.0
C      1  0.4948580000000  0.4392860000000  0.4856690000000 1.0
C      1  0.5553170000000  0.5461530000000  0.4844910000000 1.0
END
