TITL C-27136-4842-47 0.000377686739851075 125000 -336.80280247711 0 0 60 (C1) n - 1
REM
REM in /home/nfs/bkarasulu/CARBON/AIRSS/Generating-Clusters/AIREBO/Higher-Symm/Only-C60
REM
REM
REM
REM
REM
REM ./C.cell (28575a23ae977d3b5fae324c64b13b57)
REM
REM compiler GCC version 9.2.1 20190827 (Red Hat 9.2.1-1)
REM options -cpp -mtune=generic -march=x86-64 -g -O0 -fpre-include=/usr/include/finclude/math-vector-fortran.h
REM seed 1414660497 -2000721892 288884314 1267012717 -1568981270 -26363301 -816981994 -1761794679 1626112786 37127672 -1185764026 -1244313487 708476140 -438249762 1748563926 -1688011045 -1544647476 859229969 905045124 -1460988160 -905437993 701394937 424392206 -139229981 -1629794020 -608951072 336717565 -975210052 -407444169 -361441892 -1605586322 -206099449 -470512852
REM
CELL 1.54180   50.00000   50.00000   50.00000   90.00000   90.00000   90.00000
LATT -1
SFAC C  
C      1  0.4346040000000  0.5080840000000  0.5402940000000 1.0
C      1  0.5454020000000  0.4351210000000  0.5102190000000 1.0
C      1  0.5039410000000  0.5330240000000  0.4440670000000 1.0
C      1  0.5582200000000  0.5047090000000  0.4692960000000 1.0
C      1  0.4423650000000  0.4847710000000  0.4705120000000 1.0
C      1  0.5731340000000  0.4873460000000  0.5174260000000 1.0
C      1  0.4665530000000  0.4692780000000  0.4803920000000 1.0
C      1  0.5140880000000  0.5606310000000  0.4832720000000 1.0
C      1  0.4690170000000  0.5456590000000  0.5045850000000 1.0
C      1  0.4870760000000  0.5142670000000  0.5696780000000 1.0
C      1  0.5059900000000  0.4696510000000  0.5492840000000 1.0
C      1  0.4913120000000  0.4833490000000  0.4639140000000 1.0
C      1  0.4584470000000  0.4865490000000  0.5325230000000 1.0
C      1  0.5216840000000  0.5674890000000  0.5147730000000 1.0
C      1  0.5166510000000  0.4654450000000  0.4639920000000 1.0
C      1  0.5628400000000  0.4808750000000  0.4873760000000 1.0
C      1  0.4505340000000  0.5115860000000  0.4589880000000 1.0
C      1  0.5723210000000  0.5193380000000  0.5243090000000 1.0
C      1  0.4859630000000  0.5461870000000  0.4796370000000 1.0
C      1  0.5401560000000  0.4576380000000  0.4870010000000 1.0
C      1  0.4659310000000  0.4653180000000  0.5103370000000 1.0
C      1  0.4815200000000  0.4859980000000  0.5556150000000 1.0
C      1  0.5189950000000  0.5216980000000  0.5712990000000 1.0
C      1  0.4840810000000  0.5165630000000  0.4630190000000 1.0
C      1  0.4585830000000  0.5195160000000  0.5815160000000 1.0
C      1  0.5854870000000  0.4593420000000  0.5243830000000 1.0
C      1  0.5205950000000  0.5779900000000  0.4561240000000 1.0
C      1  0.5274680000000  0.5205840000000  0.4359380000000 1.0
C      1  0.4832420000000  0.4903420000000  0.4329080000000 1.0
C      1  0.5302340000000  0.4805980000000  0.5493250000000 1.0
C      1  0.4183070000000  0.4759490000000  0.4785170000000 1.0
C      1  0.5578260000000  0.5295850000000  0.4787560000000 1.0
C      1  0.4284380000000  0.5277640000000  0.5220980000000 1.0
C      1  0.4800340000000  0.5460600000000  0.5285220000000 1.0
C      1  0.5248990000000  0.4304810000000  0.5279490000000 1.0
C      1  0.4737710000000  0.4414210000000  0.4656980000000 1.0
C      1  0.4531870000000  0.4739710000000  0.5700710000000 1.0
C      1  0.5694400000000  0.5437860000000  0.5141980000000 1.0
C      1  0.5257730000000  0.4288070000000  0.4760450000000 1.0
C      1  0.5357110000000  0.4741830000000  0.4411210000000 1.0
C      1  0.4495830000000  0.5165940000000  0.4081740000000 1.0
C      1  0.5437600000000  0.5119400000000  0.5700980000000 1.0
C      1  0.4356560000000  0.5342470000000  0.4735540000000 1.0
C      1  0.5787420000000  0.4521830000000  0.4784110000000 1.0
C      1  0.4295000000000  0.4713310000000  0.5255860000000 1.0
C      1  0.4783980000000  0.4436540000000  0.5210490000000 1.0
C      1  0.5123190000000  0.5666110000000  0.5397710000000 1.0
C      1  0.4717910000000  0.5668260000000  0.4566240000000 1.0
C      1  0.5742040000000  0.4403320000000  0.5057740000000 1.0
C      1  0.4424300000000  0.5389820000000  0.5004990000000 1.0
C      1  0.5024700000000  0.4456610000000  0.5353990000000 1.0
C      1  0.4990050000000  0.5605460000000  0.4447200000000 1.0
C      1  0.4118650000000  0.4729900000000  0.5050210000000 1.0
C      1  0.5002950000000  0.4368290000000  0.4633750000000 1.0
C      1  0.5437780000000  0.5516610000000  0.4968130000000 1.0
C      1  0.4996160000000  0.5402680000000  0.5528050000000 1.0
C      1  0.4404290000000  0.5012400000000  0.5684270000000 1.0
C      1  0.5448890000000  0.5004640000000  0.4450960000000 1.0
C      1  0.4622130000000  0.5074280000000  0.4305030000000 1.0
C      1  0.5552420000000  0.4992590000000  0.5433250000000 1.0
END
