TITL C-27131-4585-158 0.00214914408780671 125000 -342.774947757362 0 0 60 (C1) n - 1
REM
REM in /home/nfs/bkarasulu/CARBON/AIRSS/Generating-Clusters/AIREBO/Higher-Symm/Only-C60
REM
REM
REM
REM
REM
REM ./C.cell (28575a23ae977d3b5fae324c64b13b57)
REM
REM compiler GCC version 9.2.1 20190827 (Red Hat 9.2.1-1)
REM options -cpp -mtune=generic -march=x86-64 -g -O0 -fpre-include=/usr/include/finclude/math-vector-fortran.h
REM seed 1636606309 1529012406 750008747 2064309695 -463221290 294701249 -1399050499 2086618927 -209075 -1724808690 1322409385 1078863718 66324743 380940220 186589173 467873310 -1442218640 -408674765 -143462831 -117082003 582888891 681246782 572264564 -1762775144 1804710366 -2029196484 643424784 -1409383330 -1765923605 -1684039766 319568643 -528059961 285083497
REM
CELL 1.54180   50.00000   50.00000   50.00000   90.00000   90.00000   90.00000
LATT -1
SFAC C  
C      1  0.5121490000000  0.5734130000000  0.5331330000000 1.0
C      1  0.4318300000000  0.5137470000000  0.5351590000000 1.0
C      1  0.4878200000000  0.4271240000000  0.5382470000000 1.0
C      1  0.5722870000000  0.4829970000000  0.5318340000000 1.0
C      1  0.5163230000000  0.4307680000000  0.5364400000000 1.0
C      1  0.4276750000000  0.4853260000000  0.5361370000000 1.0
C      1  0.4835870000000  0.5687430000000  0.5324790000000 1.0
C      1  0.5779220000000  0.5114250000000  0.5320250000000 1.0
C      1  0.4360350000000  0.4840840000000  0.4862890000000 1.0
C      1  0.5132670000000  0.4415490000000  0.4766760000000 1.0
C      1  0.5590810000000  0.5228910000000  0.4761350000000 1.0
C      1  0.4740120000000  0.5476750000000  0.4833160000000 1.0
C      1  0.4391860000000  0.5151390000000  0.4738490000000 1.0
C      1  0.5236280000000  0.5607080000000  0.4744200000000 1.0
C      1  0.5448010000000  0.4761910000000  0.4855430000000 1.0
C      1  0.4832360000000  0.4373440000000  0.4893110000000 1.0
C      1  0.4592310000000  0.5194250000000  0.5294900000000 1.0
C      1  0.4734580000000  0.4505810000000  0.5493570000000 1.0
C      1  0.5441680000000  0.4788600000000  0.5373000000000 1.0
C      1  0.5290070000000  0.5465120000000  0.5304260000000 1.0
C      1  0.4531080000000  0.4702620000000  0.5424880000000 1.0
C      1  0.4788850000000  0.5402210000000  0.5356350000000 1.0
C      1  0.5516720000000  0.5277980000000  0.5342520000000 1.0
C      1  0.5228750000000  0.4587470000000  0.5331770000000 1.0
C      1  0.4510160000000  0.4323840000000  0.4975460000000 1.0
C      1  0.5595420000000  0.4535900000000  0.4942480000000 1.0
C      1  0.5468010000000  0.5661190000000  0.4960610000000 1.0
C      1  0.4307310000000  0.5406960000000  0.4946890000000 1.0
C      1  0.4516980000000  0.5605530000000  0.4949110000000 1.0
C      1  0.5668630000000  0.5466970000000  0.4955490000000 1.0
C      1  0.5406490000000  0.4319410000000  0.4944330000000 1.0
C      1  0.4327480000000  0.4515930000000  0.4957600000000 1.0
C      1  0.5305840000000  0.4900020000000  0.5097740000000 1.0
C      1  0.5167030000000  0.5403700000000  0.5008010000000 1.0
C      1  0.4633730000000  0.5108970000000  0.4977320000000 1.0
C      1  0.4799550000000  0.4591210000000  0.5152170000000 1.0
C      1  0.5396040000000  0.5187540000000  0.5037590000000 1.0
C      1  0.5100130000000  0.4638410000000  0.5027040000000 1.0
C      1  0.4588700000000  0.4817700000000  0.5113730000000 1.0
C      1  0.4888190000000  0.5314580000000  0.5056420000000 1.0
C      1  0.4843600000000  0.5337240000000  0.4606720000000 1.0
C      1  0.4728570000000  0.4930620000000  0.4368640000000 1.0
C      1  0.5121920000000  0.4665920000000  0.4552790000000 1.0
C      1  0.5315530000000  0.5135990000000  0.4628670000000 1.0
C      1  0.4914950000000  0.4732420000000  0.4381790000000 1.0
C      1  0.4656480000000  0.5146000000000  0.4526970000000 1.0
C      1  0.5127060000000  0.5334590000000  0.4616510000000 1.0
C      1  0.5309720000000  0.4855210000000  0.4628840000000 1.0
C      1  0.4744870000000  0.4181190000000  0.5150030000000 1.0
C      1  0.5801920000000  0.4619390000000  0.5130920000000 1.0
C      1  0.5365540000000  0.5831420000000  0.5167670000000 1.0
C      1  0.4167530000000  0.5318000000000  0.5182980000000 1.0
C      1  0.4613120000000  0.5786940000000  0.5159390000000 1.0
C      1  0.5855070000000  0.5364730000000  0.5150590000000 1.0
C      1  0.5333470000000  0.4167120000000  0.5177640000000 1.0
C      1  0.4169090000000  0.4741270000000  0.5122450000000 1.0
C      1  0.5139770000000  0.4180620000000  0.4574670000000 1.0
C      1  0.5810900000000  0.5153720000000  0.4607020000000 1.0
C      1  0.5186940000000  0.5831280000000  0.4588490000000 1.0
C      1  0.4161830000000  0.5173160000000  0.4549340000000 1.0
END
