TITL C-27132-7279-193 -0.00594787931021187 125000 -343.435075063652 0 0 60 (C1) n - 1
REM
REM in /home/nfs/bkarasulu/CARBON/AIRSS/Generating-Clusters/AIREBO/Higher-Symm/Only-C60
REM
REM
REM
REM
REM
REM ./C.cell (28575a23ae977d3b5fae324c64b13b57)
REM
REM compiler GCC version 9.2.1 20190827 (Red Hat 9.2.1-1)
REM options -cpp -mtune=generic -march=x86-64 -g -O0 -fpre-include=/usr/include/finclude/math-vector-fortran.h
REM seed 829399404 -779501455 1789224674 -2112428510 -1814570486 -279061596 147421533 -789179625 1046997643 -1965794244 1372581126 -371255584 778383901 654936558 1830595511 1647315426 -483440194 123853575 1186260475 386059509 -1468990070 -247871183 -413260287 -1200078037 1326835993 -1657056993 384694919 -105841726 1859375496 143552337 -626647399 1316608407 776496375
REM
CELL 1.54180   50.00000   50.00000   50.00000   90.00000   90.00000   90.00000
LATT -1
SFAC C  
C      1  0.5424350000000  0.5026450000000  0.4841440000000 1.0
C      1  0.5324370000000  0.4756770000000  0.4876920000000 1.0
C      1  0.4764970000000  0.4810030000000  0.4760250000000 1.0
C      1  0.4672360000000  0.5069980000000  0.4752410000000 1.0
C      1  0.4974820000000  0.5462580000000  0.4823550000000 1.0
C      1  0.4003550000000  0.5337120000000  0.4706110000000 1.0
C      1  0.5520290000000  0.5890730000000  0.4663230000000 1.0
C      1  0.5553780000000  0.5107360000000  0.4142880000000 1.0
C      1  0.5249230000000  0.4039670000000  0.4883350000000 1.0
C      1  0.4570910000000  0.4147180000000  0.4551700000000 1.0
C      1  0.5546470000000  0.4557850000000  0.5346880000000 1.0
C      1  0.4689570000000  0.4413030000000  0.5364740000000 1.0
C      1  0.4290180000000  0.5078280000000  0.5175190000000 1.0
C      1  0.4821650000000  0.5747690000000  0.5255150000000 1.0
C      1  0.5592920000000  0.5414870000000  0.5342390000000 1.0
C      1  0.4520040000000  0.5049150000000  0.5424260000000 1.0
C      1  0.4838700000000  0.5476050000000  0.5543930000000 1.0
C      1  0.5345070000000  0.5266630000000  0.5616080000000 1.0
C      1  0.5306930000000  0.4722900000000  0.5618210000000 1.0
C      1  0.4788660000000  0.4517700000000  0.5652930000000 1.0
C      1  0.3760290000000  0.5417620000000  0.4761290000000 1.0
C      1  0.5756660000000  0.5999930000000  0.4693140000000 1.0
C      1  0.5529130000000  0.5055780000000  0.3887100000000 1.0
C      1  0.5172380000000  0.3807930000000  0.4978630000000 1.0
C      1  0.4469610000000  0.3907100000000  0.4579770000000 1.0
C      1  0.5734590000000  0.5376410000000  0.4781800000000 1.0
C      1  0.5514940000000  0.4571400000000  0.4485300000000 1.0
C      1  0.4898380000000  0.4739660000000  0.4304530000000 1.0
C      1  0.4576620000000  0.5188820000000  0.4298190000000 1.0
C      1  0.4873180000000  0.5697050000000  0.4431510000000 1.0
C      1  0.5205730000000  0.4565910000000  0.5347150000000 1.0
C      1  0.4623630000000  0.4610130000000  0.5174890000000 1.0
C      1  0.4550480000000  0.5296450000000  0.5190900000000 1.0
C      1  0.5074730000000  0.5528780000000  0.5319370000000 1.0
C      1  0.5464980000000  0.5099890000000  0.5354330000000 1.0
C      1  0.4497330000000  0.5168210000000  0.4555750000000 1.0
C      1  0.5037330000000  0.5643030000000  0.4639350000000 1.0
C      1  0.5578750000000  0.5180210000000  0.4680510000000 1.0
C      1  0.5389970000000  0.4539140000000  0.4723000000000 1.0
C      1  0.4783120000000  0.4646530000000  0.4530470000000 1.0
C      1  0.5576220000000  0.5134240000000  0.4406890000000 1.0
C      1  0.5329990000000  0.4283030000000  0.4811190000000 1.0
C      1  0.4686730000000  0.4386920000000  0.4545400000000 1.0
C      1  0.4240490000000  0.5242030000000  0.4630200000000 1.0
C      1  0.5278360000000  0.5779440000000  0.4658780000000 1.0
C      1  0.5257080000000  0.5065430000000  0.5120650000000 1.0
C      1  0.5115790000000  0.4751890000000  0.5115770000000 1.0
C      1  0.4833640000000  0.4703630000000  0.5012550000000 1.0
C      1  0.4757630000000  0.5256720000000  0.4972680000000 1.0
C      1  0.5068270000000  0.5307990000000  0.5098700000000 1.0
C      1  0.5117420000000  0.4863490000000  0.5764300000000 1.0
C      1  0.4839250000000  0.4787320000000  0.5723460000000 1.0
C      1  0.4694490000000  0.5025320000000  0.5655670000000 1.0
C      1  0.4865450000000  0.5250090000000  0.5701010000000 1.0
C      1  0.5132540000000  0.5152950000000  0.5756380000000 1.0
C      1  0.4426100000000  0.4788890000000  0.5242390000000 1.0
C      1  0.4611180000000  0.5544450000000  0.5350160000000 1.0
C      1  0.5336510000000  0.5529570000000  0.5461450000000 1.0
C      1  0.5547340000000  0.4837370000000  0.5470380000000 1.0
C      1  0.4994810000000  0.4377190000000  0.5443410000000 1.0
END
