TITL C-27143-4867-13 -0.00646889601214317 125000 -373.817184233001 0 0 60 (C2h) n - 1
REM
REM in /home/nfs/bkarasulu/CARBON/AIRSS/Generating-Clusters/AIREBO/Higher-Symm/Only-C60
REM
REM
REM
REM
REM
REM ./C.cell (28575a23ae977d3b5fae324c64b13b57)
REM
REM compiler GCC version 9.2.1 20190827 (Red Hat 9.2.1-1)
REM options -cpp -mtune=generic -march=x86-64 -g -O0 -fpre-include=/usr/include/finclude/math-vector-fortran.h
REM seed 1728900005 -2132925869 -1051679303 -725495946 -1762455894 -1476073289 -450360097 1996194683 2031360596 1298266597 1676764995 2122292146 -294966772 632261116 1269253572 -67042980 1853196668 -941953663 41389564 2140123926 -1731595663 -597000502 -888143322 989807154 2033648391 1853959624 -71346513 1959773615 -41987223 465780229 141729914 1623546975 -1583464888
REM
CELL 1.54180   50.00000   50.00000   50.00000   90.00000   90.00000   90.00000
LATT -1
SFAC C  
C      1  0.4587850000000  0.5179910000000  0.4472740000000 1.0
C      1  0.4594540000000  0.4616900000000  0.4618550000000 1.0
C      1  0.4564070000000  0.4498780000000  0.5176460000000 1.0
C      1  0.4562880000000  0.4904630000000  0.5574400000000 1.0
C      1  0.4549100000000  0.5446430000000  0.5421540000000 1.0
C      1  0.4586480000000  0.5595210000000  0.4871570000000 1.0
C      1  0.4560210000000  0.4903520000000  0.4480700000000 1.0
C      1  0.4557680000000  0.5450060000000  0.4636800000000 1.0
C      1  0.4547780000000  0.5584940000000  0.5183440000000 1.0
C      1  0.4590430000000  0.5180590000000  0.5584300000000 1.0
C      1  0.4593110000000  0.4628620000000  0.5420420000000 1.0
C      1  0.4595870000000  0.4477090000000  0.4858890000000 1.0
C      1  0.4754220000000  0.4467600000000  0.4386100000000 1.0
C      1  0.4740220000000  0.4241170000000  0.5144440000000 1.0
C      1  0.4760350000000  0.4745780000000  0.5761540000000 1.0
C      1  0.4763420000000  0.5535420000000  0.5632240000000 1.0
C      1  0.4784370000000  0.5840760000000  0.4849460000000 1.0
C      1  0.4758160000000  0.5285460000000  0.4227480000000 1.0
C      1  0.4752820000000  0.5535160000000  0.4404580000000 1.0
C      1  0.4760770000000  0.5813120000000  0.5154880000000 1.0
C      1  0.4789680000000  0.5283710000000  0.5807040000000 1.0
C      1  0.4765950000000  0.4468420000000  0.5631980000000 1.0
C      1  0.4756750000000  0.4202000000000  0.4842680000000 1.0
C      1  0.4735380000000  0.4749200000000  0.4271130000000 1.0
C      1  0.4997910000000  0.4340380000000  0.4453770000000 1.0
C      1  0.4976550000000  0.4201620000000  0.5294790000000 1.0
C      1  0.5008450000000  0.4858210000000  0.5839320000000 1.0
C      1  0.5002090000000  0.5659620000000  0.5546230000000 1.0
C      1  0.5023450000000  0.5798380000000  0.4705210000000 1.0
C      1  0.4991550000000  0.5141790000000  0.4160680000000 1.0
C      1  0.5000810000000  0.5659540000000  0.4461820000000 1.0
C      1  0.5000750000000  0.5800900000000  0.5303380000000 1.0
C      1  0.5029740000000  0.5138520000000  0.5839520000000 1.0
C      1  0.4999190000000  0.4340460000000  0.5538180000000 1.0
C      1  0.4999250000000  0.4199100000000  0.4696620000000 1.0
C      1  0.4970260000000  0.4861480000000  0.4160480000000 1.0
C      1  0.5259780000000  0.5758830000000  0.4855560000000 1.0
C      1  0.5239650000000  0.5254220000000  0.4238460000000 1.0
C      1  0.5236580000000  0.4464580000000  0.4367760000000 1.0
C      1  0.5215630000000  0.4159240000000  0.5150540000000 1.0
C      1  0.5241840000000  0.4714540000000  0.5772520000000 1.0
C      1  0.5245780000000  0.5532400000000  0.5613900000000 1.0
C      1  0.5239230000000  0.4186880000000  0.4845120000000 1.0
C      1  0.5210320000000  0.4716290000000  0.4192960000000 1.0
C      1  0.5234050000000  0.5531580000000  0.4368020000000 1.0
C      1  0.5243250000000  0.5798000000000  0.5157320000000 1.0
C      1  0.5264620000000  0.5250800000000  0.5728870000000 1.0
C      1  0.5247180000000  0.4464840000000  0.5595420000000 1.0
C      1  0.5405460000000  0.5383100000000  0.5381450000000 1.0
C      1  0.5435930000000  0.5501220000000  0.4823540000000 1.0
C      1  0.5437120000000  0.5095370000000  0.4425600000000 1.0
C      1  0.5450900000000  0.4553570000000  0.4578460000000 1.0
C      1  0.5413520000000  0.4404790000000  0.5128430000000 1.0
C      1  0.5412150000000  0.4820090000000  0.5527260000000 1.0
C      1  0.5442320000000  0.4549940000000  0.5363200000000 1.0
C      1  0.5452220000000  0.4415060000000  0.4816560000000 1.0
C      1  0.5409570000000  0.4819410000000  0.4415700000000 1.0
C      1  0.5406890000000  0.5371380000000  0.4579580000000 1.0
C      1  0.5404130000000  0.5522910000000  0.5141110000000 1.0
C      1  0.5439790000000  0.5096480000000  0.5519300000000 1.0
END
