TITL C-27132-7279-58 -0.000553741836026198 125000 -346.257833666787 0 0 60 (C1) n - 1
REM
REM in /home/nfs/bkarasulu/CARBON/AIRSS/Generating-Clusters/AIREBO/Higher-Symm/Only-C60
REM
REM
REM
REM
REM
REM ./C.cell (28575a23ae977d3b5fae324c64b13b57)
REM
REM compiler GCC version 9.2.1 20190827 (Red Hat 9.2.1-1)
REM options -cpp -mtune=generic -march=x86-64 -g -O0 -fpre-include=/usr/include/finclude/math-vector-fortran.h
REM seed -412572762 -383401351 1368296592 -193331752 212997730 1743254767 -1866379592 460485786 -1875517602 -1618982210 -2098046848 -2059389812 -1785672635 -50108197 572665753 938405150 -1050401022 -547006809 -319044687 691963031 1456261413 1798737608 -1526638900 -1344129925 -1001383564 -411638568 214699617 -38038418 62170608 -1337565072 -1128110723 1556624739 -755305008
REM
CELL 1.54180   50.00000   50.00000   50.00000   90.00000   90.00000   90.00000
LATT -1
SFAC C  
C      1  0.4558920000000  0.4951970000000  0.4323070000000 1.0
C      1  0.4239150000000  0.4882460000000  0.5163150000000 1.0
C      1  0.4968880000000  0.5086770000000  0.5708650000000 1.0
C      1  0.5687400000000  0.5137210000000  0.5151550000000 1.0
C      1  0.5350290000000  0.5213580000000  0.4329180000000 1.0
C      1  0.4481340000000  0.4906920000000  0.5568200000000 1.0
C      1  0.4353540000000  0.4759170000000  0.4690980000000 1.0
C      1  0.4829480000000  0.5244110000000  0.4291400000000 1.0
C      1  0.5701210000000  0.5014410000000  0.4666410000000 1.0
C      1  0.5384530000000  0.4857510000000  0.5615540000000 1.0
C      1  0.4882460000000  0.4749480000000  0.4746780000000 1.0
C      1  0.4729960000000  0.4841330000000  0.5036760000000 1.0
C      1  0.4962210000000  0.4950890000000  0.5234610000000 1.0
C      1  0.5237470000000  0.4866680000000  0.5053630000000 1.0
C      1  0.5148980000000  0.4914050000000  0.4724150000000 1.0
C      1  0.4724470000000  0.5194340000000  0.5223490000000 1.0
C      1  0.4707590000000  0.5142630000000  0.4886820000000 1.0
C      1  0.4958550000000  0.5264790000000  0.4750080000000 1.0
C      1  0.5266440000000  0.5205510000000  0.4854010000000 1.0
C      1  0.5292250000000  0.5172630000000  0.5191480000000 1.0
C      1  0.5257700000000  0.4118260000000  0.4880390000000 1.0
C      1  0.4851200000000  0.4451000000000  0.4820700000000 1.0
C      1  0.4597420000000  0.4380640000000  0.5212620000000 1.0
C      1  0.5053800000000  0.4396770000000  0.5552140000000 1.0
C      1  0.5367940000000  0.4034610000000  0.5358040000000 1.0
C      1  0.5291750000000  0.5493830000000  0.5244620000000 1.0
C      1  0.4822480000000  0.5474080000000  0.5299810000000 1.0
C      1  0.4798560000000  0.5847420000000  0.4938210000000 1.0
C      1  0.5184440000000  0.5912430000000  0.4600930000000 1.0
C      1  0.5505370000000  0.5621340000000  0.4791740000000 1.0
C      1  0.4793640000000  0.4400060000000  0.5464270000000 1.0
C      1  0.5211220000000  0.4167080000000  0.5535660000000 1.0
C      1  0.5350750000000  0.3977330000000  0.5092670000000 1.0
C      1  0.5045030000000  0.4258690000000  0.4793850000000 1.0
C      1  0.4594670000000  0.4404110000000  0.4937840000000 1.0
C      1  0.4979400000000  0.5964130000000  0.4773890000000 1.0
C      1  0.5349290000000  0.5683430000000  0.4574760000000 1.0
C      1  0.5482210000000  0.5626020000000  0.5106490000000 1.0
C      1  0.5071700000000  0.5488770000000  0.5433620000000 1.0
C      1  0.4741690000000  0.5700460000000  0.5158490000000 1.0
C      1  0.4209190000000  0.5159970000000  0.5257340000000 1.0
C      1  0.5151020000000  0.5298930000000  0.5637860000000 1.0
C      1  0.5716970000000  0.5429070000000  0.4979500000000 1.0
C      1  0.5235560000000  0.5467030000000  0.4423200000000 1.0
C      1  0.4400150000000  0.5174470000000  0.4436850000000 1.0
C      1  0.4373460000000  0.4494860000000  0.4774700000000 1.0
C      1  0.4950490000000  0.4992670000000  0.4252860000000 1.0
C      1  0.5701030000000  0.4790060000000  0.4837570000000 1.0
C      1  0.5169470000000  0.4646310000000  0.5590540000000 1.0
C      1  0.4521310000000  0.4593300000000  0.5467390000000 1.0
C      1  0.4995960000000  0.4874710000000  0.5524180000000 1.0
C      1  0.5569690000000  0.4896470000000  0.5071840000000 1.0
C      1  0.5195230000000  0.4974770000000  0.4404810000000 1.0
C      1  0.4700620000000  0.4798130000000  0.4496940000000 1.0
C      1  0.4483120000000  0.4763350000000  0.5196010000000 1.0
C      1  0.4961150000000  0.5393670000000  0.4497580000000 1.0
C      1  0.5571680000000  0.5228310000000  0.4780170000000 1.0
C      1  0.5355080000000  0.5119650000000  0.5504540000000 1.0
C      1  0.4475660000000  0.5114420000000  0.5386960000000 1.0
C      1  0.4447800000000  0.5032920000000  0.4698550000000 1.0
END
