TITL C-27142-7278-21 5.02219317516509e-06 125000 -334.619577943706 0 0 60 (C1) n - 1
REM
REM in /home/nfs/bkarasulu/CARBON/AIRSS/Generating-Clusters/AIREBO/Higher-Symm/Only-C60
REM
REM
REM
REM
REM
REM ./C.cell (28575a23ae977d3b5fae324c64b13b57)
REM
REM compiler GCC version 9.2.1 20190827 (Red Hat 9.2.1-1)
REM options -cpp -mtune=generic -march=x86-64 -g -O0 -fpre-include=/usr/include/finclude/math-vector-fortran.h
REM seed 893298958 -746725544 -1422883058 -734914982 -52526314 1120955668 1166132800 -1711568802 -827136571 644124108 -964812844 -85467037 1850201964 -434625529 -1463854992 1126475162 116640161 -1221576443 1411778342 -612806455 1401252273 1953510178 -1118493162 -1467079693 -821831268 -168297489 -30621808 1049989629 -1069977738 -258109247 -2115155255 869554047 865542570
REM
CELL 1.54180   50.00000   50.00000   50.00000   90.00000   90.00000   90.00000
LATT -1
SFAC C  
C      1  0.5206600000000  0.4440100000000  0.5545900000000 1.0
C      1  0.5255930000000  0.5370350000000  0.5684890000000 1.0
C      1  0.5302950000000  0.5533750000000  0.4752810000000 1.0
C      1  0.5201410000000  0.5019990000000  0.4256780000000 1.0
C      1  0.5250710000000  0.4323470000000  0.4634220000000 1.0
C      1  0.4874320000000  0.5293800000000  0.4624570000000 1.0
C      1  0.4977220000000  0.4752300000000  0.4640310000000 1.0
C      1  0.4930900000000  0.4586900000000  0.5147400000000 1.0
C      1  0.4950000000000  0.5034100000000  0.5447560000000 1.0
C      1  0.4980930000000  0.5442280000000  0.5101880000000 1.0
C      1  0.4967480000000  0.4553340000000  0.5451270000000 1.0
C      1  0.5007320000000  0.5318240000000  0.5562210000000 1.0
C      1  0.5039330000000  0.5617550000000  0.4860390000000 1.0
C      1  0.4938320000000  0.5176440000000  0.4351860000000 1.0
C      1  0.5009440000000  0.4452130000000  0.4694510000000 1.0
C      1  0.5698760000000  0.4755130000000  0.5174910000000 1.0
C      1  0.5708630000000  0.5058750000000  0.5297140000000 1.0
C      1  0.5784090000000  0.5266550000000  0.5055180000000 1.0
C      1  0.5765940000000  0.5087270000000  0.4771780000000 1.0
C      1  0.5698280000000  0.4780760000000  0.4850340000000 1.0
C      1  0.4886550000000  0.4778350000000  0.5599280000000 1.0
C      1  0.4924000000000  0.5524070000000  0.5388330000000 1.0
C      1  0.4832610000000  0.5604560000000  0.4656410000000 1.0
C      1  0.4942530000000  0.4837180000000  0.4346290000000 1.0
C      1  0.4895230000000  0.4369750000000  0.4937250000000 1.0
C      1  0.5415490000000  0.4612430000000  0.5594050000000 1.0
C      1  0.5468700000000  0.5457660000000  0.5531820000000 1.0
C      1  0.5563040000000  0.5569320000000  0.4680540000000 1.0
C      1  0.5454350000000  0.4982780000000  0.4332090000000 1.0
C      1  0.5441620000000  0.4329990000000  0.4831740000000 1.0
C      1  0.4751400000000  0.4778980000000  0.5836290000000 1.0
C      1  0.4790690000000  0.5752630000000  0.5453820000000 1.0
C      1  0.4658340000000  0.5776700000000  0.4544080000000 1.0
C      1  0.4784050000000  0.4682870000000  0.4182360000000 1.0
C      1  0.4754270000000  0.4141190000000  0.4984850000000 1.0
C      1  0.5474120000000  0.4845780000000  0.5404820000000 1.0
C      1  0.5524140000000  0.5332660000000  0.5254720000000 1.0
C      1  0.5760430000000  0.5414080000000  0.4763880000000 1.0
C      1  0.5502620000000  0.4930960000000  0.4630310000000 1.0
C      1  0.5470030000000  0.4588930000000  0.4992550000000 1.0
C      1  0.4365020000000  0.4717410000000  0.5088220000000 1.0
C      1  0.4400670000000  0.4985880000000  0.5269220000000 1.0
C      1  0.4256300000000  0.5187730000000  0.5082470000000 1.0
C      1  0.4332580000000  0.5124370000000  0.4783500000000 1.0
C      1  0.4250370000000  0.4819920000000  0.4823330000000 1.0
C      1  0.5207780000000  0.4978670000000  0.5271930000000 1.0
C      1  0.5255490000000  0.5251630000000  0.5122340000000 1.0
C      1  0.5143240000000  0.5236970000000  0.4799890000000 1.0
C      1  0.5221890000000  0.4930310000000  0.4766580000000 1.0
C      1  0.5190740000000  0.4749690000000  0.5048500000000 1.0
C      1  0.4155660000000  0.4669580000000  0.4632500000000 1.0
C      1  0.4235650000000  0.4480680000000  0.5221390000000 1.0
C      1  0.4282870000000  0.4967390000000  0.5548470000000 1.0
C      1  0.4141630000000  0.5408090000000  0.5161270000000 1.0
C      1  0.4187180000000  0.5260920000000  0.4587240000000 1.0
C      1  0.4637830000000  0.5139700000000  0.4763210000000 1.0
C      1  0.4737920000000  0.4851570000000  0.4799220000000 1.0
C      1  0.4683480000000  0.4766510000000  0.5091890000000 1.0
C      1  0.4713050000000  0.5046890000000  0.5252880000000 1.0
C      1  0.4757890000000  0.5252030000000  0.5034570000000 1.0
END
