TITL C-27132-7279-69 -0.000523451230436378 125000 -337.912730183402 0 0 60 (C1) n - 1
REM
REM in /home/nfs/bkarasulu/CARBON/AIRSS/Generating-Clusters/AIREBO/Higher-Symm/Only-C60
REM
REM
REM
REM
REM
REM ./C.cell (28575a23ae977d3b5fae324c64b13b57)
REM
REM compiler GCC version 9.2.1 20190827 (Red Hat 9.2.1-1)
REM options -cpp -mtune=generic -march=x86-64 -g -O0 -fpre-include=/usr/include/finclude/math-vector-fortran.h
REM seed 799754265 -1730209004 -550327996 -276968139 -1878128792 1555129225 -5183340 1781424870 211887994 1426980770 -433835444 -2113218652 -767888481 -901765475 -422613075 -559525757 1084983762 474154372 -1963000075 93812053 -834408554 971005228 554780725 -1908113106 -364431355 425295642 1728733540 -1262022753 81173921 -2090720614 1105307083 1347008431 -1775370420
REM
CELL 1.54180   50.00000   50.00000   50.00000   90.00000   90.00000   90.00000
LATT -1
SFAC C  
C      1  0.4799830000000  0.5554490000000  0.4934820000000 1.0
C      1  0.4886170000000  0.5209640000000  0.5650140000000 1.0
C      1  0.4804030000000  0.4580830000000  0.5364800000000 1.0
C      1  0.4891870000000  0.4461070000000  0.4611810000000 1.0
C      1  0.4842810000000  0.5138790000000  0.4437330000000 1.0
C      1  0.5445580000000  0.5228900000000  0.4510590000000 1.0
C      1  0.5427620000000  0.5474920000000  0.5102110000000 1.0
C      1  0.5490970000000  0.5084490000000  0.5492370000000 1.0
C      1  0.5406490000000  0.4539250000000  0.5225720000000 1.0
C      1  0.5511080000000  0.4624770000000  0.4684270000000 1.0
C      1  0.5383840000000  0.4303720000000  0.5024150000000 1.0
C      1  0.5338430000000  0.4749790000000  0.4429130000000 1.0
C      1  0.5310750000000  0.5495530000000  0.4637940000000 1.0
C      1  0.5399470000000  0.5550010000000  0.5403320000000 1.0
C      1  0.5304450000000  0.4831750000000  0.5608030000000 1.0
C      1  0.5455880000000  0.5366480000000  0.5597040000000 1.0
C      1  0.5260870000000  0.4583450000000  0.5498700000000 1.0
C      1  0.5462570000000  0.4336660000000  0.4765090000000 1.0
C      1  0.5291190000000  0.5006370000000  0.4349380000000 1.0
C      1  0.5331150000000  0.5642440000000  0.4863820000000 1.0
C      1  0.5244450000000  0.5026410000000  0.5264670000000 1.0
C      1  0.5198510000000  0.4762530000000  0.5111600000000 1.0
C      1  0.5265390000000  0.4819490000000  0.4815330000000 1.0
C      1  0.5248840000000  0.5122290000000  0.4766660000000 1.0
C      1  0.5202600000000  0.5253560000000  0.5060080000000 1.0
C      1  0.4666270000000  0.5186080000000  0.5231610000000 1.0
C      1  0.4553470000000  0.4893300000000  0.5183700000000 1.0
C      1  0.4659350000000  0.4749800000000  0.4907520000000 1.0
C      1  0.4541010000000  0.5009530000000  0.4777430000000 1.0
C      1  0.4501440000000  0.5220300000000  0.4950760000000 1.0
C      1  0.5505850000000  0.5423020000000  0.5860250000000 1.0
C      1  0.5005090000000  0.4469730000000  0.5524760000000 1.0
C      1  0.5521920000000  0.4134080000000  0.4590490000000 1.0
C      1  0.5037530000000  0.5074090000000  0.4242660000000 1.0
C      1  0.5339710000000  0.5915370000000  0.4880640000000 1.0
C      1  0.4182990000000  0.4633770000000  0.5785460000000 1.0
C      1  0.4178330000000  0.4283370000000  0.4600360000000 1.0
C      1  0.4209350000000  0.4942360000000  0.4128380000000 1.0
C      1  0.4178450000000  0.5789630000000  0.4583330000000 1.0
C      1  0.4206750000000  0.5479790000000  0.5725800000000 1.0
C      1  0.4901000000000  0.4681600000000  0.5118600000000 1.0
C      1  0.5122650000000  0.4603450000000  0.4594760000000 1.0
C      1  0.4973670000000  0.5253440000000  0.4660570000000 1.0
C      1  0.4909620000000  0.5349350000000  0.5083770000000 1.0
C      1  0.5100890000000  0.5063190000000  0.5570760000000 1.0
C      1  0.4530370000000  0.5492250000000  0.4855680000000 1.0
C      1  0.4649420000000  0.5264720000000  0.5516100000000 1.0
C      1  0.4553300000000  0.4709110000000  0.5406900000000 1.0
C      1  0.4642560000000  0.4521710000000  0.4718190000000 1.0
C      1  0.4584870000000  0.5045880000000  0.4498450000000 1.0
C      1  0.5695810000000  0.5391380000000  0.5051930000000 1.0
C      1  0.5756040000000  0.5019040000000  0.5430680000000 1.0
C      1  0.5682270000000  0.4604040000000  0.5253470000000 1.0
C      1  0.5776970000000  0.4707960000000  0.4707040000000 1.0
C      1  0.5713700000000  0.5254120000000  0.4446610000000 1.0
C      1  0.4403560000000  0.4408560000000  0.4648150000000 1.0
C      1  0.4387950000000  0.5005300000000  0.4309550000000 1.0
C      1  0.4345810000000  0.5649000000000  0.4727890000000 1.0
C      1  0.4418900000000  0.5362500000000  0.5626220000000 1.0
C      1  0.4358320000000  0.4661520000000  0.5592650000000 1.0
END
