TITL C-27144-3922-115 -0.00192972307708073 125000 -321.010677194546 0 0 60 (C1) n - 1
REM
REM in /home/nfs/bkarasulu/CARBON/AIRSS/Generating-Clusters/AIREBO/Higher-Symm/Only-C60
REM
REM
REM
REM
REM
REM ./C.cell (28575a23ae977d3b5fae324c64b13b57)
REM
REM compiler GCC version 9.2.1 20190827 (Red Hat 9.2.1-1)
REM options -cpp -mtune=generic -march=x86-64 -g -O0 -fpre-include=/usr/include/finclude/math-vector-fortran.h
REM seed -174651437 -2121738897 2015251337 -896030007 75575353 890482521 -535387715 -191184083 1048106121 1492909897 -2054251140 -815107512 439734850 -2140585091 -97615911 -591284949 132689118 1879030181 -956140259 -1206124085 -1638120719 -1400362476 -1178671638 320866981 -2035374478 1939364026 -1259974322 18229890 370720560 -27981565 -807674620 -1220484203 692719374
REM
CELL 1.54180   50.00000   50.00000   50.00000   90.00000   90.00000   90.00000
LATT -1
SFAC C  
C      1  0.4563630000000  0.5007990000000  0.5467610000000 1.0
C      1  0.5393260000000  0.5032280000000  0.4614610000000 1.0
C      1  0.4311270000000  0.5462710000000  0.5051240000000 1.0
C      1  0.5664250000000  0.5464040000000  0.5006510000000 1.0
C      1  0.5372760000000  0.4517200000000  0.5661540000000 1.0
C      1  0.4626860000000  0.4609780000000  0.4287900000000 1.0
C      1  0.5021820000000  0.5582220000000  0.5383880000000 1.0
C      1  0.4973630000000  0.5551860000000  0.4548240000000 1.0
C      1  0.4189090000000  0.4773550000000  0.5209110000000 1.0
C      1  0.5776150000000  0.4814610000000  0.4884910000000 1.0
C      1  0.5407210000000  0.5637210000000  0.4862180000000 1.0
C      1  0.4614550000000  0.5547600000000  0.5071570000000 1.0
C      1  0.4861580000000  0.4431070000000  0.4924700000000 1.0
C      1  0.5078820000000  0.4419590000000  0.5095300000000 1.0
C      1  0.5087860000000  0.5055670000000  0.4292720000000 1.0
C      1  0.5027260000000  0.5065810000000  0.5599000000000 1.0
C      1  0.5539910000000  0.4936450000000  0.5449730000000 1.0
C      1  0.4605930000000  0.5055200000000  0.4522390000000 1.0
C      1  0.5256430000000  0.5283940000000  0.4465890000000 1.0
C      1  0.4791000000000  0.5227760000000  0.5444630000000 1.0
C      1  0.4861170000000  0.5241580000000  0.4465050000000 1.0
C      1  0.5181260000000  0.5281840000000  0.5378950000000 1.0
C      1  0.4599120000000  0.4358820000000  0.5034500000000 1.0
C      1  0.5331240000000  0.4325650000000  0.5006990000000 1.0
C      1  0.4373700000000  0.4688290000000  0.5024230000000 1.0
C      1  0.5575360000000  0.4727650000000  0.5056460000000 1.0
C      1  0.5530070000000  0.4460160000000  0.5164870000000 1.0
C      1  0.4493970000000  0.4546240000000  0.4780620000000 1.0
C      1  0.4816100000000  0.4829020000000  0.5326200000000 1.0
C      1  0.5166640000000  0.4802870000000  0.4722580000000 1.0
C      1  0.4640990000000  0.4735080000000  0.4538140000000 1.0
C      1  0.5404250000000  0.4652520000000  0.5416200000000 1.0
C      1  0.4961120000000  0.4756410000000  0.5625250000000 1.0
C      1  0.5150360000000  0.4792580000000  0.4383030000000 1.0
C      1  0.4250470000000  0.5352150000000  0.4804190000000 1.0
C      1  0.5672590000000  0.5387950000000  0.5271330000000 1.0
C      1  0.4677270000000  0.4805710000000  0.5023580000000 1.0
C      1  0.5294750000000  0.4849930000000  0.5024420000000 1.0
C      1  0.5357900000000  0.4315550000000  0.4718400000000 1.0
C      1  0.4596000000000  0.4349620000000  0.5323990000000 1.0
C      1  0.4859880000000  0.4703080000000  0.4780000000000 1.0
C      1  0.5116820000000  0.4695590000000  0.5239740000000 1.0
C      1  0.4254840000000  0.4982540000000  0.5364680000000 1.0
C      1  0.5706660000000  0.5005180000000  0.4709060000000 1.0
C      1  0.5068640000000  0.5663580000000  0.4843180000000 1.0
C      1  0.4927380000000  0.5667060000000  0.5081860000000 1.0
C      1  0.5286220000000  0.5482170000000  0.5124380000000 1.0
C      1  0.4798800000000  0.5369870000000  0.4847770000000 1.0
C      1  0.5300610000000  0.4538100000000  0.4556520000000 1.0
C      1  0.4756980000000  0.4530610000000  0.5464800000000 1.0
C      1  0.5243680000000  0.5168320000000  0.5000700000000 1.0
C      1  0.4644880000000  0.5119210000000  0.5009340000000 1.0
C      1  0.4711700000000  0.5525770000000  0.5381580000000 1.0
C      1  0.5311820000000  0.5587100000000  0.4545720000000 1.0
C      1  0.5499490000000  0.5201630000000  0.5408410000000 1.0
C      1  0.4445520000000  0.5155350000000  0.4736290000000 1.0
C      1  0.4437320000000  0.5232020000000  0.5240670000000 1.0
C      1  0.5526300000000  0.5252530000000  0.4831450000000 1.0
C      1  0.4944410000000  0.5170070000000  0.5162070000000 1.0
C      1  0.5060490000000  0.5214040000000  0.4739130000000 1.0
END
