TITL C-27141-4733-6 -0.000615807117954291 125000 -327.070583673847 0 0 60 (C1) n - 1
REM
REM in /home/nfs/bkarasulu/CARBON/AIRSS/Generating-Clusters/AIREBO/Higher-Symm/Only-C60
REM
REM
REM
REM
REM
REM ./C.cell (28575a23ae977d3b5fae324c64b13b57)
REM
REM compiler GCC version 9.2.1 20190827 (Red Hat 9.2.1-1)
REM options -cpp -mtune=generic -march=x86-64 -g -O0 -fpre-include=/usr/include/finclude/math-vector-fortran.h
REM seed 1967673596 -2038696330 -4088734 -221282899 -951355636 4553380 1950490348 370055494 -1200759130 1383162619 -950326265 773465608 1427702757 -13921032 1097227876 -1838431673 1537819250 -402373736 -831680165 785970666 -826064512 -975083976 453862884 -1010456569 -1106627637 1691195945 -1477325835 3435227 -1701735801 -1002941468 110704841 -128867199 107477642
REM
CELL 1.54180   50.00000   50.00000   50.00000   90.00000   90.00000   90.00000
LATT -1
SFAC C  
C      1  0.4743950000000  0.4750070000000  0.5403580000000 1.0
C      1  0.5543610000000  0.4710630000000  0.4788110000000 1.0
C      1  0.4743940000000  0.5506820000000  0.4656060000000 1.0
C      1  0.5232770000000  0.4797670000000  0.4433870000000 1.0
C      1  0.4683240000000  0.5249270000000  0.4363500000000 1.0
C      1  0.5332800000000  0.5325150000000  0.5629930000000 1.0
C      1  0.4543120000000  0.4629230000000  0.5082010000000 1.0
C      1  0.5606120000000  0.5296550000000  0.5205220000000 1.0
C      1  0.4594560000000  0.5230910000000  0.4899760000000 1.0
C      1  0.5220780000000  0.5388980000000  0.5254300000000 1.0
C      1  0.4670850000000  0.4276500000000  0.5210060000000 1.0
C      1  0.5208910000000  0.4416490000000  0.4737190000000 1.0
C      1  0.4794290000000  0.5295890000000  0.5563920000000 1.0
C      1  0.5483520000000  0.5280720000000  0.4883030000000 1.0
C      1  0.4826300000000  0.4579310000000  0.4756450000000 1.0
C      1  0.5212380000000  0.5174400000000  0.4610520000000 1.0
C      1  0.4643710000000  0.4826530000000  0.4504170000000 1.0
C      1  0.5372560000000  0.4893670000000  0.5455880000000 1.0
C      1  0.4453260000000  0.5255910000000  0.5206980000000 1.0
C      1  0.5458390000000  0.4704940000000  0.5115680000000 1.0
C      1  0.4405690000000  0.4665910000000  0.4779750000000 1.0
C      1  0.5207910000000  0.4539250000000  0.5373610000000 1.0
C      1  0.4794440000000  0.5621710000000  0.5223330000000 1.0
C      1  0.5294070000000  0.5561350000000  0.4668050000000 1.0
C      1  0.5173670000000  0.5580120000000  0.5533930000000 1.0
C      1  0.5575640000000  0.5230270000000  0.5527610000000 1.0
C      1  0.5466170000000  0.5590180000000  0.5132140000000 1.0
C      1  0.4900090000000  0.5494490000000  0.4366490000000 1.0
C      1  0.5118460000000  0.4521720000000  0.4490270000000 1.0
C      1  0.4741440000000  0.4437880000000  0.5450800000000 1.0
C      1  0.4485030000000  0.5185520000000  0.4580630000000 1.0
C      1  0.5494030000000  0.4858770000000  0.4511080000000 1.0
C      1  0.4528570000000  0.4921920000000  0.5569220000000 1.0
C      1  0.4507210000000  0.5626640000000  0.4852520000000 1.0
C      1  0.5487540000000  0.4387110000000  0.4882240000000 1.0
C      1  0.4531410000000  0.4194460000000  0.4974560000000 1.0
C      1  0.4997360000000  0.4374060000000  0.5543090000000 1.0
C      1  0.5615320000000  0.4942390000000  0.5616260000000 1.0
C      1  0.5469000000000  0.4382120000000  0.5213410000000 1.0
C      1  0.4819090000000  0.4547830000000  0.4417980000000 1.0
C      1  0.5172330000000  0.5449600000000  0.4420860000000 1.0
C      1  0.4884390000000  0.5558910000000  0.5479450000000 1.0
C      1  0.4327540000000  0.4920340000000  0.4571310000000 1.0
C      1  0.5549750000000  0.5156400000000  0.4571880000000 1.0
C      1  0.4552410000000  0.5184270000000  0.5498580000000 1.0
C      1  0.4552850000000  0.4377440000000  0.4772120000000 1.0
C      1  0.5432470000000  0.5707660000000  0.4891060000000 1.0
C      1  0.4525280000000  0.5558210000000  0.5117660000000 1.0
C      1  0.4629600000000  0.4916310000000  0.4832530000000 1.0
C      1  0.5052370000000  0.4833950000000  0.5444780000000 1.0
C      1  0.4580320000000  0.4942210000000  0.5174310000000 1.0
C      1  0.4886720000000  0.5197350000000  0.4630960000000 1.0
C      1  0.5441740000000  0.5018850000000  0.5179160000000 1.0
C      1  0.5340760000000  0.4978470000000  0.4857020000000 1.0
C      1  0.4958900000000  0.4865250000000  0.4614360000000 1.0
C      1  0.4855620000000  0.4517670000000  0.5077180000000 1.0
C      1  0.5075030000000  0.5172150000000  0.5472010000000 1.0
C      1  0.5162320000000  0.4557260000000  0.5037050000000 1.0
C      1  0.4866480000000  0.5427000000000  0.4957470000000 1.0
C      1  0.5171920000000  0.5407350000000  0.4933100000000 1.0
END
