TITL C-27131-4585-96 -665.644614782734 125000 -318.197351944325 0 0 60 (C1) n - 1
REM
REM in /home/nfs/bkarasulu/CARBON/AIRSS/Generating-Clusters/AIREBO/Higher-Symm/Only-C60
REM
REM
REM
REM
REM
REM ./C.cell (28575a23ae977d3b5fae324c64b13b57)
REM
REM compiler GCC version 9.2.1 20190827 (Red Hat 9.2.1-1)
REM options -cpp -mtune=generic -march=x86-64 -g -O0 -fpre-include=/usr/include/finclude/math-vector-fortran.h
REM seed 915568785 -393648167 -87983378 -1893411761 769856059 1414042395 -2032476822 1495251945 185730841 -1142787171 -619552752 2076343603 -370766162 -493366663 855953241 -886777778 -1007101281 415080104 1764393467 28658533 540745677 547649114 -587568089 -1378782041 -1016426511 1428583818 1308609780 2006569333 1154144649 976038355 539746317 990375310 1128073495
REM
CELL 1.54180   50.00000   50.00000   50.00000   90.00000   90.00000   90.00000
LATT -1
SFAC C  
C      1  0.4868740000000  0.4708450000000  0.4275400000000 1.0
C      1  0.4888200000000  0.5711640000000  0.4704930000000 1.0
C      1  0.4867170000000  0.5292990000000  0.5725410000000 1.0
C      1  0.4889810000000  0.4290420000000  0.5297880000000 1.0
C      1  0.5082310000000  0.5137830000000  0.4253790000000 1.0
C      1  0.5078110000000  0.4242790000000  0.4789810000000 1.0
C      1  0.5083420000000  0.4864060000000  0.5745150000000 1.0
C      1  0.5078810000000  0.5755240000000  0.5210710000000 1.0
C      1  0.5134950000000  0.4453890000000  0.5218590000000 1.0
C      1  0.5116530000000  0.4776610000000  0.4434800000000 1.0
C      1  0.5133270000000  0.5547750000000  0.4783000000000 1.0
C      1  0.5115350000000  0.5224480000000  0.5567410000000 1.0
C      1  0.4824420000000  0.5581510000000  0.5172540000000 1.0
C      1  0.4814330000000  0.5082120000000  0.4421930000000 1.0
C      1  0.4824820000000  0.4418080000000  0.4827770000000 1.0
C      1  0.4815430000000  0.4919940000000  0.5577240000000 1.0
C      1  0.4567350000000  0.4599090000000  0.4770830000000 1.0
C      1  0.4619410000000  0.5204630000000  0.4656840000000 1.0
C      1  0.4565630000000  0.5401880000000  0.5228820000000 1.0
C      1  0.4620870000000  0.4796770000000  0.5342040000000 1.0
C      1  0.5464880000000  0.5472210000000  0.4807460000000 1.0
C      1  0.5434790000000  0.4871600000000  0.4509100000000 1.0
C      1  0.5466310000000  0.4525830000000  0.5193440000000 1.0
C      1  0.5433000000000  0.5127730000000  0.5492840000000 1.0
C      1  0.4622610000000  0.5252400000000  0.5686970000000 1.0
C      1  0.4645270000000  0.4309530000000  0.5246820000000 1.0
C      1  0.4623770000000  0.4748180000000  0.4312710000000 1.0
C      1  0.4643350000000  0.5691390000000  0.4753870000000 1.0
C      1  0.5317040000000  0.4787620000000  0.5706670000000 1.0
C      1  0.5322840000000  0.5710500000000  0.5245350000000 1.0
C      1  0.5316190000000  0.5213910000000  0.4291690000000 1.0
C      1  0.5322370000000  0.4286370000000  0.4755440000000 1.0
C      1  0.4473310000000  0.4916820000000  0.4549900000000 1.0
C      1  0.4463460000000  0.5466440000000  0.4912390000000 1.0
C      1  0.4473460000000  0.5083610000000  0.5449750000000 1.0
C      1  0.4465250000000  0.4533920000000  0.5087370000000 1.0
C      1  0.5542840000000  0.5182490000000  0.4543190000000 1.0
C      1  0.5513520000000  0.4523800000000  0.4874040000000 1.0
C      1  0.5543990000000  0.4817840000000  0.5455300000000 1.0
C      1  0.5512450000000  0.5471580000000  0.5126420000000 1.0
C      1  0.5263830000000  0.4680490000000  0.4725790000000 1.0
C      1  0.5239900000000  0.5250340000000  0.4681880000000 1.0
C      1  0.5261640000000  0.5316780000000  0.5274680000000 1.0
C      1  0.5240460000000  0.4753140000000  0.5316350000000 1.0
C      1  0.4780760000000  0.5345060000000  0.4897700000000 1.0
C      1  0.4783180000000  0.4840550000000  0.4667310000000 1.0
C      1  0.4782470000000  0.4655510000000  0.5102010000000 1.0
C      1  0.4782910000000  0.5161650000000  0.5332310000000 1.0
C      1  0.5626450000000  0.4835570000000  0.4787650000000 1.0
C      1  0.5570710000000  0.5159920000000  0.4883210000000 1.0
C      1  0.5622980000000  0.5158840000000  0.5212570000000 1.0
C      1  0.5572940000000  0.4837010000000  0.5114860000000 1.0
C      1  0.4312970000000  0.5181420000000  0.4802310000000 1.0
C      1  0.4359520000000  0.4850240000000  0.4867460000000 1.0
C      1  0.4314050000000  0.4818660000000  0.5197180000000 1.0
C      1  0.4359740000000  0.5149210000000  0.5131910000000 1.0
C      1  0.5063860000000  0.5383080000000  0.5065110000000 1.0
C      1  0.5061200000000  0.4967270000000  0.5351750000000 1.0
C      1  0.5060510000000  0.5036210000000  0.4647050000000 1.0
C      1  0.5065380000000  0.4615090000000  0.4935260000000 1.0
END
