TITL C-27138-9601-146 -0.00045029874825824 125000 -330.512671745469 0 0 60 (C1) n - 1
REM
REM in /home/nfs/bkarasulu/CARBON/AIRSS/Generating-Clusters/AIREBO/Higher-Symm/Only-C60
REM
REM
REM
REM
REM
REM ./C.cell (28575a23ae977d3b5fae324c64b13b57)
REM
REM compiler GCC version 9.2.1 20190827 (Red Hat 9.2.1-1)
REM options -cpp -mtune=generic -march=x86-64 -g -O0 -fpre-include=/usr/include/finclude/math-vector-fortran.h
REM seed -2068488317 -256368569 1791705446 1275088965 435715072 49557147 -1085532044 1742089194 252715901 -904328643 -1924862932 1088170940 154741405 1158029040 -1674684357 -709144996 15444938 -159447054 1356223837 -141013132 1269369500 -2103753848 185548351 -2083371448 405165720 661880770 -1385478386 672101051 541940973 -1850045476 -1788400173 -1770811807 1183961737
REM
CELL 1.54180   50.00000   50.00000   50.00000   90.00000   90.00000   90.00000
LATT -1
SFAC C  
C      1  0.5638540000000  0.4841690000000  0.5291760000000 1.0
C      1  0.4809010000000  0.5579690000000  0.5333640000000 1.0
C      1  0.4641100000000  0.4482830000000  0.5344780000000 1.0
C      1  0.5132020000000  0.4902440000000  0.4322300000000 1.0
C      1  0.5047120000000  0.5206760000000  0.4354440000000 1.0
C      1  0.4824280000000  0.4978540000000  0.4301380000000 1.0
C      1  0.4336260000000  0.4614920000000  0.4993400000000 1.0
C      1  0.5559130000000  0.4553810000000  0.4911270000000 1.0
C      1  0.5096620000000  0.5717590000000  0.4966570000000 1.0
C      1  0.5055880000000  0.4455910000000  0.4529900000000 1.0
C      1  0.5487370000000  0.5415300000000  0.4480170000000 1.0
C      1  0.4419500000000  0.5213650000000  0.4472970000000 1.0
C      1  0.4738060000000  0.5325520000000  0.5141320000000 1.0
C      1  0.4824260000000  0.4605450000000  0.5084990000000 1.0
C      1  0.5489110000000  0.5063970000000  0.5111640000000 1.0
C      1  0.5353100000000  0.5595000000000  0.5059300000000 1.0
C      1  0.4320930000000  0.4944480000000  0.4957270000000 1.0
C      1  0.5295400000000  0.4448410000000  0.4997710000000 1.0
C      1  0.4785330000000  0.4897630000000  0.5749560000000 1.0
C      1  0.5280480000000  0.5012910000000  0.5732690000000 1.0
C      1  0.4990880000000  0.5130390000000  0.5753050000000 1.0
C      1  0.4519600000000  0.5437420000000  0.4588980000000 1.0
C      1  0.4805360000000  0.4371340000000  0.4628650000000 1.0
C      1  0.5655230000000  0.5205340000000  0.4531960000000 1.0
C      1  0.5066580000000  0.4905840000000  0.4803930000000 1.0
C      1  0.5249350000000  0.5159120000000  0.4808880000000 1.0
C      1  0.4782120000000  0.5024890000000  0.4777480000000 1.0
C      1  0.5112800000000  0.4682660000000  0.5040970000000 1.0
C      1  0.5282540000000  0.5309890000000  0.5095410000000 1.0
C      1  0.4600730000000  0.5057210000000  0.5049480000000 1.0
C      1  0.4987430000000  0.5563850000000  0.4723880000000 1.0
C      1  0.4479860000000  0.4761210000000  0.4719020000000 1.0
C      1  0.5513030000000  0.4736410000000  0.4666790000000 1.0
C      1  0.4609820000000  0.4965410000000  0.4513190000000 1.0
C      1  0.5201210000000  0.4730370000000  0.4561430000000 1.0
C      1  0.5183160000000  0.5365080000000  0.4574570000000 1.0
C      1  0.5720770000000  0.4629460000000  0.5121610000000 1.0
C      1  0.4925460000000  0.5784220000000  0.5173110000000 1.0
C      1  0.4385900000000  0.4457490000000  0.5203510000000 1.0
C      1  0.5391960000000  0.4903140000000  0.5508160000000 1.0
C      1  0.4939520000000  0.5339620000000  0.5536290000000 1.0
C      1  0.4705030000000  0.4761150000000  0.5527280000000 1.0
C      1  0.4676730000000  0.4155410000000  0.4531760000000 1.0
C      1  0.5707880000000  0.4917250000000  0.4454720000000 1.0
C      1  0.4716610000000  0.5654810000000  0.4562440000000 1.0
C      1  0.5421360000000  0.5001870000000  0.5969950000000 1.0
C      1  0.4970010000000  0.5266770000000  0.6006750000000 1.0
C      1  0.4694040000000  0.4814970000000  0.5996670000000 1.0
C      1  0.4738920000000  0.5357940000000  0.4825970000000 1.0
C      1  0.4688490000000  0.4542430000000  0.4819390000000 1.0
C      1  0.5551490000000  0.5043020000000  0.4795760000000 1.0
C      1  0.5659350000000  0.5711460000000  0.4968440000000 1.0
C      1  0.4067260000000  0.5097760000000  0.4977500000000 1.0
C      1  0.5180650000000  0.4150950000000  0.4879560000000 1.0
C      1  0.5039090000000  0.5270470000000  0.5252350000000 1.0
C      1  0.4702640000000  0.4855560000000  0.5241670000000 1.0
C      1  0.5247890000000  0.4867300000000  0.5235060000000 1.0
C      1  0.5274700000000  0.4153150000000  0.5167280000000 1.0
C      1  0.5570650000000  0.5775400000000  0.5250290000000 1.0
C      1  0.3850380000000  0.5225470000000  0.5019730000000 1.0
END
