TITL C-27143-4867-136 0.000171127158388879 125000 -339.605936018572 0 0 60 (C1) n - 1
REM
REM in /home/nfs/bkarasulu/CARBON/AIRSS/Generating-Clusters/AIREBO/Higher-Symm/Only-C60
REM
REM
REM
REM
REM
REM ./C.cell (28575a23ae977d3b5fae324c64b13b57)
REM
REM compiler GCC version 9.2.1 20190827 (Red Hat 9.2.1-1)
REM options -cpp -mtune=generic -march=x86-64 -g -O0 -fpre-include=/usr/include/finclude/math-vector-fortran.h
REM seed 1444138153 -2125721530 -1206923997 -229275209 190417746 -395882709 -1199876296 -1716238201 -568106189 -881779358 -653115197 -1494146217 -1202901452 67251221 1526198241 -277990343 1344815580 1422531966 1709741446 1671376649 1407330314 -1078575841 151572190 630401037 -2132676653 1272689028 -727232000 -1716232205 1160251012 945189273 365883591 -1302871028 -36978645
REM
CELL 1.54180   50.00000   50.00000   50.00000   90.00000   90.00000   90.00000
LATT -1
SFAC C  
C      1  0.6306880000000  0.4897660000000  0.5066560000000 1.0
C      1  0.5505210000000  0.6215510000000  0.5016560000000 1.0
C      1  0.3916700000000  0.5887420000000  0.5066880000000 1.0
C      1  0.3888690000000  0.4239520000000  0.5014570000000 1.0
C      1  0.5387950000000  0.3710600000000  0.4990040000000 1.0
C      1  0.4233280000000  0.5214740000000  0.5093020000000 1.0
C      1  0.4576560000000  0.4339160000000  0.5148190000000 1.0
C      1  0.5515510000000  0.4399080000000  0.5092780000000 1.0
C      1  0.5743060000000  0.5306730000000  0.5015330000000 1.0
C      1  0.4947260000000  0.5795890000000  0.5018860000000 1.0
C      1  0.5545760000000  0.5105350000000  0.4818650000000 1.0
C      1  0.5064790000000  0.5549650000000  0.4810450000000 1.0
C      1  0.4497550000000  0.5252610000000  0.4876130000000 1.0
C      1  0.4619220000000  0.4574820000000  0.4901540000000 1.0
C      1  0.5279570000000  0.4505460000000  0.4866920000000 1.0
C      1  0.5423880000000  0.5242210000000  0.5105030000000 1.0
C      1  0.4908420000000  0.5470350000000  0.5101190000000 1.0
C      1  0.4534400000000  0.5078220000000  0.5165010000000 1.0
C      1  0.4806400000000  0.4584880000000  0.5185210000000 1.0
C      1  0.5351970000000  0.4689320000000  0.5143610000000 1.0
C      1  0.4908740000000  0.4274120000000  0.5201010000000 1.0
C      1  0.5681130000000  0.4693680000000  0.5148920000000 1.0
C      1  0.5523570000000  0.5556360000000  0.5097230000000 1.0
C      1  0.4640740000000  0.5657540000000  0.5086230000000 1.0
C      1  0.4268880000000  0.4886790000000  0.5183300000000 1.0
C      1  0.5215670000000  0.4237690000000  0.5055980000000 1.0
C      1  0.5799800000000  0.4970230000000  0.4987980000000 1.0
C      1  0.5281500000000  0.5752040000000  0.4958080000000 1.0
C      1  0.4336090000000  0.5525920000000  0.4996700000000 1.0
C      1  0.4334790000000  0.4570130000000  0.5074010000000 1.0
C      1  0.6048010000000  0.4848180000000  0.5138250000000 1.0
C      1  0.5485250000000  0.5952810000000  0.5088700000000 1.0
C      1  0.4162280000000  0.5785490000000  0.5105170000000 1.0
C      1  0.4026910000000  0.4454600000000  0.5096250000000 1.0
C      1  0.5235110000000  0.3909880000000  0.5084700000000 1.0
C      1  0.4917230000000  0.4809780000000  0.5315250000000 1.0
C      1  0.5187920000000  0.4866810000000  0.5290640000000 1.0
C      1  0.5216640000000  0.5141740000000  0.5268980000000 1.0
C      1  0.4963560000000  0.5254820000000  0.5276030000000 1.0
C      1  0.4777660000000  0.5050250000000  0.5307010000000 1.0
C      1  0.4597360000000  0.5174860000000  0.4615880000000 1.0
C      1  0.4688570000000  0.4663610000000  0.4637920000000 1.0
C      1  0.5198640000000  0.4597500000000  0.4607270000000 1.0
C      1  0.5415080000000  0.5061350000000  0.4566600000000 1.0
C      1  0.5042410000000  0.5413160000000  0.4559240000000 1.0
C      1  0.4930740000000  0.4569650000000  0.4538940000000 1.0
C      1  0.5355370000000  0.4799030000000  0.4497370000000 1.0
C      1  0.5265410000000  0.5274370000000  0.4469220000000 1.0
C      1  0.4783450000000  0.5339020000000  0.4490700000000 1.0
C      1  0.4581470000000  0.4904960000000  0.4553200000000 1.0
C      1  0.5660980000000  0.5804580000000  0.5272330000000 1.0
C      1  0.4422950000000  0.5852610000000  0.5207750000000 1.0
C      1  0.3999750000000  0.4713890000000  0.5230960000000 1.0
C      1  0.4996610000000  0.3966510000000  0.5246000000000 1.0
C      1  0.5952210000000  0.4657240000000  0.5340470000000 1.0
C      1  0.5507820000000  0.6472780000000  0.4966540000000 1.0
C      1  0.3670140000000  0.5975000000000  0.5051430000000 1.0
C      1  0.3759630000000  0.4018640000000  0.4957510000000 1.0
C      1  0.5551830000000  0.3518880000000  0.4918710000000 1.0
C      1  0.6555060000000  0.4964390000000  0.5015050000000 1.0
END
