TITL C-27131-4585-169 0.00216076830412094 125000 -300.952456335819 0 0 60 (C1) n - 1
REM
REM in /home/nfs/bkarasulu/CARBON/AIRSS/Generating-Clusters/AIREBO/Higher-Symm/Only-C60
REM
REM
REM
REM
REM
REM ./C.cell (28575a23ae977d3b5fae324c64b13b57)
REM
REM compiler GCC version 9.2.1 20190827 (Red Hat 9.2.1-1)
REM options -cpp -mtune=generic -march=x86-64 -g -O0 -fpre-include=/usr/include/finclude/math-vector-fortran.h
REM seed 915308965 -507781074 -71818483 1331001990 396346973 1032330227 -1636874312 -514901736 588315219 -2036062557 982025846 732350597 -709669472 1289187778 938247827 1616000040 -891281264 -461502597 -1529295035 -1593456808 -1381597507 -1099901318 577612832 1074637518 -519520560 -291712144 911095245 -35309853 1459569250 -1777533170 -473941340 282505234 1366253346
REM
CELL 1.54180   50.00000   50.00000   50.00000   90.00000   90.00000   90.00000
LATT -1
SFAC C  
C      1  0.4701750000000  0.5495540000000  0.5597540000000 1.0
C      1  0.5608040000000  0.4675990000000  0.5510670000000 1.0
C      1  0.5432740000000  0.5581170000000  0.4697810000000 1.0
C      1  0.4708550000000  0.4535370000000  0.4403300000000 1.0
C      1  0.5323170000000  0.4503830000000  0.5609910000000 1.0
C      1  0.5261830000000  0.5450150000000  0.4422000000000 1.0
C      1  0.5562160000000  0.5310450000000  0.4527690000000 1.0
C      1  0.4417410000000  0.5334050000000  0.5478760000000 1.0
C      1  0.4413160000000  0.4688850000000  0.4503800000000 1.0
C      1  0.5500700000000  0.4398830000000  0.5330740000000 1.0
C      1  0.4533300000000  0.4418010000000  0.4680030000000 1.0
C      1  0.4540050000000  0.5613910000000  0.5313570000000 1.0
C      1  0.5340870000000  0.5480860000000  0.5627780000000 1.0
C      1  0.4412170000000  0.4697720000000  0.5486830000000 1.0
C      1  0.4447250000000  0.5618670000000  0.4660670000000 1.0
C      1  0.5366460000000  0.4472340000000  0.4412410000000 1.0
C      1  0.4685960000000  0.4515730000000  0.5598950000000 1.0
C      1  0.4616830000000  0.5516290000000  0.4376380000000 1.0
C      1  0.4348280000000  0.5331370000000  0.4497890000000 1.0
C      1  0.5623560000000  0.5313150000000  0.5512010000000 1.0
C      1  0.5625470000000  0.4669770000000  0.4528500000000 1.0
C      1  0.4516380000000  0.4415820000000  0.5313290000000 1.0
C      1  0.5523550000000  0.4390020000000  0.4708950000000 1.0
C      1  0.5517090000000  0.5598050000000  0.5350470000000 1.0
C      1  0.5324870000000  0.4801360000000  0.4439450000000 1.0
C      1  0.4397430000000  0.5330590000000  0.4834320000000 1.0
C      1  0.4853830000000  0.4425280000000  0.5317440000000 1.0
C      1  0.5340750000000  0.5151380000000  0.5599030000000 1.0
C      1  0.4642320000000  0.5185400000000  0.4409340000000 1.0
C      1  0.4698420000000  0.4854140000000  0.5574760000000 1.0
C      1  0.4412680000000  0.4699030000000  0.5156330000000 1.0
C      1  0.5605430000000  0.4680950000000  0.4864710000000 1.0
C      1  0.5603520000000  0.5316070000000  0.5181240000000 1.0
C      1  0.4781250000000  0.5581490000000  0.4666780000000 1.0
C      1  0.5186840000000  0.5580080000000  0.5343020000000 1.0
C      1  0.5190550000000  0.4397600000000  0.4693650000000 1.0
C      1  0.4682850000000  0.4874060000000  0.4418460000000 1.0
C      1  0.5568880000000  0.5319000000000  0.4866160000000 1.0
C      1  0.5170480000000  0.4404290000000  0.5322880000000 1.0
C      1  0.4691830000000  0.5165300000000  0.5574900000000 1.0
C      1  0.5303280000000  0.5114240000000  0.4442430000000 1.0
C      1  0.5323340000000  0.4841070000000  0.5592200000000 1.0
C      1  0.5614430000000  0.4680210000000  0.5179780000000 1.0
C      1  0.4427940000000  0.4697700000000  0.4842130000000 1.0
C      1  0.4416650000000  0.5343280000000  0.5148830000000 1.0
C      1  0.5094500000000  0.5568500000000  0.4690250000000 1.0
C      1  0.4875840000000  0.5584800000000  0.5319460000000 1.0
C      1  0.4871880000000  0.4421060000000  0.4678760000000 1.0
C      1  0.5568080000000  0.4998200000000  0.5101400000000 1.0
C      1  0.5515380000000  0.4995640000000  0.4799900000000 1.0
C      1  0.5098450000000  0.4443980000000  0.5004690000000 1.0
C      1  0.4828370000000  0.5566690000000  0.4984450000000 1.0
C      1  0.5011720000000  0.4781680000000  0.5503360000000 1.0
C      1  0.4965050000000  0.5150650000000  0.4442060000000 1.0
C      1  0.4452630000000  0.5019050000000  0.5075230000000 1.0
C      1  0.4484930000000  0.5017020000000  0.4769200000000 1.0
C      1  0.5139910000000  0.5558090000000  0.5024990000000 1.0
C      1  0.5017020000000  0.5089630000000  0.5540730000000 1.0
C      1  0.4797450000000  0.4495240000000  0.4996110000000 1.0
C      1  0.5014520000000  0.4841330000000  0.4451590000000 1.0
END
