TITL C-27141-4733-17 0.00230199835227838 125000 -326.907360118413 0 0 60 (C1) n - 1
REM
REM in /home/nfs/bkarasulu/CARBON/AIRSS/Generating-Clusters/AIREBO/Higher-Symm/Only-C60
REM
REM
REM
REM
REM
REM ./C.cell (28575a23ae977d3b5fae324c64b13b57)
REM
REM compiler GCC version 9.2.1 20190827 (Red Hat 9.2.1-1)
REM options -cpp -mtune=generic -march=x86-64 -g -O0 -fpre-include=/usr/include/finclude/math-vector-fortran.h
REM seed 2120671143 -994888171 -600399373 -578201369 986879349 -549474760 500503646 2020150595 -508437166 1618657565 852614533 1429058441 538090942 38949916 -1234004639 535515783 1804517707 -60221624 2072244338 892823916 173063312 -1130018243 308815473 -1118185405 -1217980055 -1787984013 357467241 -734710061 1684171415 -1639367045 -613692582 1924177169 -724628027
REM
CELL 1.54180   50.00000   50.00000   50.00000   90.00000   90.00000   90.00000
LATT -1
SFAC C  
C      1  0.4905010000000  0.4798980000000  0.4897220000000 1.0
C      1  0.5314380000000  0.4918180000000  0.4589990000000 1.0
C      1  0.5498650000000  0.4640350000000  0.4657630000000 1.0
C      1  0.5750570000000  0.5193210000000  0.4937510000000 1.0
C      1  0.4443220000000  0.4533690000000  0.5012200000000 1.0
C      1  0.5578130000000  0.4298500000000  0.4353200000000 1.0
C      1  0.4921280000000  0.5615730000000  0.4621530000000 1.0
C      1  0.5680260000000  0.4515960000000  0.4210930000000 1.0
C      1  0.5206350000000  0.4737440000000  0.5042170000000 1.0
C      1  0.4439200000000  0.4729390000000  0.4773040000000 1.0
C      1  0.4354890000000  0.4962100000000  0.5345900000000 1.0
C      1  0.4646430000000  0.4959040000000  0.4813130000000 1.0
C      1  0.5709240000000  0.4785060000000  0.4267300000000 1.0
C      1  0.4774580000000  0.4793480000000  0.5288700000000 1.0
C      1  0.4870230000000  0.4890860000000  0.4431830000000 1.0
C      1  0.5489400000000  0.4614820000000  0.5560600000000 1.0
C      1  0.5100680000000  0.4662630000000  0.4664940000000 1.0
C      1  0.4638040000000  0.5323540000000  0.5222090000000 1.0
C      1  0.4949810000000  0.5222250000000  0.5759440000000 1.0
C      1  0.4897680000000  0.5544090000000  0.5429920000000 1.0
C      1  0.4474450000000  0.5819300000000  0.4561920000000 1.0
C      1  0.4472570000000  0.5093330000000  0.4433690000000 1.0
C      1  0.4381580000000  0.5209860000000  0.4216380000000 1.0
C      1  0.5229180000000  0.4402860000000  0.4824580000000 1.0
C      1  0.5184220000000  0.4867160000000  0.5505080000000 1.0
C      1  0.5665160000000  0.4984190000000  0.4770410000000 1.0
C      1  0.5553690000000  0.5250870000000  0.5131260000000 1.0
C      1  0.4652160000000  0.5653030000000  0.4686860000000 1.0
C      1  0.4514390000000  0.4796630000000  0.4473380000000 1.0
C      1  0.5466370000000  0.4903630000000  0.5675340000000 1.0
C      1  0.4799130000000  0.4800590000000  0.5583660000000 1.0
C      1  0.5030970000000  0.5687300000000  0.5871340000000 1.0
C      1  0.4909670000000  0.4308370000000  0.5036920000000 1.0
C      1  0.4731360000000  0.5743910000000  0.5326510000000 1.0
C      1  0.4883280000000  0.5114890000000  0.4639150000000 1.0
C      1  0.4955160000000  0.5306020000000  0.5217090000000 1.0
C      1  0.5254060000000  0.4477420000000  0.5458070000000 1.0
C      1  0.4959300000000  0.5497150000000  0.5695490000000 1.0
C      1  0.5139370000000  0.5459970000000  0.4565030000000 1.0
C      1  0.4580390000000  0.5260580000000  0.4695830000000 1.0
C      1  0.4778270000000  0.4605910000000  0.4571720000000 1.0
C      1  0.5019980000000  0.4590920000000  0.5616350000000 1.0
C      1  0.5596940000000  0.5414910000000  0.5339380000000 1.0
C      1  0.4270710000000  0.4326290000000  0.5061010000000 1.0
C      1  0.4505030000000  0.4758430000000  0.5217500000000 1.0
C      1  0.5188470000000  0.5072100000000  0.5754710000000 1.0
C      1  0.5189130000000  0.4442550000000  0.5160250000000 1.0
C      1  0.5628040000000  0.4963630000000  0.4466860000000 1.0
C      1  0.4743720000000  0.4499850000000  0.4892910000000 1.0
C      1  0.4725250000000  0.5075680000000  0.5650100000000 1.0
C      1  0.5181280000000  0.5182930000000  0.4757740000000 1.0
C      1  0.4529490000000  0.5174550000000  0.5439120000000 1.0
C      1  0.5452080000000  0.4358280000000  0.4598070000000 1.0
C      1  0.5179150000000  0.5677620000000  0.4951490000000 1.0
C      1  0.5054120000000  0.4978330000000  0.5227770000000 1.0
C      1  0.5315800000000  0.5120820000000  0.5063890000000 1.0
C      1  0.5481810000000  0.4785020000000  0.4925790000000 1.0
C      1  0.4547010000000  0.5463350000000  0.4931570000000 1.0
C      1  0.5089150000000  0.5433290000000  0.4968690000000 1.0
C      1  0.4520140000000  0.5699160000000  0.5157850000000 1.0
END
