TITL C-27145-253-173 0.00176071030866016 125000 -336.282637177397 0 0 60 (C1) n - 1
REM
REM in /home/nfs/bkarasulu/CARBON/AIRSS/Generating-Clusters/AIREBO/Higher-Symm/Only-C60
REM
REM
REM
REM
REM
REM ./C.cell (28575a23ae977d3b5fae324c64b13b57)
REM
REM compiler GCC version 9.2.1 20190827 (Red Hat 9.2.1-1)
REM options -cpp -mtune=generic -march=x86-64 -g -O0 -fpre-include=/usr/include/finclude/math-vector-fortran.h
REM seed -1057755786 -169413098 -1610610996 -741815059 1949919356 907784670 264686918 934921823 -326212416 -1177464876 -1967446730 -1585355331 1125697250 31635299 -1457098874 -1929084932 -1007863872 -453697516 -1473627930 -1515497930 1418217044 2139291843 1537828677 -623272769 -229893354 149957057 -1294637590 -133716431 -2078514862 1209076899 -1857297033 -1362949470 -297433583
REM
CELL 1.54180   50.00000   50.00000   50.00000   90.00000   90.00000   90.00000
LATT -1
SFAC C  
C      1  0.5621460000000  0.4523080000000  0.4991360000000 1.0
C      1  0.4242110000000  0.4840970000000  0.4895280000000 1.0
C      1  0.5154020000000  0.5797930000000  0.5025070000000 1.0
C      1  0.4324840000000  0.4521890000000  0.4833550000000 1.0
C      1  0.5748030000000  0.4784920000000  0.4955960000000 1.0
C      1  0.4841030000000  0.5735010000000  0.5017900000000 1.0
C      1  0.5374230000000  0.4404250000000  0.4785240000000 1.0
C      1  0.4252600000000  0.4982550000000  0.4620890000000 1.0
C      1  0.5319400000000  0.5593350000000  0.4808380000000 1.0
C      1  0.4522950000000  0.4417930000000  0.4682950000000 1.0
C      1  0.5746670000000  0.4887870000000  0.4687850000000 1.0
C      1  0.4704750000000  0.5696390000000  0.4714420000000 1.0
C      1  0.4307720000000  0.5054370000000  0.5157620000000 1.0
C      1  0.5334960000000  0.5586060000000  0.5216960000000 1.0
C      1  0.5390180000000  0.4421500000000  0.5218960000000 1.0
C      1  0.5675340000000  0.5017260000000  0.5161400000000 1.0
C      1  0.4639910000000  0.5602380000000  0.5263700000000 1.0
C      1  0.4739280000000  0.4393540000000  0.5309140000000 1.0
C      1  0.4811950000000  0.5274350000000  0.4761550000000 1.0
C      1  0.5283290000000  0.5010350000000  0.4753360000000 1.0
C      1  0.4812610000000  0.4711140000000  0.4732170000000 1.0
C      1  0.5131640000000  0.5255040000000  0.4719190000000 1.0
C      1  0.4687090000000  0.5016570000000  0.4761880000000 1.0
C      1  0.5119080000000  0.4726420000000  0.4718050000000 1.0
C      1  0.4783970000000  0.4913200000000  0.5629600000000 1.0
C      1  0.5153730000000  0.5332560000000  0.5614020000000 1.0
C      1  0.5257040000000  0.4824960000000  0.5574010000000 1.0
C      1  0.5371800000000  0.5075400000000  0.5579490000000 1.0
C      1  0.4825580000000  0.5247590000000  0.5570780000000 1.0
C      1  0.4984250000000  0.4706040000000  0.5648260000000 1.0
C      1  0.5129320000000  0.4719050000000  0.5277210000000 1.0
C      1  0.4689320000000  0.4972170000000  0.5318900000000 1.0
C      1  0.5113930000000  0.5242690000000  0.5294390000000 1.0
C      1  0.4837880000000  0.4707680000000  0.5264210000000 1.0
C      1  0.5232410000000  0.4993810000000  0.5213790000000 1.0
C      1  0.4815330000000  0.5242830000000  0.5230890000000 1.0
C      1  0.4335330000000  0.5228900000000  0.5359770000000 1.0
C      1  0.5429370000000  0.5440480000000  0.5436070000000 1.0
C      1  0.5225470000000  0.4332890000000  0.5426850000000 1.0
C      1  0.5615970000000  0.5171390000000  0.5405830000000 1.0
C      1  0.4542760000000  0.5408400000000  0.5466750000000 1.0
C      1  0.4970770000000  0.4433940000000  0.5521660000000 1.0
C      1  0.5198790000000  0.5516230000000  0.4499990000000 1.0
C      1  0.5304190000000  0.4583330000000  0.4469230000000 1.0
C      1  0.4554440000000  0.4896890000000  0.4489880000000 1.0
C      1  0.4888330000000  0.5492100000000  0.4511800000000 1.0
C      1  0.4660830000000  0.4607780000000  0.4445860000000 1.0
C      1  0.5448980000000  0.4850760000000  0.4528870000000 1.0
C      1  0.4441800000000  0.5219150000000  0.4505640000000 1.0
C      1  0.5508380000000  0.5407970000000  0.4594980000000 1.0
C      1  0.5100690000000  0.4348020000000  0.4592240000000 1.0
C      1  0.5603650000000  0.5153280000000  0.4562320000000 1.0
C      1  0.4550180000000  0.5462280000000  0.4526100000000 1.0
C      1  0.4830350000000  0.4342100000000  0.4580880000000 1.0
C      1  0.4705210000000  0.4556280000000  0.5009890000000 1.0
C      1  0.4745260000000  0.5421890000000  0.5001220000000 1.0
C      1  0.5420610000000  0.5005250000000  0.5013430000000 1.0
C      1  0.5239880000000  0.4623160000000  0.4998490000000 1.0
C      1  0.5144030000000  0.5403610000000  0.5016810000000 1.0
C      1  0.4555020000000  0.4860850000000  0.5027060000000 1.0
END
