TITL C-27144-3922-154 0.000960218812644377 125000 -329.849636495478 0 0 60 (C1) n - 1
REM
REM in /home/nfs/bkarasulu/CARBON/AIRSS/Generating-Clusters/AIREBO/Higher-Symm/Only-C60
REM
REM
REM
REM
REM
REM ./C.cell (28575a23ae977d3b5fae324c64b13b57)
REM
REM compiler GCC version 9.2.1 20190827 (Red Hat 9.2.1-1)
REM options -cpp -mtune=generic -march=x86-64 -g -O0 -fpre-include=/usr/include/finclude/math-vector-fortran.h
REM seed -702832094 -1046314946 194551646 1093196703 579977958 -569185198 -1851818573 -1922672319 -494775927 322781206 106714973 -325375405 -1878094805 -2131605622 -147276190 1733646642 -954268062 -1749359584 -767256561 1130974562 38236098 1144618249 -531414165 -1943262983 -1051051022 552522432 1326124811 1566619294 -826425062 -1267936963 204527087 -1183683305 1407793224
REM
CELL 1.54180   50.00000   50.00000   50.00000   90.00000   90.00000   90.00000
LATT -1
SFAC C  
C      1  0.5025720000000  0.4363840000000  0.4908400000000 1.0
C      1  0.5515390000000  0.5345980000000  0.4897750000000 1.0
C      1  0.4442000000000  0.5284270000000  0.4904140000000 1.0
C      1  0.4553550000000  0.4568140000000  0.4805830000000 1.0
C      1  0.5629370000000  0.4854040000000  0.4805320000000 1.0
C      1  0.4843390000000  0.5610370000000  0.4810990000000 1.0
C      1  0.4798300000000  0.5030220000000  0.4411010000000 1.0
C      1  0.5073210000000  0.4830280000000  0.4423050000000 1.0
C      1  0.5107190000000  0.5172570000000  0.4407760000000 1.0
C      1  0.5019800000000  0.5700330000000  0.5328750000000 1.0
C      1  0.4381410000000  0.4668580000000  0.5323090000000 1.0
C      1  0.5593680000000  0.4628390000000  0.5314270000000 1.0
C      1  0.4818650000000  0.5244110000000  0.5215190000000 1.0
C      1  0.4876240000000  0.4718670000000  0.5215760000000 1.0
C      1  0.5302560000000  0.5032390000000  0.5209780000000 1.0
C      1  0.4851290000000  0.4676200000000  0.5539920000000 1.0
C      1  0.5358150000000  0.5030480000000  0.5532330000000 1.0
C      1  0.4794070000000  0.5289540000000  0.5538800000000 1.0
C      1  0.5323970000000  0.5334910000000  0.5468490000000 1.0
C      1  0.4545800000000  0.5111100000000  0.5473250000000 1.0
C      1  0.5131260000000  0.4551810000000  0.5471780000000 1.0
C      1  0.5724130000000  0.4798820000000  0.5127720000000 1.0
C      1  0.4816530000000  0.5724170000000  0.5131290000000 1.0
C      1  0.4459930000000  0.4483140000000  0.5122660000000 1.0
C      1  0.4573310000000  0.4891820000000  0.4710760000000 1.0
C      1  0.5344060000000  0.4696270000000  0.4703670000000 1.0
C      1  0.5108160000000  0.5426710000000  0.4714580000000 1.0
C      1  0.4165900000000  0.5126150000000  0.5024050000000 1.0
C      1  0.5300580000000  0.4205130000000  0.5030390000000 1.0
C      1  0.5518950000000  0.5663500000000  0.5019340000000 1.0
C      1  0.4989590000000  0.5183200000000  0.4858790000000 1.0
C      1  0.4840860000000  0.4897380000000  0.4860470000000 1.0
C      1  0.5167300000000  0.4913830000000  0.4852540000000 1.0
C      1  0.5282780000000  0.5802590000000  0.5221420000000 1.0
C      1  0.4162480000000  0.4847220000000  0.5218660000000 1.0
C      1  0.5553760000000  0.4345500000000  0.5211890000000 1.0
C      1  0.5167880000000  0.4759730000000  0.5132620000000 1.0
C      1  0.5117270000000  0.5264170000000  0.5134650000000 1.0
C      1  0.4711180000000  0.4970380000000  0.5138390000000 1.0
C      1  0.5375190000000  0.5265640000000  0.4596130000000 1.0
C      1  0.4569450000000  0.5198160000000  0.4599690000000 1.0
C      1  0.5054230000000  0.4540090000000  0.4618360000000 1.0
C      1  0.5369460000000  0.4724980000000  0.5476220000000 1.0
C      1  0.5052420000000  0.5451930000000  0.5482080000000 1.0
C      1  0.4578740000000  0.4816880000000  0.5483000000000 1.0
C      1  0.5550040000000  0.5000380000000  0.4538190000000 1.0
C      1  0.4734260000000  0.5468470000000  0.4538920000000 1.0
C      1  0.4742250000000  0.4553710000000  0.4541840000000 1.0
C      1  0.4694810000000  0.4734530000000  0.4335770000000 1.0
C      1  0.5392550000000  0.4778690000000  0.4377320000000 1.0
C      1  0.4920130000000  0.5423090000000  0.4335780000000 1.0
C      1  0.4416460000000  0.4897720000000  0.4998300000000 1.0
C      1  0.5374440000000  0.4535010000000  0.4993870000000 1.0
C      1  0.5195510000000  0.5560570000000  0.4999090000000 1.0
C      1  0.4410670000000  0.5211640000000  0.5244020000000 1.0
C      1  0.5106500000000  0.4381650000000  0.5246520000000 1.0
C      1  0.5475040000000  0.5407840000000  0.5239150000000 1.0
C      1  0.4775430000000  0.4484850000000  0.5046590000000 1.0
C      1  0.5557640000000  0.5070330000000  0.5043300000000 1.0
C      1  0.4665160000000  0.5447920000000  0.5046330000000 1.0
END
