TITL C-27143-4867-73 -0.000183659540575928 125000 -332.589307757361 0 0 60 (C1) n - 1
REM
REM in /home/nfs/bkarasulu/CARBON/AIRSS/Generating-Clusters/AIREBO/Higher-Symm/Only-C60
REM
REM
REM
REM
REM
REM ./C.cell (28575a23ae977d3b5fae324c64b13b57)
REM
REM compiler GCC version 9.2.1 20190827 (Red Hat 9.2.1-1)
REM options -cpp -mtune=generic -march=x86-64 -g -O0 -fpre-include=/usr/include/finclude/math-vector-fortran.h
REM seed 1920927855 1502320349 -2135332340 -2131707760 404512144 -2093070945 1456630040 1219581933 1670584780 712183028 -328003417 -955837745 -1732636008 -982798483 1547194582 1645760873 819955808 1115049607 1750400827 -1866406145 -1866338979 399441127 1520389576 872023180 228865303 -243559956 899202127 251311994 -239184753 451785061 1427756700 1151109484 -1650584770
REM
CELL 1.54180   50.00000   50.00000   50.00000   90.00000   90.00000   90.00000
LATT -1
SFAC C  
C      1  0.4656410000000  0.5683480000000  0.4884470000000 1.0
C      1  0.5290600000000  0.4320380000000  0.5071760000000 1.0
C      1  0.5394080000000  0.4678940000000  0.5570950000000 1.0
C      1  0.4549380000000  0.5269410000000  0.4512100000000 1.0
C      1  0.5311640000000  0.5287980000000  0.5503680000000 1.0
C      1  0.4805850000000  0.4741750000000  0.4324190000000 1.0
C      1  0.5754300000000  0.4850120000000  0.5326570000000 1.0
C      1  0.4203290000000  0.5003150000000  0.4789010000000 1.0
C      1  0.4879100000000  0.4640100000000  0.5442450000000 1.0
C      1  0.5015640000000  0.5368150000000  0.4534780000000 1.0
C      1  0.5062930000000  0.4683260000000  0.4982380000000 1.0
C      1  0.4893800000000  0.5228540000000  0.4932730000000 1.0
C      1  0.5528450000000  0.5206980000000  0.4818150000000 1.0
C      1  0.4410550000000  0.4862420000000  0.5319110000000 1.0
C      1  0.4184190000000  0.5748450000000  0.4998530000000 1.0
C      1  0.5762360000000  0.4187290000000  0.5112410000000 1.0
C      1  0.5633150000000  0.4663260000000  0.5098380000000 1.0
C      1  0.4390720000000  0.5297610000000  0.4983220000000 1.0
C      1  0.4615660000000  0.4931710000000  0.5541190000000 1.0
C      1  0.5413370000000  0.5063360000000  0.4608640000000 1.0
C      1  0.4911320000000  0.5610100000000  0.5043960000000 1.0
C      1  0.5178440000000  0.4340220000000  0.4812570000000 1.0
C      1  0.4885340000000  0.5335810000000  0.5243580000000 1.0
C      1  0.5168050000000  0.4629910000000  0.4686980000000 1.0
C      1  0.4695850000000  0.5708210000000  0.4603300000000 1.0
C      1  0.5094940000000  0.4367520000000  0.5322280000000 1.0
C      1  0.4404230000000  0.5592090000000  0.4968790000000 1.0
C      1  0.5571190000000  0.4378610000000  0.5099580000000 1.0
C      1  0.4812090000000  0.4935090000000  0.4800260000000 1.0
C      1  0.5188090000000  0.4956050000000  0.5143070000000 1.0
C      1  0.5085530000000  0.5137890000000  0.5358270000000 1.0
C      1  0.4976730000000  0.4858280000000  0.4550130000000 1.0
C      1  0.5149700000000  0.5110310000000  0.4446250000000 1.0
C      1  0.4938350000000  0.4951850000000  0.5565070000000 1.0
C      1  0.4752800000000  0.4685330000000  0.4969260000000 1.0
C      1  0.5112560000000  0.5452020000000  0.4823160000000 1.0
C      1  0.5709220000000  0.5012450000000  0.5030670000000 1.0
C      1  0.4193010000000  0.5023000000000  0.5111140000000 1.0
C      1  0.5426650000000  0.4843650000000  0.4945400000000 1.0
C      1  0.4437160000000  0.5192270000000  0.5275070000000 1.0
C      1  0.5132250000000  0.4520550000000  0.5622650000000 1.0
C      1  0.4755180000000  0.5461760000000  0.4468720000000 1.0
C      1  0.4643700000000  0.5329980000000  0.5400690000000 1.0
C      1  0.5441110000000  0.4768880000000  0.4631630000000 1.0
C      1  0.5040430000000  0.5849760000000  0.5180390000000 1.0
C      1  0.5104940000000  0.4125500000000  0.4658010000000 1.0
C      1  0.4285660000000  0.5126150000000  0.4555060000000 1.0
C      1  0.5638330000000  0.4812700000000  0.5568520000000 1.0
C      1  0.5496240000000  0.5414370000000  0.5626390000000 1.0
C      1  0.4684080000000  0.4639530000000  0.4124580000000 1.0
C      1  0.5539130000000  0.5679770000000  0.4941500000000 1.0
C      1  0.4565180000000  0.4429110000000  0.5026760000000 1.0
C      1  0.5197380000000  0.5102680000000  0.4167260000000 1.0
C      1  0.5016460000000  0.4992890000000  0.5832480000000 1.0
C      1  0.4629320000000  0.4643120000000  0.5265720000000 1.0
C      1  0.5407750000000  0.5450030000000  0.4872630000000 1.0
C      1  0.5128410000000  0.6051610000000  0.5309400000000 1.0
C      1  0.5011000000000  0.3923270000000  0.4520330000000 1.0
C      1  0.5242850000000  0.4662940000000  0.5270180000000 1.0
C      1  0.4593940000000  0.5178420000000  0.4803600000000 1.0
END
