TITL C-27131-4585-3 -0.000164664065540415 125000 -258.400157743238 0 0 60 (C1) n - 1
REM
REM in /home/nfs/bkarasulu/CARBON/AIRSS/Generating-Clusters/AIREBO/Higher-Symm/Only-C60
REM
REM
REM
REM
REM
REM ./C.cell (28575a23ae977d3b5fae324c64b13b57)
REM
REM compiler GCC version 9.2.1 20190827 (Red Hat 9.2.1-1)
REM options -cpp -mtune=generic -march=x86-64 -g -O0 -fpre-include=/usr/include/finclude/math-vector-fortran.h
REM seed -1995775892 65633977 -592202181 788734104 -350981034 1684926860 1435012646 1962111049 -510816632 1370807951 1627406745 -1185398168 343123394 2044191605 620687719 158489995 1615722896 1652872939 -446643334 917619807 -593197229 -235024231 324601954 -699567611 -1494860180 -1052679292 -269585403 -1286260848 387367330 1746367166 1360643463 -706257329 -720378788
REM
CELL 1.54180   50.00000   50.00000   50.00000   90.00000   90.00000   90.00000
LATT -1
SFAC C  
C      1  0.5660710000000  0.5195700000000  0.5096330000000 1.0
C      1  0.5491760000000  0.5015530000000  0.5279710000000 1.0
C      1  0.5489620000000  0.4738100000000  0.5137370000000 1.0
C      1  0.5671850000000  0.4793050000000  0.4900260000000 1.0
C      1  0.5589880000000  0.5025220000000  0.4740620000000 1.0
C      1  0.5500170000000  0.5316550000000  0.4860140000000 1.0
C      1  0.4509480000000  0.4734730000000  0.5117490000000 1.0
C      1  0.4514130000000  0.4992890000000  0.5286590000000 1.0
C      1  0.4418340000000  0.5251050000000  0.5138320000000 1.0
C      1  0.4491100000000  0.5266490000000  0.4837660000000 1.0
C      1  0.4329700000000  0.5028460000000  0.4748580000000 1.0
C      1  0.4461230000000  0.4773570000000  0.4817810000000 1.0
C      1  0.5158880000000  0.5032860000000  0.5347470000000 1.0
C      1  0.5161950000000  0.4648710000000  0.5118860000000 1.0
C      1  0.5050110000000  0.4552940000000  0.4819360000000 1.0
C      1  0.5251570000000  0.5041760000000  0.4710770000000 1.0
C      1  0.5159770000000  0.5329750000000  0.4866520000000 1.0
C      1  0.5048760000000  0.5391490000000  0.5165070000000 1.0
C      1  0.4851830000000  0.5012670000000  0.5325370000000 1.0
C      1  0.4743040000000  0.5307800000000  0.5196290000000 1.0
C      1  0.4829660000000  0.5256080000000  0.4806670000000 1.0
C      1  0.4922830000000  0.4978820000000  0.4650830000000 1.0
C      1  0.4790190000000  0.4729390000000  0.4743790000000 1.0
C      1  0.4836080000000  0.4695310000000  0.5204330000000 1.0
C      1  0.5322180000000  0.5200470000000  0.5590960000000 1.0
C      1  0.5264990000000  0.4604920000000  0.5440040000000 1.0
C      1  0.5318700000000  0.4366900000000  0.4883930000000 1.0
C      1  0.5319130000000  0.4795430000000  0.4486340000000 1.0
C      1  0.5235930000000  0.5402560000000  0.4540690000000 1.0
C      1  0.5275050000000  0.5625840000000  0.5109440000000 1.0
C      1  0.4729240000000  0.4812790000000  0.5571690000000 1.0
C      1  0.4723950000000  0.5473830000000  0.5492400000000 1.0
C      1  0.4752090000000  0.5578170000000  0.4883460000000 1.0
C      1  0.4745870000000  0.5149710000000  0.4431850000000 1.0
C      1  0.4676520000000  0.4524100000000  0.4497710000000 1.0
C      1  0.4713580000000  0.4391690000000  0.5112270000000 1.0
C      1  0.4659630000000  0.4426910000000  0.4828270000000 1.0
C      1  0.4668790000000  0.4834910000000  0.4377830000000 1.0
C      1  0.4737510000000  0.5466550000000  0.4555940000000 1.0
C      1  0.4692380000000  0.5644010000000  0.5191780000000 1.0
C      1  0.4702610000000  0.5151910000000  0.5599800000000 1.0
C      1  0.4679210000000  0.4504090000000  0.5437750000000 1.0
C      1  0.5276920000000  0.5639660000000  0.4786310000000 1.0
C      1  0.5291810000000  0.5123850000000  0.4383210000000 1.0
C      1  0.5278850000000  0.4544940000000  0.4594550000000 1.0
C      1  0.5311990000000  0.4355650000000  0.5207220000000 1.0
C      1  0.5298620000000  0.4858440000000  0.5592340000000 1.0
C      1  0.5297480000000  0.5405370000000  0.5368580000000 1.0
C      1  0.5886890000000  0.4652140000000  0.4852780000000 1.0
C      1  0.5740890000000  0.5052240000000  0.4476650000000 1.0
C      1  0.5655360000000  0.5542160000000  0.4716830000000 1.0
C      1  0.5912190000000  0.5253680000000  0.5140220000000 1.0
C      1  0.5663530000000  0.5005780000000  0.5544310000000 1.0
C      1  0.5650250000000  0.4532800000000  0.5313780000000 1.0
C      1  0.4377390000000  0.5525610000000  0.4710740000000 1.0
C      1  0.4082370000000  0.5047130000000  0.4667240000000 1.0
C      1  0.4306110000000  0.4541060000000  0.4684960000000 1.0
C      1  0.4311050000000  0.4534820000000  0.5243270000000 1.0
C      1  0.4356810000000  0.4960740000000  0.5549820000000 1.0
C      1  0.4151450000000  0.5360180000000  0.5218850000000 1.0
END
