TITL C-27140-5627-23 0.000292635234493138 125000 -314.108405982992 0 0 60 (C1) n - 1
REM
REM in /home/nfs/bkarasulu/CARBON/AIRSS/Generating-Clusters/AIREBO/Higher-Symm/Only-C60
REM
REM
REM
REM
REM
REM ./C.cell (28575a23ae977d3b5fae324c64b13b57)
REM
REM compiler GCC version 9.2.1 20190827 (Red Hat 9.2.1-1)
REM options -cpp -mtune=generic -march=x86-64 -g -O0 -fpre-include=/usr/include/finclude/math-vector-fortran.h
REM seed 1890458749 1196238321 1615046187 -366390013 720599391 418613077 -1095412467 -598929150 -1108674599 1453131892 -1761438918 -45438554 1986187929 -1601051116 772662324 900475789 -1131707928 266456997 -1737531949 -508286017 -801303564 153866969 1072252144 760692009 -1595126528 73574969 -1041686212 -1502066438 1330144190 653105511 1667202156 778485889 636173948
REM
CELL 1.54180   50.00000   50.00000   50.00000   90.00000   90.00000   90.00000
LATT -1
SFAC C  
C      1  0.5405810000000  0.4556310000000  0.4587640000000 1.0
C      1  0.4608810000000  0.4446160000000  0.5465400000000 1.0
C      1  0.4594710000000  0.5546670000000  0.4619430000000 1.0
C      1  0.5397150000000  0.5566870000000  0.5362940000000 1.0
C      1  0.5373480000000  0.4665910000000  0.5076120000000 1.0
C      1  0.4618610000000  0.4656410000000  0.4953410000000 1.0
C      1  0.4676010000000  0.5288620000000  0.5245220000000 1.0
C      1  0.5351920000000  0.5301150000000  0.4750290000000 1.0
C      1  0.4879860000000  0.4458680000000  0.4724790000000 1.0
C      1  0.5127240000000  0.4440990000000  0.5295470000000 1.0
C      1  0.5143430000000  0.5640960000000  0.4577690000000 1.0
C      1  0.4846070000000  0.5641340000000  0.5407080000000 1.0
C      1  0.5333230000000  0.4888590000000  0.4582590000000 1.0
C      1  0.4742890000000  0.4928220000000  0.5401350000000 1.0
C      1  0.4756200000000  0.5080270000000  0.4690580000000 1.0
C      1  0.5265440000000  0.5079760000000  0.5346050000000 1.0
C      1  0.4921520000000  0.4852780000000  0.5121780000000 1.0
C      1  0.5114870000000  0.4876510000000  0.4843060000000 1.0
C      1  0.4992190000000  0.5185470000000  0.5173060000000 1.0
C      1  0.5037480000000  0.5204090000000  0.4836540000000 1.0
C      1  0.5859070000000  0.5063080000000  0.4861800000000 1.0
C      1  0.4207340000000  0.5223690000000  0.5136260000000 1.0
C      1  0.4266720000000  0.5105380000000  0.4892930000000 1.0
C      1  0.5777770000000  0.5017540000000  0.5124010000000 1.0
C      1  0.5022990000000  0.5386740000000  0.4434080000000 1.0
C      1  0.4981530000000  0.5409480000000  0.5568460000000 1.0
C      1  0.4888780000000  0.4602030000000  0.4484680000000 1.0
C      1  0.5067670000000  0.4600850000000  0.5527190000000 1.0
C      1  0.4523310000000  0.4647310000000  0.4640510000000 1.0
C      1  0.5449870000000  0.4655120000000  0.5395440000000 1.0
C      1  0.5501530000000  0.5225710000000  0.4454360000000 1.0
C      1  0.4515560000000  0.5226300000000  0.5538550000000 1.0
C      1  0.4615110000000  0.4302530000000  0.5194840000000 1.0
C      1  0.5413870000000  0.4367840000000  0.4815590000000 1.0
C      1  0.5294050000000  0.5642240000000  0.5090860000000 1.0
C      1  0.4688030000000  0.5629660000000  0.4893550000000 1.0
C      1  0.4949930000000  0.5526990000000  0.4800800000000 1.0
C      1  0.5039890000000  0.5521730000000  0.5190050000000 1.0
C      1  0.5128660000000  0.4542740000000  0.4874850000000 1.0
C      1  0.4855040000000  0.4530010000000  0.5162550000000 1.0
C      1  0.5524850000000  0.5042980000000  0.4817390000000 1.0
C      1  0.4465130000000  0.5022190000000  0.5228990000000 1.0
C      1  0.4558680000000  0.4961720000000  0.4903630000000 1.0
C      1  0.5455960000000  0.4961190000000  0.5138220000000 1.0
C      1  0.5348460000000  0.4330810000000  0.5129580000000 1.0
C      1  0.4659460000000  0.4326560000000  0.4881550000000 1.0
C      1  0.4646590000000  0.5585690000000  0.5162720000000 1.0
C      1  0.5342430000000  0.5600010000000  0.4821930000000 1.0
C      1  0.5615620000000  0.4951890000000  0.4403790000000 1.0
C      1  0.4294600000000  0.4787360000000  0.5322140000000 1.0
C      1  0.4605490000000  0.4937120000000  0.4215580000000 1.0
C      1  0.5331040000000  0.4920140000000  0.5838050000000 1.0
C      1  0.5249550000000  0.5357450000000  0.5487890000000 1.0
C      1  0.4753410000000  0.5334910000000  0.4511030000000 1.0
C      1  0.4791050000000  0.4656490000000  0.5536330000000 1.0
C      1  0.5150530000000  0.4642070000000  0.4401240000000 1.0
C      1  0.5262550000000  0.4848000000000  0.5579560000000 1.0
C      1  0.4699060000000  0.4852200000000  0.4462650000000 1.0
C      1  0.4816640000000  0.5185220000000  0.5604380000000 1.0
C      1  0.5195280000000  0.5163240000000  0.4411500000000 1.0
END
