TITL C-27143-4867-61 0.00144512750519139 125000 -331.668913843512 0 0 60 (C1) n - 1
REM
REM in /home/nfs/bkarasulu/CARBON/AIRSS/Generating-Clusters/AIREBO/Higher-Symm/Only-C60
REM
REM
REM
REM
REM
REM ./C.cell (28575a23ae977d3b5fae324c64b13b57)
REM
REM compiler GCC version 9.2.1 20190827 (Red Hat 9.2.1-1)
REM options -cpp -mtune=generic -march=x86-64 -g -O0 -fpre-include=/usr/include/finclude/math-vector-fortran.h
REM seed 1318525187 -1461258538 1849261680 -631248957 -2712563 -725726442 763449986 177202737 -1746627112 529050713 188264269 -233247392 -813903242 -1821452569 1138206731 2010572270 -1283281796 1168241680 1448949429 -1430447943 1982474971 795042229 2131339552 -1985866660 -1165193185 1324971108 -1657384819 1162146195 -1929356613 -1314748008 1385554523 -471363024 -1574255677
REM
CELL 1.54180   50.00000   50.00000   50.00000   90.00000   90.00000   90.00000
LATT -1
SFAC C  
C      1  0.5466720000000  0.4871340000000  0.4539580000000 1.0
C      1  0.4460100000000  0.4961600000000  0.4478060000000 1.0
C      1  0.4599710000000  0.4882860000000  0.5512620000000 1.0
C      1  0.5580320000000  0.4958990000000  0.5434460000000 1.0
C      1  0.4352820000000  0.5708630000000  0.5141080000000 1.0
C      1  0.5026570000000  0.5553330000000  0.5593590000000 1.0
C      1  0.5581070000000  0.5357320000000  0.5013430000000 1.0
C      1  0.4966830000000  0.5676410000000  0.4535440000000 1.0
C      1  0.4965430000000  0.4949970000000  0.5174090000000 1.0
C      1  0.5274070000000  0.4900760000000  0.5052700000000 1.0
C      1  0.4993190000000  0.4923580000000  0.4770690000000 1.0
C      1  0.4716220000000  0.4965350000000  0.4963740000000 1.0
C      1  0.5219960000000  0.5330210000000  0.5435650000000 1.0
C      1  0.5570910000000  0.5337600000000  0.4696710000000 1.0
C      1  0.4740410000000  0.5423920000000  0.4511130000000 1.0
C      1  0.4469860000000  0.5401120000000  0.5226790000000 1.0
C      1  0.5013790000000  0.5218250000000  0.4882220000000 1.0
C      1  0.4783180000000  0.5353490000000  0.4813180000000 1.0
C      1  0.4554530000000  0.5253050000000  0.4965890000000 1.0
C      1  0.5098150000000  0.5242240000000  0.5164230000000 1.0
C      1  0.5125270000000  0.4877260000000  0.5619280000000 1.0
C      1  0.5780500000000  0.4954370000000  0.4910640000000 1.0
C      1  0.4846600000000  0.4924040000000  0.4400260000000 1.0
C      1  0.4345780000000  0.4904860000000  0.5098170000000 1.0
C      1  0.5344940000000  0.4723030000000  0.5475360000000 1.0
C      1  0.5506570000000  0.4794830000000  0.4849130000000 1.0
C      1  0.4685860000000  0.4724090000000  0.4570920000000 1.0
C      1  0.4519000000000  0.4714640000000  0.5245400000000 1.0
C      1  0.5357640000000  0.4809670000000  0.4228190000000 1.0
C      1  0.4182440000000  0.4798750000000  0.4587580000000 1.0
C      1  0.4507400000000  0.4833750000000  0.5768120000000 1.0
C      1  0.5831310000000  0.4945160000000  0.5549080000000 1.0
C      1  0.4864800000000  0.4616180000000  0.4839260000000 1.0
C      1  0.4665850000000  0.4528710000000  0.5102090000000 1.0
C      1  0.5257050000000  0.4526070000000  0.5305850000000 1.0
C      1  0.5170650000000  0.4587400000000  0.4985450000000 1.0
C      1  0.5145190000000  0.4240470000000  0.4643780000000 1.0
C      1  0.4727820000000  0.4131400000000  0.4876800000000 1.0
C      1  0.4917420000000  0.4171640000000  0.5329820000000 1.0
C      1  0.5341250000000  0.4136730000000  0.5082990000000 1.0
C      1  0.4896030000000  0.4891500000000  0.5462460000000 1.0
C      1  0.5555380000000  0.5059430000000  0.5143000000000 1.0
C      1  0.5145390000000  0.4913210000000  0.4473870000000 1.0
C      1  0.4421560000000  0.4914690000000  0.4801770000000 1.0
C      1  0.4679650000000  0.5180100000000  0.4357760000000 1.0
C      1  0.4440600000000  0.5099110000000  0.5315040000000 1.0
C      1  0.5329100000000  0.5102970000000  0.5584960000000 1.0
C      1  0.5682290000000  0.5085310000000  0.4644550000000 1.0
C      1  0.5219460000000  0.5612580000000  0.5252010000000 1.0
C      1  0.5437620000000  0.5614720000000  0.4747040000000 1.0
C      1  0.4688090000000  0.5717150000000  0.4678150000000 1.0
C      1  0.4677320000000  0.5674120000000  0.5236560000000 1.0
C      1  0.5305920000000  0.4320510000000  0.4864040000000 1.0
C      1  0.4874450000000  0.4305830000000  0.4700490000000 1.0
C      1  0.4716620000000  0.4246500000000  0.5141340000000 1.0
C      1  0.5194640000000  0.4238390000000  0.5312400000000 1.0
C      1  0.4939060000000  0.5709190000000  0.5350150000000 1.0
C      1  0.5414890000000  0.5618780000000  0.5060000000000 1.0
C      1  0.5233250000000  0.5714990000000  0.4581780000000 1.0
C      1  0.4591510000000  0.5767830000000  0.4919220000000 1.0
END
