TITL C-27139-4854-117 0.000394495928636582 125000 -355.232422721104 0 0 60 (C1) n - 1
REM
REM in /home/nfs/bkarasulu/CARBON/AIRSS/Generating-Clusters/AIREBO/Higher-Symm/Only-C60
REM
REM
REM
REM
REM
REM ./C.cell (28575a23ae977d3b5fae324c64b13b57)
REM
REM compiler GCC version 9.2.1 20190827 (Red Hat 9.2.1-1)
REM options -cpp -mtune=generic -march=x86-64 -g -O0 -fpre-include=/usr/include/finclude/math-vector-fortran.h
REM seed 1209984874 608308618 -442963484 1869754233 -1862656195 1827201293 -1173729080 -781811832 452039738 812168581 1835528849 -812617636 1019664797 -894619859 -154492900 616592770 398112863 -384564930 142571820 1140279603 130857221 645359572 519617496 1477369817 -1970106164 -1344971337 -1840763818 -1077426906 -541584460 -354503845 -757065218 -506517104 2140404501
REM
CELL 1.54180   50.00000   50.00000   50.00000   90.00000   90.00000   90.00000
LATT -1
SFAC C  
C      1  0.5613400000000  0.5116860000000  0.4574240000000 1.0
C      1  0.5404720000000  0.5337220000000  0.5493700000000 1.0
C      1  0.5537370000000  0.4490880000000  0.5047210000000 1.0
C      1  0.4353250000000  0.5161810000000  0.4642980000000 1.0
C      1  0.4577290000000  0.5249500000000  0.5403360000000 1.0
C      1  0.4367010000000  0.4511000000000  0.5102040000000 1.0
C      1  0.4612900000000  0.5459620000000  0.5242440000000 1.0
C      1  0.4374160000000  0.4531110000000  0.5374770000000 1.0
C      1  0.4389250000000  0.4916650000000  0.4527400000000 1.0
C      1  0.5446150000000  0.5526430000000  0.5303600000000 1.0
C      1  0.5530380000000  0.4547470000000  0.5314820000000 1.0
C      1  0.5573950000000  0.4873090000000  0.4455490000000 1.0
C      1  0.4775510000000  0.4315460000000  0.5206490000000 1.0
C      1  0.4717440000000  0.4860260000000  0.4047570000000 1.0
C      1  0.4777320000000  0.6067460000000  0.5258870000000 1.0
C      1  0.5233410000000  0.4081910000000  0.5453420000000 1.0
C      1  0.5116830000000  0.5047750000000  0.4206800000000 1.0
C      1  0.5275560000000  0.6130880000000  0.5067760000000 1.0
C      1  0.5015120000000  0.4681320000000  0.4973940000000 1.0
C      1  0.4862220000000  0.4907680000000  0.4866980000000 1.0
C      1  0.4886530000000  0.5119950000000  0.5065850000000 1.0
C      1  0.5248990000000  0.4805270000000  0.5089900000000 1.0
C      1  0.5387770000000  0.5072720000000  0.4977850000000 1.0
C      1  0.5152950000000  0.5098930000000  0.5192700000000 1.0
C      1  0.4885090000000  0.6322540000000  0.5256470000000 1.0
C      1  0.4986090000000  0.4402470000000  0.5016360000000 1.0
C      1  0.4852590000000  0.4961870000000  0.4599110000000 1.0
C      1  0.5151890000000  0.6348900000000  0.5185520000000 1.0
C      1  0.5173830000000  0.4286280000000  0.5216960000000 1.0
C      1  0.4951790000000  0.5161670000000  0.4398590000000 1.0
C      1  0.5379750000000  0.4674930000000  0.4406360000000 1.0
C      1  0.5357130000000  0.5642500000000  0.5063000000000 1.0
C      1  0.5347570000000  0.4607740000000  0.5524510000000 1.0
C      1  0.4570870000000  0.4705570000000  0.4483420000000 1.0
C      1  0.4721040000000  0.5627460000000  0.5048450000000 1.0
C      1  0.4595530000000  0.4572770000000  0.5548290000000 1.0
C      1  0.4689830000000  0.5558220000000  0.4775800000000 1.0
C      1  0.4639160000000  0.4809840000000  0.5694820000000 1.0
C      1  0.4589870000000  0.4463790000000  0.4619030000000 1.0
C      1  0.5377670000000  0.5509800000000  0.4810110000000 1.0
C      1  0.5311680000000  0.4833420000000  0.5687140000000 1.0
C      1  0.5358310000000  0.4439520000000  0.4561110000000 1.0
C      1  0.5157870000000  0.4754710000000  0.4261930000000 1.0
C      1  0.5175710000000  0.5864800000000  0.5080750000000 1.0
C      1  0.5121250000000  0.4393760000000  0.5535230000000 1.0
C      1  0.4822880000000  0.4795120000000  0.4303940000000 1.0
C      1  0.4892340000000  0.5843450000000  0.5125480000000 1.0
C      1  0.4813140000000  0.4419680000000  0.5469890000000 1.0
C      1  0.5531940000000  0.4411140000000  0.4785840000000 1.0
C      1  0.5486660000000  0.5245370000000  0.4789910000000 1.0
C      1  0.5383500000000  0.5091080000000  0.5602050000000 1.0
C      1  0.4425540000000  0.4435940000000  0.4847820000000 1.0
C      1  0.4474630000000  0.5401770000000  0.4685780000000 1.0
C      1  0.4556520000000  0.5051380000000  0.5582080000000 1.0
C      1  0.5114490000000  0.4813770000000  0.5887130000000 1.0
C      1  0.5104290000000  0.4310410000000  0.4550460000000 1.0
C      1  0.5183370000000  0.5585760000000  0.4619590000000 1.0
C      1  0.4842180000000  0.4812710000000  0.5888450000000 1.0
C      1  0.4832370000000  0.4316880000000  0.4586390000000 1.0
C      1  0.4912190000000  0.5611800000000  0.4612050000000 1.0
END
