TITL C-27144-3922-161 0.000260645785103109 125000 -315.962960519358 0 0 60 (C1) n - 1
REM
REM in /home/nfs/bkarasulu/CARBON/AIRSS/Generating-Clusters/AIREBO/Higher-Symm/Only-C60
REM
REM
REM
REM
REM
REM ./C.cell (28575a23ae977d3b5fae324c64b13b57)
REM
REM compiler GCC version 9.2.1 20190827 (Red Hat 9.2.1-1)
REM options -cpp -mtune=generic -march=x86-64 -g -O0 -fpre-include=/usr/include/finclude/math-vector-fortran.h
REM seed -1806341850 -2016435847 -17634489 -1356536062 2059340631 1271439084 975732161 631866145 369309683 464190657 585521376 -1461720314 1047590480 1641985707 -1859077248 -1149425008 -1156646016 -620575237 1961365454 -2146193705 -691142935 887603525 1643273883 304042153 298632895 420984529 1698301561 2051063072 1883627951 -899229673 -1843228451 -2111729463 -37188815
REM
CELL 1.54180   50.00000   50.00000   50.00000   90.00000   90.00000   90.00000
LATT -1
SFAC C  
C      1  0.4406100000000  0.4856050000000  0.5303300000000 1.0
C      1  0.5276150000000  0.4209000000000  0.4700550000000 1.0
C      1  0.4687010000000  0.5089120000000  0.4282170000000 1.0
C      1  0.5605740000000  0.5123670000000  0.5309490000000 1.0
C      1  0.5794530000000  0.4818520000000  0.4692750000000 1.0
C      1  0.4193620000000  0.5203220000000  0.4744790000000 1.0
C      1  0.4855090000000  0.5703760000000  0.4644030000000 1.0
C      1  0.4782690000000  0.4307950000000  0.5091520000000 1.0
C      1  0.5262960000000  0.5664280000000  0.5114920000000 1.0
C      1  0.5285250000000  0.4901240000000  0.4264890000000 1.0
C      1  0.5060640000000  0.5292440000000  0.5631690000000 1.0
C      1  0.4910930000000  0.4709520000000  0.5603650000000 1.0
C      1  0.4654760000000  0.5078660000000  0.5321050000000 1.0
C      1  0.5293780000000  0.4762580000000  0.5052430000000 1.0
C      1  0.5109350000000  0.5240750000000  0.4738640000000 1.0
C      1  0.5327040000000  0.4936350000000  0.5328770000000 1.0
C      1  0.5182550000000  0.4916130000000  0.4809730000000 1.0
C      1  0.4824180000000  0.5082850000000  0.4819310000000 1.0
C      1  0.4714440000000  0.5252380000000  0.5051270000000 1.0
C      1  0.4728170000000  0.4586260000000  0.4904730000000 1.0
C      1  0.5279930000000  0.5401200000000  0.4905570000000 1.0
C      1  0.4894520000000  0.4758120000000  0.4746370000000 1.0
C      1  0.4892800000000  0.5303210000000  0.5336370000000 1.0
C      1  0.5097410000000  0.4705910000000  0.5321780000000 1.0
C      1  0.4608730000000  0.4588420000000  0.5594650000000 1.0
C      1  0.5594230000000  0.4585570000000  0.4709680000000 1.0
C      1  0.4649930000000  0.5518780000000  0.4478060000000 1.0
C      1  0.5359230000000  0.5438870000000  0.5658480000000 1.0
C      1  0.5489190000000  0.4693810000000  0.4413560000000 1.0
C      1  0.4457580000000  0.5261270000000  0.4450510000000 1.0
C      1  0.4386410000000  0.5450370000000  0.4723960000000 1.0
C      1  0.4385360000000  0.4527180000000  0.5352530000000 1.0
C      1  0.5609760000000  0.5432600000000  0.5433830000000 1.0
C      1  0.5286200000000  0.4467760000000  0.4543870000000 1.0
C      1  0.5381740000000  0.5675890000000  0.5421150000000 1.0
C      1  0.4638190000000  0.4318760000000  0.5396130000000 1.0
C      1  0.4645870000000  0.4916280000000  0.5616000000000 1.0
C      1  0.5458140000000  0.4525690000000  0.4967730000000 1.0
C      1  0.4975860000000  0.5413650000000  0.4515070000000 1.0
C      1  0.5345970000000  0.5111410000000  0.5611330000000 1.0
C      1  0.5380000000000  0.5006040000000  0.4561150000000 1.0
C      1  0.4608660000000  0.4990910000000  0.4593310000000 1.0
C      1  0.4579310000000  0.5503740000000  0.4948890000000 1.0
C      1  0.4422000000000  0.4645930000000  0.5040040000000 1.0
C      1  0.5550470000000  0.5386220000000  0.5110970000000 1.0
C      1  0.5020700000000  0.4618470000000  0.4497080000000 1.0
C      1  0.5061140000000  0.5594940000000  0.5372360000000 1.0
C      1  0.4958720000000  0.4400750000000  0.5357900000000 1.0
C      1  0.4299780000000  0.4978340000000  0.4685120000000 1.0
C      1  0.4493150000000  0.4339250000000  0.4911580000000 1.0
C      1  0.5037660000000  0.4774740000000  0.4266590000000 1.0
C      1  0.5681990000000  0.5041060000000  0.4625600000000 1.0
C      1  0.5625190000000  0.4945760000000  0.5590620000000 1.0
C      1  0.4343760000000  0.5042460000000  0.5564280000000 1.0
C      1  0.5522180000000  0.5645340000000  0.4892740000000 1.0
C      1  0.5365080000000  0.4265250000000  0.4960630000000 1.0
C      1  0.4741540000000  0.5720860000000  0.4895550000000 1.0
C      1  0.4918560000000  0.5241930000000  0.4249510000000 1.0
C      1  0.5128340000000  0.4464030000000  0.5635770000000 1.0
C      1  0.4869720000000  0.5564490000000  0.5633990000000 1.0
END
