TITL C-27131-4585-6 -4414.54356009162 125000 -362.04975816423 0 0 60 (C1) n - 1
REM
REM in /home/nfs/bkarasulu/CARBON/AIRSS/Generating-Clusters/AIREBO/Higher-Symm/Only-C60
REM
REM
REM
REM
REM
REM ./C.cell (28575a23ae977d3b5fae324c64b13b57)
REM
REM compiler GCC version 9.2.1 20190827 (Red Hat 9.2.1-1)
REM options -cpp -mtune=generic -march=x86-64 -g -O0 -fpre-include=/usr/include/finclude/math-vector-fortran.h
REM seed -1746971627 -1741676807 -2076457285 1615883036 -797521482 -1133949122 1396504909 -778739911 -1528256327 -688647621 -344791754 756115015 18690446 1929947333 -1934085268 -743342111 1312041169 -1132428499 94380354 186181663 -1095910487 -1397027392 140266519 -1764952190 817096637 141571826 1904897077 -2098385519 39123259 -1031962391 -937523902 -1501766539 203686556
REM
CELL 1.54180   50.00000   50.00000   50.00000   90.00000   90.00000   90.00000
LATT -1
SFAC C  
C      1  0.4622650000000  0.5199130000000  0.4458100000000 1.0
C      1  0.5314040000000  0.4369200000000  0.4508290000000 1.0
C      1  0.4388560000000  0.4608070000000  0.5170140000000 1.0
C      1  0.4483020000000  0.4645880000000  0.5631540000000 1.0
C      1  0.5379710000000  0.5197820000000  0.5572890000000 1.0
C      1  0.5399690000000  0.4814540000000  0.4377870000000 1.0
C      1  0.5216460000000  0.5630150000000  0.5432960000000 1.0
C      1  0.4796540000000  0.4420140000000  0.5359330000000 1.0
C      1  0.4812500000000  0.5643920000000  0.4576560000000 1.0
C      1  0.4372940000000  0.5521920000000  0.4692260000000 1.0
C      1  0.5590230000000  0.4610360000000  0.4798000000000 1.0
C      1  0.5582940000000  0.5403100000000  0.5184980000000 1.0
C      1  0.4587670000000  0.4409300000000  0.5169190000000 1.0
C      1  0.5212590000000  0.4603950000000  0.4379510000000 1.0
C      1  0.4412050000000  0.5246340000000  0.4632100000000 1.0
C      1  0.4611350000000  0.5659590000000  0.4773670000000 1.0
C      1  0.5381560000000  0.5600110000000  0.5194430000000 1.0
C      1  0.5400470000000  0.4411520000000  0.4776100000000 1.0
C      1  0.5204060000000  0.5413580000000  0.5614690000000 1.0
C      1  0.4782840000000  0.5437380000000  0.4380770000000 1.0
C      1  0.4753430000000  0.4573210000000  0.5594900000000 1.0
C      1  0.4363180000000  0.4762050000000  0.5400250000000 1.0
C      1  0.5628770000000  0.4778970000000  0.4551360000000 1.0
C      1  0.5596880000000  0.5211750000000  0.5390780000000 1.0
C      1  0.5645080000000  0.5326810000000  0.4921050000000 1.0
C      1  0.5294780000000  0.4935150000000  0.5606240000000 1.0
C      1  0.4982500000000  0.5601470000000  0.5184190000000 1.0
C      1  0.5615380000000  0.4800790000000  0.5066110000000 1.0
C      1  0.4381710000000  0.5190080000000  0.5138580000000 1.0
C      1  0.4350250000000  0.4723450000000  0.4896190000000 1.0
C      1  0.5314250000000  0.5078330000000  0.4404210000000 1.0
C      1  0.4815330000000  0.4932150000000  0.4479040000000 1.0
C      1  0.4849910000000  0.5049380000000  0.5703880000000 1.0
C      1  0.4935910000000  0.4311810000000  0.4820140000000 1.0
C      1  0.5083910000000  0.5669730000000  0.4641930000000 1.0
C      1  0.5066700000000  0.4420800000000  0.5291520000000 1.0
C      1  0.5690990000000  0.4954040000000  0.5328710000000 1.0
C      1  0.5201240000000  0.5618270000000  0.4930480000000 1.0
C      1  0.4937980000000  0.5338890000000  0.5652390000000 1.0
C      1  0.5635430000000  0.5005490000000  0.4810780000000 1.0
C      1  0.4422700000000  0.5031850000000  0.5364450000000 1.0
C      1  0.4392910000000  0.5052970000000  0.4875450000000 1.0
C      1  0.5163220000000  0.4423230000000  0.4990240000000 1.0
C      1  0.4647470000000  0.4325090000000  0.4911500000000 1.0
C      1  0.4684970000000  0.5617130000000  0.5040180000000 1.0
C      1  0.4947120000000  0.4661500000000  0.4437890000000 1.0
C      1  0.5000970000000  0.4777660000000  0.5667070000000 1.0
C      1  0.5017660000000  0.5191770000000  0.4403170000000 1.0
C      1  0.5487450000000  0.4717080000000  0.5435210000000 1.0
C      1  0.4767210000000  0.5419160000000  0.5376480000000 1.0
C      1  0.5217120000000  0.5462080000000  0.4456220000000 1.0
C      1  0.5199800000000  0.4577680000000  0.5476670000000 1.0
C      1  0.5482580000000  0.5197480000000  0.4590160000000 1.0
C      1  0.4637800000000  0.5129100000000  0.5504520000000 1.0
C      1  0.5422120000000  0.5478630000000  0.4728810000000 1.0
C      1  0.5432140000000  0.4529400000000  0.5155940000000 1.0
C      1  0.4820050000000  0.4467010000000  0.4584990000000 1.0
C      1  0.4499560000000  0.5436610000000  0.5182140000000 1.0
C      1  0.4557280000000  0.4855610000000  0.4651470000000 1.0
C      1  0.4504430000000  0.4520330000000  0.4671310000000 1.0
END
