TITL C-27145-253-57 0.000278635992154091 125000 -320.431862130913 0 0 60 (C1) n - 1
REM
REM in /home/nfs/bkarasulu/CARBON/AIRSS/Generating-Clusters/AIREBO/Higher-Symm/Only-C60
REM
REM
REM
REM
REM
REM ./C.cell (28575a23ae977d3b5fae324c64b13b57)
REM
REM compiler GCC version 9.2.1 20190827 (Red Hat 9.2.1-1)
REM options -cpp -mtune=generic -march=x86-64 -g -O0 -fpre-include=/usr/include/finclude/math-vector-fortran.h
REM seed -1574636684 -946931842 -841290343 -1349354116 -348768410 -151986949 1880242111 -1511204212 -1832899648 773494121 2060064988 -1195247356 1697256438 -1927718052 -954390484 1656286875 -1764250717 240065131 1312452032 -477589868 713400984 -1137304530 -830633487 419554325 675834599 452533828 -2018513638 -863912970 926802232 859141945 -66087651 -207328880 -673896447
REM
CELL 1.54180   50.00000   50.00000   50.00000   90.00000   90.00000   90.00000
LATT -1
SFAC C  
C      1  0.4634170000000  0.5440680000000  0.4698310000000 1.0
C      1  0.5430600000000  0.5436020000000  0.4832600000000 1.0
C      1  0.4933040000000  0.5445070000000  0.5474810000000 1.0
C      1  0.4624140000000  0.4545300000000  0.4699150000000 1.0
C      1  0.5472220000000  0.4544950000000  0.4844730000000 1.0
C      1  0.4904890000000  0.4565090000000  0.5470130000000 1.0
C      1  0.4615640000000  0.5440590000000  0.5350750000000 1.0
C      1  0.5467990000000  0.5425120000000  0.5171590000000 1.0
C      1  0.4913540000000  0.5436350000000  0.4503180000000 1.0
C      1  0.4599720000000  0.4569060000000  0.5318870000000 1.0
C      1  0.5507160000000  0.4544860000000  0.5181520000000 1.0
C      1  0.4896790000000  0.4561640000000  0.4495660000000 1.0
C      1  0.5570370000000  0.5312970000000  0.5538990000000 1.0
C      1  0.4307780000000  0.5306400000000  0.5135540000000 1.0
C      1  0.5261190000000  0.5316460000000  0.4349730000000 1.0
C      1  0.5448830000000  0.4688700000000  0.5548710000000 1.0
C      1  0.4292850000000  0.4677000000000  0.5088960000000 1.0
C      1  0.5202400000000  0.4720770000000  0.4295430000000 1.0
C      1  0.5556530000000  0.5301920000000  0.4478770000000 1.0
C      1  0.4295560000000  0.5272940000000  0.4828450000000 1.0
C      1  0.5267940000000  0.5312230000000  0.5646710000000 1.0
C      1  0.5451340000000  0.4696120000000  0.4475920000000 1.0
C      1  0.4255770000000  0.4678650000000  0.4769250000000 1.0
C      1  0.5183800000000  0.4733140000000  0.5701780000000 1.0
C      1  0.5186310000000  0.4410740000000  0.4397500000000 1.0
C      1  0.5438510000000  0.4379800000000  0.5471400000000 1.0
C      1  0.4373080000000  0.4375850000000  0.5153820000000 1.0
C      1  0.5176760000000  0.5620080000000  0.4389330000000 1.0
C      1  0.5450960000000  0.5608530000000  0.5457590000000 1.0
C      1  0.4382320000000  0.5612910000000  0.5172200000000 1.0
C      1  0.5166750000000  0.4422160000000  0.5635020000000 1.0
C      1  0.5474290000000  0.4389850000000  0.4541660000000 1.0
C      1  0.4360460000000  0.4379800000000  0.4836110000000 1.0
C      1  0.5181950000000  0.5611930000000  0.5636390000000 1.0
C      1  0.5460310000000  0.5602620000000  0.4537560000000 1.0
C      1  0.4365280000000  0.5581130000000  0.4853790000000 1.0
C      1  0.4771170000000  0.4342640000000  0.5167240000000 1.0
C      1  0.4969670000000  0.4348610000000  0.4726720000000 1.0
C      1  0.5255370000000  0.4351950000000  0.5117850000000 1.0
C      1  0.4778950000000  0.5654170000000  0.5172360000000 1.0
C      1  0.4964490000000  0.5662700000000  0.4725210000000 1.0
C      1  0.5257770000000  0.5661790000000  0.5112250000000 1.0
C      1  0.4743310000000  0.4301560000000  0.4901160000000 1.0
C      1  0.5038980000000  0.4323450000000  0.5274680000000 1.0
C      1  0.5214950000000  0.4327020000000  0.4832440000000 1.0
C      1  0.4741960000000  0.5685950000000  0.4907530000000 1.0
C      1  0.5045190000000  0.5695100000000  0.5275690000000 1.0
C      1  0.5211810000000  0.5696260000000  0.4829470000000 1.0
C      1  0.4504790000000  0.5133800000000  0.5280710000000 1.0
C      1  0.5054850000000  0.5135820000000  0.4525790000000 1.0
C      1  0.5389770000000  0.5131360000000  0.5313500000000 1.0
C      1  0.4545510000000  0.4864840000000  0.5172220000000 1.0
C      1  0.4977710000000  0.4874550000000  0.4418600000000 1.0
C      1  0.5490060000000  0.4853620000000  0.5301390000000 1.0
C      1  0.4525410000000  0.5121640000000  0.4722110000000 1.0
C      1  0.5076500000000  0.5141840000000  0.5445260000000 1.0
C      1  0.5351490000000  0.5135630000000  0.4693020000000 1.0
C      1  0.4545840000000  0.4847720000000  0.4832630000000 1.0
C      1  0.4984110000000  0.4882600000000  0.5543860000000 1.0
C      1  0.5449130000000  0.4858000000000  0.4726410000000 1.0
END
