TITL C-27144-3922-135 -0.000989131757346571 125000 -338.078436160662 0 0 60 (C1) n - 1
REM
REM in /home/nfs/bkarasulu/CARBON/AIRSS/Generating-Clusters/AIREBO/Higher-Symm/Only-C60
REM
REM
REM
REM
REM
REM ./C.cell (28575a23ae977d3b5fae324c64b13b57)
REM
REM compiler GCC version 9.2.1 20190827 (Red Hat 9.2.1-1)
REM options -cpp -mtune=generic -march=x86-64 -g -O0 -fpre-include=/usr/include/finclude/math-vector-fortran.h
REM seed -1717815841 1869208860 745703798 -359671999 -612782555 -1882860730 -645948058 1496071842 297209049 -1995349249 -160436750 -1183840560 1537094894 1944148474 -643939035 -461105408 -685814658 1936307046 747010278 -1098463852 56194254 1948037581 1267840821 -73724245 1077745414 -193933671 1490032280 353126919 -1428558774 -1263119769 1513927358 1600482706 2116880846
REM
CELL 1.54180   50.00000   50.00000   50.00000   90.00000   90.00000   90.00000
LATT -1
SFAC C  
C      1  0.5685430000000  0.4905840000000  0.4851330000000 1.0
C      1  0.5245050000000  0.4321700000000  0.4827720000000 1.0
C      1  0.4548120000000  0.4456780000000  0.4864550000000 1.0
C      1  0.4276910000000  0.5153260000000  0.4872060000000 1.0
C      1  0.4782880000000  0.5669640000000  0.4870330000000 1.0
C      1  0.5469390000000  0.5462130000000  0.4894930000000 1.0
C      1  0.5655150000000  0.4884830000000  0.5142750000000 1.0
C      1  0.5271660000000  0.4330350000000  0.5128800000000 1.0
C      1  0.4531570000000  0.4479780000000  0.5163410000000 1.0
C      1  0.4298670000000  0.5119410000000  0.5159380000000 1.0
C      1  0.4791790000000  0.5646310000000  0.5154420000000 1.0
C      1  0.5449370000000  0.5489660000000  0.5175250000000 1.0
C      1  0.4836490000000  0.4452850000000  0.4771060000000 1.0
C      1  0.4425120000000  0.4906130000000  0.4723400000000 1.0
C      1  0.4619210000000  0.5423530000000  0.4712280000000 1.0
C      1  0.5232050000000  0.5573990000000  0.4674930000000 1.0
C      1  0.5626710000000  0.5208940000000  0.4731290000000 1.0
C      1  0.5398070000000  0.4547520000000  0.4697690000000 1.0
C      1  0.4808360000000  0.4458730000000  0.5279710000000 1.0
C      1  0.4452930000000  0.4865790000000  0.5229690000000 1.0
C      1  0.4561150000000  0.5470280000000  0.5291260000000 1.0
C      1  0.5180090000000  0.5603890000000  0.5294930000000 1.0
C      1  0.5618640000000  0.5156370000000  0.5312970000000 1.0
C      1  0.5412800000000  0.4578290000000  0.5222690000000 1.0
C      1  0.4544400000000  0.4648360000000  0.4583540000000 1.0
C      1  0.4438200000000  0.5206400000000  0.4569290000000 1.0
C      1  0.4907640000000  0.5541490000000  0.4576230000000 1.0
C      1  0.5391070000000  0.5315800000000  0.4525590000000 1.0
C      1  0.5551390000000  0.4785800000000  0.4562760000000 1.0
C      1  0.5049700000000  0.4411220000000  0.4563510000000 1.0
C      1  0.4517490000000  0.4670020000000  0.5445430000000 1.0
C      1  0.4481060000000  0.5206670000000  0.5433200000000 1.0
C      1  0.4919410000000  0.5521730000000  0.5444450000000 1.0
C      1  0.5414950000000  0.5337410000000  0.5477700000000 1.0
C      1  0.5490160000000  0.4799500000000  0.5428130000000 1.0
C      1  0.5087900000000  0.4428980000000  0.5397530000000 1.0
C      1  0.4778320000000  0.5247990000000  0.5170150000000 1.0
C      1  0.5086880000000  0.5326210000000  0.5138710000000 1.0
C      1  0.5325440000000  0.5109610000000  0.5164640000000 1.0
C      1  0.5234880000000  0.4813580000000  0.5121370000000 1.0
C      1  0.4939810000000  0.4731420000000  0.5183660000000 1.0
C      1  0.4719630000000  0.4946010000000  0.5112510000000 1.0
C      1  0.4820890000000  0.5232950000000  0.4855490000000 1.0
C      1  0.5115340000000  0.5299100000000  0.4812730000000 1.0
C      1  0.5332580000000  0.5089730000000  0.4850160000000 1.0
C      1  0.5237250000000  0.4795290000000  0.4802180000000 1.0
C      1  0.4940820000000  0.4722350000000  0.4868240000000 1.0
C      1  0.4732350000000  0.4936170000000  0.4787800000000 1.0
C      1  0.5258030000000  0.4879040000000  0.5606540000000 1.0
C      1  0.5022360000000  0.4695990000000  0.5586860000000 1.0
C      1  0.4733260000000  0.4803900000000  0.5622540000000 1.0
C      1  0.4703650000000  0.5103130000000  0.5611940000000 1.0
C      1  0.4943610000000  0.5283310000000  0.5627250000000 1.0
C      1  0.5214970000000  0.5171530000000  0.5625290000000 1.0
C      1  0.5263470000000  0.4854520000000  0.4395290000000 1.0
C      1  0.5024350000000  0.4659920000000  0.4379810000000 1.0
C      1  0.4745020000000  0.4786970000000  0.4401390000000 1.0
C      1  0.4713600000000  0.5079050000000  0.4415030000000 1.0
C      1  0.4937890000000  0.5248140000000  0.4409970000000 1.0
C      1  0.5204590000000  0.5144730000000  0.4396270000000 1.0
END
