TITL C-27143-4867-17 0.000717176013763348 125000 -335.053931533161 0 0 60 (C1) n - 1
REM
REM in /home/nfs/bkarasulu/CARBON/AIRSS/Generating-Clusters/AIREBO/Higher-Symm/Only-C60
REM
REM
REM
REM
REM
REM ./C.cell (28575a23ae977d3b5fae324c64b13b57)
REM
REM compiler GCC version 9.2.1 20190827 (Red Hat 9.2.1-1)
REM options -cpp -mtune=generic -march=x86-64 -g -O0 -fpre-include=/usr/include/finclude/math-vector-fortran.h
REM seed -1893357097 378313301 916944428 1039042587 932434974 952190034 -1476383492 -649498635 562576455 -2008397306 362807288 -1936391885 -1491838051 -1342762612 -1642669235 913081239 1671505309 -1567583244 -126724308 1465035889 -951419492 1566172645 -1638171261 262637900 -1334397660 -1129105939 1369176828 -1714148436 -1195287475 2133697794 614428808 -504053623 -149743537
REM
CELL 1.54180   50.00000   50.00000   50.00000   90.00000   90.00000   90.00000
LATT -1
SFAC C  
C      1  0.4976270000000  0.5309120000000  0.5545040000000 1.0
C      1  0.5278270000000  0.5202970000000  0.5570510000000 1.0
C      1  0.5475140000000  0.5318150000000  0.5340290000000 1.0
C      1  0.5546570000000  0.5312200000000  0.5019470000000 1.0
C      1  0.5588310000000  0.5200870000000  0.4720090000000 1.0
C      1  0.5374270000000  0.5330570000000  0.4529250000000 1.0
C      1  0.5075570000000  0.5278310000000  0.4442110000000 1.0
C      1  0.4740630000000  0.5236880000000  0.4446160000000 1.0
C      1  0.4516160000000  0.5303910000000  0.4678000000000 1.0
C      1  0.4452920000000  0.5304840000000  0.4993410000000 1.0
C      1  0.4425420000000  0.5194850000000  0.5288040000000 1.0
C      1  0.4653000000000  0.5315800000000  0.5482610000000 1.0
C      1  0.4914670000000  0.4678140000000  0.5554070000000 1.0
C      1  0.5254550000000  0.4700030000000  0.5547960000000 1.0
C      1  0.5507230000000  0.4806840000000  0.5380760000000 1.0
C      1  0.5555270000000  0.4680900000000  0.5086950000000 1.0
C      1  0.5544600000000  0.4701090000000  0.4747010000000 1.0
C      1  0.5378350000000  0.4809110000000  0.4495080000000 1.0
C      1  0.5083230000000  0.4686950000000  0.4440330000000 1.0
C      1  0.4743960000000  0.4717010000000  0.4458450000000 1.0
C      1  0.4485400000000  0.4806950000000  0.4624430000000 1.0
C      1  0.4437900000000  0.4678760000000  0.4917490000000 1.0
C      1  0.4449100000000  0.4694170000000  0.5257630000000 1.0
C      1  0.4617770000000  0.4800660000000  0.5509900000000 1.0
C      1  0.4942490000000  0.4996340000000  0.5635690000000 1.0
C      1  0.5333140000000  0.4967400000000  0.5707450000000 1.0
C      1  0.5627930000000  0.5050210000000  0.5452240000000 1.0
C      1  0.5647060000000  0.4997950000000  0.5058690000000 1.0
C      1  0.5714130000000  0.4960870000000  0.4667540000000 1.0
C      1  0.5458280000000  0.5048770000000  0.4374300000000 1.0
C      1  0.5065390000000  0.4997810000000  0.4333480000000 1.0
C      1  0.4668560000000  0.4994140000000  0.4305190000000 1.0
C      1  0.4364080000000  0.5049650000000  0.4556190000000 1.0
C      1  0.4349320000000  0.4995540000000  0.4949840000000 1.0
C      1  0.4291040000000  0.4959230000000  0.5342340000000 1.0
C      1  0.4547600000000  0.5042200000000  0.5636140000000 1.0
C      1  0.4529090000000  0.5594690000000  0.5082460000000 1.0
C      1  0.4636660000000  0.5602220000000  0.5335910000000 1.0
C      1  0.4856030000000  0.5758870000000  0.5427400000000 1.0
C      1  0.5083330000000  0.5597010000000  0.5482260000000 1.0
C      1  0.5331330000000  0.5602080000000  0.5365320000000 1.0
C      1  0.5414610000000  0.5761510000000  0.5144850000000 1.0
C      1  0.5467850000000  0.5603350000000  0.4914730000000 1.0
C      1  0.5350220000000  0.5604480000000  0.4664920000000 1.0
C      1  0.5137860000000  0.5740790000000  0.4558630000000 1.0
C      1  0.4902650000000  0.5560460000000  0.4461610000000 1.0
C      1  0.4651150000000  0.5583290000000  0.4632030000000 1.0
C      1  0.4591020000000  0.5743400000000  0.4847330000000 1.0
C      1  0.5095150000000  0.4367570000000  0.4497230000000 1.0
C      1  0.4806810000000  0.4410960000000  0.4518380000000 1.0
C      1  0.4611340000000  0.4272430000000  0.4660170000000 1.0
C      1  0.4494600000000  0.4360180000000  0.4894520000000 1.0
C      1  0.4524620000000  0.4395810000000  0.5184240000000 1.0
C      1  0.4670750000000  0.4260740000000  0.5378830000000 1.0
C      1  0.4897650000000  0.4357210000000  0.5503500000000 1.0
C      1  0.5187490000000  0.4397950000000  0.5478800000000 1.0
C      1  0.5383230000000  0.4263570000000  0.5333670000000 1.0
C      1  0.5500970000000  0.4360530000000  0.5103550000000 1.0
C      1  0.5469760000000  0.4401960000000  0.4815460000000 1.0
C      1  0.5322230000000  0.4269730000000  0.4620070000000 1.0
END
