TITL C-27139-4854-185 -0.000291819789831492 125000 -332.993888943853 0 0 60 (C1) n - 1
REM
REM in /home/nfs/bkarasulu/CARBON/AIRSS/Generating-Clusters/AIREBO/Higher-Symm/Only-C60
REM
REM
REM
REM
REM
REM ./C.cell (28575a23ae977d3b5fae324c64b13b57)
REM
REM compiler GCC version 9.2.1 20190827 (Red Hat 9.2.1-1)
REM options -cpp -mtune=generic -march=x86-64 -g -O0 -fpre-include=/usr/include/finclude/math-vector-fortran.h
REM seed -1318214222 -1843732683 1971154741 1997866834 -803931652 1906373823 -2062134894 -1442335784 1703677853 66495433 1218815152 355372047 2122195228 -305794 17236602 566567745 -831153480 376645274 930681170 -922998829 1056220825 1454776498 163360603 885312649 1542240995 193198055 375387221 -722318456 2052345083 -1435725428 -1941870094 -796925738 -1402278825
REM
CELL 1.54180   50.00000   50.00000   50.00000   90.00000   90.00000   90.00000
LATT -1
SFAC C  
C      1  0.5305160000000  0.5582440000000  0.4510990000000 1.0
C      1  0.5286620000000  0.4281920000000  0.4736070000000 1.0
C      1  0.5282670000000  0.5142560000000  0.5739050000000 1.0
C      1  0.4589730000000  0.4674950000000  0.5575340000000 1.0
C      1  0.4586660000000  0.5652650000000  0.4951080000000 1.0
C      1  0.4596020000000  0.4656780000000  0.4451460000000 1.0
C      1  0.5436310000000  0.4475100000000  0.5155370000000 1.0
C      1  0.5439000000000  0.5448280000000  0.5339730000000 1.0
C      1  0.5440710000000  0.5116850000000  0.4509980000000 1.0
C      1  0.4714420000000  0.4253190000000  0.5236290000000 1.0
C      1  0.4726850000000  0.5590570000000  0.5512850000000 1.0
C      1  0.4742870000000  0.5159780000000  0.4259650000000 1.0
C      1  0.5680070000000  0.5442850000000  0.5197440000000 1.0
C      1  0.5711000000000  0.5001210000000  0.4494770000000 1.0
C      1  0.5672700000000  0.4597470000000  0.5230270000000 1.0
C      1  0.4632710000000  0.4896650000000  0.4689630000000 1.0
C      1  0.4598070000000  0.4759520000000  0.5251770000000 1.0
C      1  0.4650060000000  0.5344530000000  0.5080300000000 1.0
C      1  0.5031650000000  0.5076430000000  0.5790330000000 1.0
C      1  0.5036490000000  0.5632540000000  0.4519880000000 1.0
C      1  0.5020660000000  0.4268400000000  0.4674980000000 1.0
C      1  0.5359570000000  0.5146960000000  0.5441100000000 1.0
C      1  0.5397400000000  0.5357250000000  0.4651260000000 1.0
C      1  0.5371510000000  0.4506750000000  0.4881200000000 1.0
C      1  0.4907310000000  0.4653330000000  0.5481450000000 1.0
C      1  0.4908780000000  0.5644960000000  0.5029720000000 1.0
C      1  0.4922810000000  0.4732900000000  0.4469640000000 1.0
C      1  0.4855930000000  0.5146790000000  0.4765950000000 1.0
C      1  0.4817700000000  0.4682390000000  0.4996640000000 1.0
C      1  0.4867050000000  0.5162200000000  0.5277040000000 1.0
C      1  0.4537650000000  0.5755830000000  0.4705910000000 1.0
C      1  0.4543570000000  0.4391350000000  0.4453290000000 1.0
C      1  0.4547400000000  0.4803050000000  0.5809360000000 1.0
C      1  0.5093050000000  0.4780970000000  0.5082250000000 1.0
C      1  0.5148290000000  0.5160730000000  0.5174900000000 1.0
C      1  0.5114940000000  0.5029590000000  0.4870400000000 1.0
C      1  0.5349590000000  0.4804220000000  0.4771550000000 1.0
C      1  0.5354160000000  0.4841070000000  0.5291620000000 1.0
C      1  0.5344280000000  0.5344140000000  0.4966110000000 1.0
C      1  0.4493270000000  0.4676850000000  0.4894910000000 1.0
C      1  0.4544230000000  0.5061670000000  0.5312900000000 1.0
C      1  0.4538220000000  0.5266610000000  0.4784360000000 1.0
C      1  0.4867410000000  0.4542890000000  0.4718800000000 1.0
C      1  0.4858600000000  0.4967330000000  0.5536710000000 1.0
C      1  0.4880890000000  0.5474050000000  0.4751580000000 1.0
C      1  0.5204420000000  0.4543110000000  0.5359880000000 1.0
C      1  0.5184160000000  0.5552800000000  0.5187980000000 1.0
C      1  0.5194590000000  0.4925590000000  0.4493580000000 1.0
C      1  0.4574770000000  0.5154910000000  0.4483940000000 1.0
C      1  0.4532910000000  0.4445600000000  0.5141000000000 1.0
C      1  0.4565900000000  0.5389690000000  0.5399870000000 1.0
C      1  0.5644930000000  0.4892210000000  0.5128110000000 1.0
C      1  0.5645720000000  0.5197600000000  0.5003210000000 1.0
C      1  0.5641070000000  0.4935500000000  0.4802980000000 1.0
C      1  0.4736700000000  0.5698200000000  0.4502250000000 1.0
C      1  0.4722440000000  0.4225450000000  0.4612110000000 1.0
C      1  0.4731810000000  0.5026360000000  0.5858150000000 1.0
C      1  0.4957150000000  0.4994150000000  0.4268340000000 1.0
C      1  0.4930640000000  0.4342200000000  0.5374110000000 1.0
C      1  0.4928760000000  0.5688040000000  0.5358630000000 1.0
END
