TITL C-27137-4574-28 -0.00101203062036273 125000 -313.2594306236 0 0 60 (C1) n - 1
REM
REM in /home/nfs/bkarasulu/CARBON/AIRSS/Generating-Clusters/AIREBO/Higher-Symm/Only-C60
REM
REM
REM
REM
REM
REM ./C.cell (28575a23ae977d3b5fae324c64b13b57)
REM
REM compiler GCC version 9.2.1 20190827 (Red Hat 9.2.1-1)
REM options -cpp -mtune=generic -march=x86-64 -g -O0 -fpre-include=/usr/include/finclude/math-vector-fortran.h
REM seed 763803058 1662371276 -1177560947 -495804463 727345280 -1813073856 543204551 951501594 2102971910 297968091 -1927020226 1751243011 1473500800 1391455525 -640526625 -523595773 714334260 438926731 -1285488406 1081549906 -817120159 1183250094 854633037 -1133150813 -1826479796 -1566341431 -1404687965 2123710240 -959199948 -242195315 -2050260912 1129035418 -291448486
REM
CELL 1.54180   50.00000   50.00000   50.00000   90.00000   90.00000   90.00000
LATT -1
SFAC C  
C      1  0.4635460000000  0.5208730000000  0.4923490000000 1.0
C      1  0.4611650000000  0.4655380000000  0.4562320000000 1.0
C      1  0.5208650000000  0.4641240000000  0.5082490000000 1.0
C      1  0.5251230000000  0.4932660000000  0.5470180000000 1.0
C      1  0.5011380000000  0.5430150000000  0.4664560000000 1.0
C      1  0.4921630000000  0.5143710000000  0.5095790000000 1.0
C      1  0.5509620000000  0.4736160000000  0.4701730000000 1.0
C      1  0.5488980000000  0.4894920000000  0.5229140000000 1.0
C      1  0.4234080000000  0.4866850000000  0.5062150000000 1.0
C      1  0.5072530000000  0.4457750000000  0.5334320000000 1.0
C      1  0.5434460000000  0.4404590000000  0.5184930000000 1.0
C      1  0.4909960000000  0.4803840000000  0.5085560000000 1.0
C      1  0.5082710000000  0.5471080000000  0.5562960000000 1.0
C      1  0.5371280000000  0.4464480000000  0.4655460000000 1.0
C      1  0.4896560000000  0.5419870000000  0.5292830000000 1.0
C      1  0.5332460000000  0.4917800000000  0.4928080000000 1.0
C      1  0.4638930000000  0.5607820000000  0.4946560000000 1.0
C      1  0.5347650000000  0.4975670000000  0.4529800000000 1.0
C      1  0.5515100000000  0.5395450000000  0.4991610000000 1.0
C      1  0.4616160000000  0.4992840000000  0.5354950000000 1.0
C      1  0.5110990000000  0.5701380000000  0.4937760000000 1.0
C      1  0.4926650000000  0.5212490000000  0.5657190000000 1.0
C      1  0.4616270000000  0.4927020000000  0.4733870000000 1.0
C      1  0.4801140000000  0.4242430000000  0.4956340000000 1.0
C      1  0.4373870000000  0.4784820000000  0.5426770000000 1.0
C      1  0.4784820000000  0.4345900000000  0.5235110000000 1.0
C      1  0.4521800000000  0.5292300000000  0.5337070000000 1.0
C      1  0.5091640000000  0.4322370000000  0.4798760000000 1.0
C      1  0.4772580000000  0.4698200000000  0.4339030000000 1.0
C      1  0.4427710000000  0.5501160000000  0.5099830000000 1.0
C      1  0.4561770000000  0.4576680000000  0.5281620000000 1.0
C      1  0.5811080000000  0.4795570000000  0.5184580000000 1.0
C      1  0.5109920000000  0.5367460000000  0.4334120000000 1.0
C      1  0.5444740000000  0.4697680000000  0.5571620000000 1.0
C      1  0.5344080000000  0.5263770000000  0.4526200000000 1.0
C      1  0.4913140000000  0.4927090000000  0.5508130000000 1.0
C      1  0.5346410000000  0.5541580000000  0.5487030000000 1.0
C      1  0.5095550000000  0.5135360000000  0.4812030000000 1.0
C      1  0.5209320000000  0.5172630000000  0.5271640000000 1.0
C      1  0.4836900000000  0.5234050000000  0.4364150000000 1.0
C      1  0.4637720000000  0.4411560000000  0.4737290000000 1.0
C      1  0.4561800000000  0.5320800000000  0.4437140000000 1.0
C      1  0.5361990000000  0.4450740000000  0.5477620000000 1.0
C      1  0.4572210000000  0.4832210000000  0.5057530000000 1.0
C      1  0.5071680000000  0.5774670000000  0.4639840000000 1.0
C      1  0.5718220000000  0.4778680000000  0.5485940000000 1.0
C      1  0.5400700000000  0.5389830000000  0.5249920000000 1.0
C      1  0.5729470000000  0.4879110000000  0.4908630000000 1.0
C      1  0.4881770000000  0.5642590000000  0.5088050000000 1.0
C      1  0.4906510000000  0.5018990000000  0.4582310000000 1.0
C      1  0.4409940000000  0.5099230000000  0.4525530000000 1.0
C      1  0.5325850000000  0.5490840000000  0.4778900000000 1.0
C      1  0.4902900000000  0.4603590000000  0.4830340000000 1.0
C      1  0.4343580000000  0.5170440000000  0.5078500000000 1.0
C      1  0.5075360000000  0.4545920000000  0.4549500000000 1.0
C      1  0.4831800000000  0.4620450000000  0.5462860000000 1.0
C      1  0.4696750000000  0.5436100000000  0.4695320000000 1.0
C      1  0.5602000000000  0.5147720000000  0.4921560000000 1.0
C      1  0.5085040000000  0.4815320000000  0.4404950000000 1.0
C      1  0.4693840000000  0.5410280000000  0.5566540000000 1.0
END
