TITL C-27141-4733-107 0.00267673902689082 125000 -313.312068162827 0 0 60 (C1) n - 1
REM
REM in /home/nfs/bkarasulu/CARBON/AIRSS/Generating-Clusters/AIREBO/Higher-Symm/Only-C60
REM
REM
REM
REM
REM
REM ./C.cell (28575a23ae977d3b5fae324c64b13b57)
REM
REM compiler GCC version 9.2.1 20190827 (Red Hat 9.2.1-1)
REM options -cpp -mtune=generic -march=x86-64 -g -O0 -fpre-include=/usr/include/finclude/math-vector-fortran.h
REM seed -353642228 -2096854415 37694784 728682685 -905140111 -1944353892 -86481074 1122867130 -621937138 -71419765 2117189451 -324132136 -1358169229 -867848045 -175253465 -2011764995 -276929521 -1036416459 -1113552642 -1324814653 -532004072 -972601890 -1302359754 1508856588 469997782 -891469822 -710863733 -1467858362 2111815735 -205630017 31426523 -2028537066 591703053
REM
CELL 1.54180   50.00000   50.00000   50.00000   90.00000   90.00000   90.00000
LATT -1
SFAC C  
C      1  0.5452420000000  0.5383800000000  0.5082530000000 1.0
C      1  0.5473430000000  0.5207980000000  0.5340670000000 1.0
C      1  0.5516100000000  0.4843010000000  0.5329500000000 1.0
C      1  0.5554450000000  0.4603980000000  0.5090530000000 1.0
C      1  0.5371790000000  0.4813900000000  0.4895060000000 1.0
C      1  0.5568010000000  0.4952990000000  0.4655540000000 1.0
C      1  0.5235990000000  0.5296150000000  0.4855130000000 1.0
C      1  0.4907750000000  0.5350780000000  0.5590650000000 1.0
C      1  0.4985420000000  0.4695530000000  0.5617010000000 1.0
C      1  0.4967050000000  0.4342760000000  0.5130110000000 1.0
C      1  0.4879960000000  0.4450320000000  0.4570680000000 1.0
C      1  0.5227630000000  0.5033260000000  0.4131600000000 1.0
C      1  0.4915920000000  0.5390040000000  0.4385550000000 1.0
C      1  0.5212820000000  0.5918260000000  0.4991730000000 1.0
C      1  0.5152880000000  0.4366930000000  0.4755600000000 1.0
C      1  0.5184610000000  0.4800600000000  0.4374650000000 1.0
C      1  0.5242280000000  0.5314750000000  0.4319710000000 1.0
C      1  0.5083030000000  0.5665630000000  0.4842960000000 1.0
C      1  0.5109820000000  0.5576700000000  0.5416500000000 1.0
C      1  0.5150740000000  0.4989450000000  0.5650320000000 1.0
C      1  0.5178400000000  0.4442890000000  0.5376970000000 1.0
C      1  0.5751520000000  0.5175060000000  0.4766110000000 1.0
C      1  0.5712550000000  0.5369900000000  0.4917360000000 1.0
C      1  0.5761460000000  0.5233150000000  0.5481100000000 1.0
C      1  0.5771960000000  0.4961640000000  0.5440480000000 1.0
C      1  0.5735940000000  0.4435960000000  0.5280600000000 1.0
C      1  0.5752050000000  0.4542280000000  0.4829050000000 1.0
C      1  0.5733400000000  0.4688360000000  0.4624560000000 1.0
C      1  0.4684330000000  0.5233320000000  0.4531480000000 1.0
C      1  0.4591750000000  0.5505090000000  0.4930610000000 1.0
C      1  0.4702320000000  0.5425210000000  0.5329880000000 1.0
C      1  0.4702800000000  0.5086810000000  0.5538880000000 1.0
C      1  0.4776810000000  0.4644330000000  0.5406110000000 1.0
C      1  0.4767540000000  0.4536280000000  0.4989440000000 1.0
C      1  0.4706020000000  0.4688500000000  0.4558070000000 1.0
C      1  0.5314510000000  0.4719090000000  0.5525060000000 1.0
C      1  0.5297240000000  0.4392250000000  0.5062430000000 1.0
C      1  0.5167120000000  0.4499420000000  0.4441620000000 1.0
C      1  0.5410790000000  0.5033840000000  0.4419530000000 1.0
C      1  0.5168850000000  0.5482590000000  0.4593080000000 1.0
C      1  0.5261030000000  0.5628090000000  0.5133880000000 1.0
C      1  0.5235180000000  0.5281690000000  0.5529920000000 1.0
C      1  0.4360410000000  0.5284300000000  0.4928240000000 1.0
C      1  0.4462290000000  0.5276660000000  0.5252810000000 1.0
C      1  0.4457840000000  0.4994210000000  0.5404550000000 1.0
C      1  0.4520890000000  0.4715090000000  0.5322710000000 1.0
C      1  0.4463970000000  0.4660010000000  0.4991760000000 1.0
C      1  0.4484220000000  0.4800050000000  0.4682200000000 1.0
C      1  0.4464770000000  0.5097610000000  0.4663870000000 1.0
C      1  0.5065010000000  0.4667110000000  0.4888930000000 1.0
C      1  0.4981370000000  0.4844440000000  0.4610620000000 1.0
C      1  0.4956010000000  0.5168690000000  0.4709770000000 1.0
C      1  0.4866940000000  0.5426160000000  0.4915540000000 1.0
C      1  0.5004880000000  0.5330230000000  0.5207110000000 1.0
C      1  0.4983160000000  0.5025380000000  0.5356600000000 1.0
C      1  0.5054310000000  0.4719950000000  0.5224740000000 1.0
C      1  0.4258240000000  0.4993110000000  0.5059450000000 1.0
C      1  0.4839880000000  0.5005680000000  0.5054180000000 1.0
C      1  0.5170790000000  0.5031510000000  0.5005470000000 1.0
C      1  0.4581400000000  0.4970740000000  0.5025440000000 1.0
END
