TITL C-27138-9601-34 0.000137510248920721 125000 -330.212959620402 0 0 60 (C1) n - 1
REM
REM in /home/nfs/bkarasulu/CARBON/AIRSS/Generating-Clusters/AIREBO/Higher-Symm/Only-C60
REM
REM
REM
REM
REM
REM ./C.cell (28575a23ae977d3b5fae324c64b13b57)
REM
REM compiler GCC version 9.2.1 20190827 (Red Hat 9.2.1-1)
REM options -cpp -mtune=generic -march=x86-64 -g -O0 -fpre-include=/usr/include/finclude/math-vector-fortran.h
REM seed -1631314391 1253385514 1889332332 1521170955 1592953481 1645263730 705731469 -1961559440 61749207 -1970754494 584104917 -36901968 1017542639 2017024653 -1366422348 1746066072 1839659806 383640521 743332624 -1565197987 -527178308 2129007842 -192747293 -1535102494 218507455 2076386407 -1644582158 1518324683 -389120173 1438430989 633491151 739889941 -2146630742
REM
CELL 1.54180   50.00000   50.00000   50.00000   90.00000   90.00000   90.00000
LATT -1
SFAC C  
C      1  0.4825110000000  0.4500600000000  0.5127170000000 1.0
C      1  0.4454120000000  0.5024470000000  0.5121330000000 1.0
C      1  0.4712740000000  0.5566510000000  0.5191120000000 1.0
C      1  0.5500200000000  0.5360250000000  0.5061850000000 1.0
C      1  0.5427740000000  0.4710210000000  0.5089070000000 1.0
C      1  0.5157260000000  0.4506860000000  0.5054610000000 1.0
C      1  0.5545170000000  0.5027980000000  0.5119300000000 1.0
C      1  0.5298580000000  0.5560840000000  0.5198690000000 1.0
C      1  0.4503360000000  0.5355770000000  0.5061800000000 1.0
C      1  0.4549430000000  0.4703730000000  0.5060650000000 1.0
C      1  0.4861420000000  0.4611730000000  0.5433740000000 1.0
C      1  0.4567440000000  0.5012110000000  0.5437390000000 1.0
C      1  0.4864260000000  0.5414420000000  0.5414490000000 1.0
C      1  0.5302240000000  0.5249730000000  0.5568810000000 1.0
C      1  0.5319040000000  0.4777630000000  0.5402850000000 1.0
C      1  0.5123650000000  0.4626190000000  0.5520240000000 1.0
C      1  0.5429190000000  0.5040560000000  0.5441740000000 1.0
C      1  0.5134940000000  0.5416020000000  0.5420350000000 1.0
C      1  0.4689440000000  0.5239400000000  0.5542330000000 1.0
C      1  0.4647730000000  0.4761300000000  0.5526760000000 1.0
C      1  0.5612840000000  0.4476640000000  0.5262880000000 1.0
C      1  0.4635290000000  0.4259970000000  0.5274620000000 1.0
C      1  0.4133580000000  0.5068360000000  0.5246000000000 1.0
C      1  0.4883910000000  0.5803410000000  0.5323520000000 1.0
C      1  0.5780920000000  0.5329410000000  0.5232810000000 1.0
C      1  0.4457160000000  0.4475350000000  0.5279400000000 1.0
C      1  0.5356170000000  0.4366960000000  0.5279250000000 1.0
C      1  0.5862410000000  0.5065080000000  0.5253960000000 1.0
C      1  0.5135970000000  0.5804410000000  0.5326400000000 1.0
C      1  0.4224260000000  0.5330350000000  0.5234870000000 1.0
C      1  0.5360060000000  0.4707750000000  0.4541090000000 1.0
C      1  0.4865390000000  0.4532800000000  0.4595500000000 1.0
C      1  0.4564920000000  0.4969020000000  0.4614120000000 1.0
C      1  0.4870030000000  0.5397240000000  0.4696580000000 1.0
C      1  0.5350090000000  0.5225400000000  0.4587470000000 1.0
C      1  0.4654280000000  0.4697750000000  0.4558100000000 1.0
C      1  0.5147990000000  0.4542800000000  0.4532130000000 1.0
C      1  0.5446810000000  0.4973880000000  0.4609400000000 1.0
C      1  0.5140590000000  0.5402650000000  0.4688000000000 1.0
C      1  0.4662610000000  0.5220500000000  0.4591600000000 1.0
C      1  0.5533000000000  0.5439890000000  0.4750640000000 1.0
C      1  0.5570670000000  0.4639440000000  0.4786960000000 1.0
C      1  0.4818520000000  0.4321440000000  0.4836630000000 1.0
C      1  0.4309930000000  0.4956270000000  0.4818030000000 1.0
C      1  0.4728670000000  0.5625770000000  0.4874010000000 1.0
C      1  0.4476270000000  0.5438790000000  0.4746510000000 1.0
C      1  0.4410660000000  0.4635530000000  0.4767340000000 1.0
C      1  0.5153190000000  0.4325460000000  0.4776590000000 1.0
C      1  0.5691260000000  0.4955550000000  0.4820900000000 1.0
C      1  0.5280490000000  0.5640850000000  0.4846430000000 1.0
C      1  0.4548960000000  0.4181210000000  0.4784910000000 1.0
C      1  0.4098240000000  0.5154720000000  0.4714110000000 1.0
C      1  0.4871040000000  0.5890080000000  0.4802610000000 1.0
C      1  0.5828620000000  0.5389380000000  0.4678980000000 1.0
C      1  0.5631010000000  0.4335960000000  0.4768710000000 1.0
C      1  0.5427430000000  0.4182130000000  0.4765700000000 1.0
C      1  0.5908490000000  0.5151020000000  0.4722600000000 1.0
C      1  0.5124530000000  0.5894730000000  0.4794380000000 1.0
C      1  0.4182740000000  0.5390820000000  0.4667670000000 1.0
C      1  0.4348000000000  0.4334950000000  0.4754260000000 1.0
END
