TITL C-27145-253-198 -0.000225596968691346 125000 -332.837673882997 0 0 60 (C1) n - 1
REM
REM in /home/nfs/bkarasulu/CARBON/AIRSS/Generating-Clusters/AIREBO/Higher-Symm/Only-C60
REM
REM
REM
REM
REM
REM ./C.cell (28575a23ae977d3b5fae324c64b13b57)
REM
REM compiler GCC version 9.2.1 20190827 (Red Hat 9.2.1-1)
REM options -cpp -mtune=generic -march=x86-64 -g -O0 -fpre-include=/usr/include/finclude/math-vector-fortran.h
REM seed -915992758 811855455 1807687708 24245259 73987110 -176249808 -1274150759 996518001 230110282 -779773117 -1178871898 1721719667 -1696757105 647878656 -602442565 -971645060 2061081016 1753799163 1636754337 681464460 -1746111293 -627133555 -1102776456 -2088178818 903618673 -691326423 -543369683 569403247 1752728442 -431009750 -1355764698 -1308977998 1508456020
REM
CELL 1.54180   50.00000   50.00000   50.00000   90.00000   90.00000   90.00000
LATT -1
SFAC C  
C      1  0.4701370000000  0.5379120000000  0.5621810000000 1.0
C      1  0.5530310000000  0.5220210000000  0.5578850000000 1.0
C      1  0.4839830000000  0.4576490000000  0.5590400000000 1.0
C      1  0.5287450000000  0.5364440000000  0.5576340000000 1.0
C      1  0.4579550000000  0.5119060000000  0.5584610000000 1.0
C      1  0.5080510000000  0.4431330000000  0.5614260000000 1.0
C      1  0.4570070000000  0.4582280000000  0.4759180000000 1.0
C      1  0.4806700000000  0.5686880000000  0.4715050000000 1.0
C      1  0.5647770000000  0.4740490000000  0.4635980000000 1.0
C      1  0.5442830000000  0.4557290000000  0.4666510000000 1.0
C      1  0.5111430000000  0.5615850000000  0.4741740000000 1.0
C      1  0.4411090000000  0.4805500000000  0.4751990000000 1.0
C      1  0.5294790000000  0.4427800000000  0.5442160000000 1.0
C      1  0.4393150000000  0.5002110000000  0.5745760000000 1.0
C      1  0.5236130000000  0.5574590000000  0.5742970000000 1.0
C      1  0.4623350000000  0.4541020000000  0.5753380000000 1.0
C      1  0.5605360000000  0.5031320000000  0.5396120000000 1.0
C      1  0.4707990000000  0.5586080000000  0.5791900000000 1.0
C      1  0.5500390000000  0.5514840000000  0.4942510000000 1.0
C      1  0.5134170000000  0.4324330000000  0.4959050000000 1.0
C      1  0.4242030000000  0.5172250000000  0.5091250000000 1.0
C      1  0.4343350000000  0.5472960000000  0.5082390000000 1.0
C      1  0.4832380000000  0.4207750000000  0.4994720000000 1.0
C      1  0.5704570000000  0.5320860000000  0.4901640000000 1.0
C      1  0.4682320000000  0.5460740000000  0.5106110000000 1.0
C      1  0.5533710000000  0.5012720000000  0.5084690000000 1.0
C      1  0.4791510000000  0.4532030000000  0.5086470000000 1.0
C      1  0.5251380000000  0.5440320000000  0.5085360000000 1.0
C      1  0.4492940000000  0.5008820000000  0.5082130000000 1.0
C      1  0.5257000000000  0.4534610000000  0.5148590000000 1.0
C      1  0.5112450000000  0.4794830000000  0.5241070000000 1.0
C      1  0.4678320000000  0.4992360000000  0.5313890000000 1.0
C      1  0.5132470000000  0.5297710000000  0.5323850000000 1.0
C      1  0.4828790000000  0.4730430000000  0.5330690000000 1.0
C      1  0.5236870000000  0.5018740000000  0.5241420000000 1.0
C      1  0.4823670000000  0.5303530000000  0.5328670000000 1.0
C      1  0.4814310000000  0.4119620000000  0.4662890000000 1.0
C      1  0.4257740000000  0.5521050000000  0.4758890000000 1.0
C      1  0.5739340000000  0.5279560000000  0.4591400000000 1.0
C      1  0.5060170000000  0.4177450000000  0.4530180000000 1.0
C      1  0.5578120000000  0.5491020000000  0.4475250000000 1.0
C      1  0.4163520000000  0.5289130000000  0.4644130000000 1.0
C      1  0.5090930000000  0.5317710000000  0.4478630000000 1.0
C      1  0.6067200000000  0.4589690000000  0.4333450000000 1.0
C      1  0.4681030000000  0.4949000000000  0.4495710000000 1.0
C      1  0.4840720000000  0.5426910000000  0.4516810000000 1.0
C      1  0.4828710000000  0.4744500000000  0.4501660000000 1.0
C      1  0.5857780000000  0.4668630000000  0.4469830000000 1.0
C      1  0.4533350000000  0.5679110000000  0.4880010000000 1.0
C      1  0.5682050000000  0.5001770000000  0.4778910000000 1.0
C      1  0.4582350000000  0.4302340000000  0.4784610000000 1.0
C      1  0.5413580000000  0.5620470000000  0.4678220000000 1.0
C      1  0.4207220000000  0.5044600000000  0.4805110000000 1.0
C      1  0.5227360000000  0.4341380000000  0.4694970000000 1.0
C      1  0.5202580000000  0.4704250000000  0.4858690000000 1.0
C      1  0.4604860000000  0.5074310000000  0.4785520000000 1.0
C      1  0.5209650000000  0.5292530000000  0.4782010000000 1.0
C      1  0.4903420000000  0.4642760000000  0.4795870000000 1.0
C      1  0.5290320000000  0.5003610000000  0.4847460000000 1.0
C      1  0.4715710000000  0.5336890000000  0.4796270000000 1.0
END
