TITL C-27142-7278-113 -0.00248201889257917 125000 -299.455462677101 0 0 60 (C1) n - 1
REM
REM in /home/nfs/bkarasulu/CARBON/AIRSS/Generating-Clusters/AIREBO/Higher-Symm/Only-C60
REM
REM
REM
REM
REM
REM ./C.cell (28575a23ae977d3b5fae324c64b13b57)
REM
REM compiler GCC version 9.2.1 20190827 (Red Hat 9.2.1-1)
REM options -cpp -mtune=generic -march=x86-64 -g -O0 -fpre-include=/usr/include/finclude/math-vector-fortran.h
REM seed 1283452523 516920028 868516628 -2047606501 575631752 1831616628 2096384683 -412036794 1134355676 1559130802 -709148921 -553571548 -1365412772 1715605679 1621172742 -1114689030 414649796 -152439213 396288724 -259665208 -438681069 1595905623 1014774468 189043765 -1658332692 -50490290 -1787374174 1471752165 -1082661543 1644428386 -1013819872 -1718108065 1983912631
REM
CELL 1.54180   50.00000   50.00000   50.00000   90.00000   90.00000   90.00000
LATT -1
SFAC C  
C      1  0.5135010000000  0.5698470000000  0.4737170000000 1.0
C      1  0.5606310000000  0.5640660000000  0.4942850000000 1.0
C      1  0.5095630000000  0.5688200000000  0.5180240000000 1.0
C      1  0.4523230000000  0.5628570000000  0.5330470000000 1.0
C      1  0.4409570000000  0.5508210000000  0.4681330000000 1.0
C      1  0.4828050000000  0.4543460000000  0.4296420000000 1.0
C      1  0.4799950000000  0.4362390000000  0.5079820000000 1.0
C      1  0.4638140000000  0.4402050000000  0.5648380000000 1.0
C      1  0.5581200000000  0.4462850000000  0.5490910000000 1.0
C      1  0.5350860000000  0.4332200000000  0.4644610000000 1.0
C      1  0.5427090000000  0.4608270000000  0.5314840000000 1.0
C      1  0.4758480000000  0.4634550000000  0.5511360000000 1.0
C      1  0.4658210000000  0.4613590000000  0.5154070000000 1.0
C      1  0.4978010000000  0.4689730000000  0.4537990000000 1.0
C      1  0.5304260000000  0.4640910000000  0.4581110000000 1.0
C      1  0.4533860000000  0.5350100000000  0.5199940000000 1.0
C      1  0.5159220000000  0.5369850000000  0.5209010000000 1.0
C      1  0.5434880000000  0.5364030000000  0.5007970000000 1.0
C      1  0.5232740000000  0.5405390000000  0.4733860000000 1.0
C      1  0.4602310000000  0.5333670000000  0.4871600000000 1.0
C      1  0.5548330000000  0.5106300000000  0.4817400000000 1.0
C      1  0.5356480000000  0.5129810000000  0.5322480000000 1.0
C      1  0.4683980000000  0.5138470000000  0.5395620000000 1.0
C      1  0.4435580000000  0.5049930000000  0.4957050000000 1.0
C      1  0.5035180000000  0.5230130000000  0.4575500000000 1.0
C      1  0.4599580000000  0.4777910000000  0.4900620000000 1.0
C      1  0.4535270000000  0.4871280000000  0.5461020000000 1.0
C      1  0.5256080000000  0.4823450000000  0.5430550000000 1.0
C      1  0.5465040000000  0.4776530000000  0.4820500000000 1.0
C      1  0.5131080000000  0.4965030000000  0.4426910000000 1.0
C      1  0.4223990000000  0.4932630000000  0.5391710000000 1.0
C      1  0.4589440000000  0.4945140000000  0.4605040000000 1.0
C      1  0.5445520000000  0.5030940000000  0.4339640000000 1.0
C      1  0.5704180000000  0.4828850000000  0.5056460000000 1.0
C      1  0.5142000000000  0.5058870000000  0.5647820000000 1.0
C      1  0.5634850000000  0.4946470000000  0.5267300000000 1.0
C      1  0.5628390000000  0.5013930000000  0.4512720000000 1.0
C      1  0.4753310000000  0.5082690000000  0.4481580000000 1.0
C      1  0.4178420000000  0.4944110000000  0.5141920000000 1.0
C      1  0.4899240000000  0.5119580000000  0.5648380000000 1.0
C      1  0.5546250000000  0.5387300000000  0.4625940000000 1.0
C      1  0.5612460000000  0.5339850000000  0.5296950000000 1.0
C      1  0.4889560000000  0.5405660000000  0.5372110000000 1.0
C      1  0.4240160000000  0.5318680000000  0.5031480000000 1.0
C      1  0.4801790000000  0.5437270000000  0.4655320000000 1.0
C      1  0.4723690000000  0.4579630000000  0.4680570000000 1.0
C      1  0.4406030000000  0.4582250000000  0.5336700000000 1.0
C      1  0.5026560000000  0.4680010000000  0.5600690000000 1.0
C      1  0.5426340000000  0.4542960000000  0.5050420000000 1.0
C      1  0.5251810000000  0.4699830000000  0.4250380000000 1.0
C      1  0.4783560000000  0.5674980000000  0.4548020000000 1.0
C      1  0.5706260000000  0.5517920000000  0.4475200000000 1.0
C      1  0.5796210000000  0.5460240000000  0.5426030000000 1.0
C      1  0.4863300000000  0.5607360000000  0.5538500000000 1.0
C      1  0.4030880000000  0.5447110000000  0.4963890000000 1.0
C      1  0.5274140000000  0.4596260000000  0.4018920000000 1.0
C      1  0.4621810000000  0.4343820000000  0.4632770000000 1.0
C      1  0.4205280000000  0.4424440000000  0.5377000000000 1.0
C      1  0.5091000000000  0.4609740000000  0.5849840000000 1.0
C      1  0.5399980000000  0.4295470000000  0.4915080000000 1.0
END
