TITL C-27132-7279-128 8.47030374427867e-05 125000 -343.383116700135 0 0 60 (C1) n - 1
REM
REM in /home/nfs/bkarasulu/CARBON/AIRSS/Generating-Clusters/AIREBO/Higher-Symm/Only-C60
REM
REM
REM
REM
REM
REM ./C.cell (28575a23ae977d3b5fae324c64b13b57)
REM
REM compiler GCC version 9.2.1 20190827 (Red Hat 9.2.1-1)
REM options -cpp -mtune=generic -march=x86-64 -g -O0 -fpre-include=/usr/include/finclude/math-vector-fortran.h
REM seed -1983933616 -171584131 -2035780043 -45347098 1879719957 1726317700 -1884353265 -1814921268 -923912037 650923980 1079916865 200933376 1423524558 1791493077 1103290884 854765175 1400192734 591755140 1201352525 -1357292477 1161489114 1847775086 -1030457518 -750066650 -1749209457 679360695 -2052864901 255758689 -1598151451 -688581208 -901680856 223598293 -49368015
REM
CELL 1.54180   50.00000   50.00000   50.00000   90.00000   90.00000   90.00000
LATT -1
SFAC C  
C      1  0.5668990000000  0.5182750000000  0.5259210000000 1.0
C      1  0.4741750000000  0.5153250000000  0.5705340000000 1.0
C      1  0.4332930000000  0.5179600000000  0.4742490000000 1.0
C      1  0.5300730000000  0.5137820000000  0.4315000000000 1.0
C      1  0.5665200000000  0.4880470000000  0.5290310000000 1.0
C      1  0.4702920000000  0.4851660000000  0.5676570000000 1.0
C      1  0.4331010000000  0.4877920000000  0.4705650000000 1.0
C      1  0.5272410000000  0.4835340000000  0.4313670000000 1.0
C      1  0.5606070000000  0.5185480000000  0.4380250000000 1.0
C      1  0.5624270000000  0.5151200000000  0.5578450000000 1.0
C      1  0.4448280000000  0.5151600000000  0.5615850000000 1.0
C      1  0.4382690000000  0.5154600000000  0.4424980000000 1.0
C      1  0.5587020000000  0.4868910000000  0.4377430000000 1.0
C      1  0.5609250000000  0.4836230000000  0.5598010000000 1.0
C      1  0.4389230000000  0.4843200000000  0.5607530000000 1.0
C      1  0.4387170000000  0.4840530000000  0.4395480000000 1.0
C      1  0.5525960000000  0.5423430000000  0.5095500000000 1.0
C      1  0.4909500000000  0.5388360000000  0.5575920000000 1.0
C      1  0.4472510000000  0.5420030000000  0.4909320000000 1.0
C      1  0.5105970000000  0.5370020000000  0.4429570000000 1.0
C      1  0.5554840000000  0.4646470000000  0.5100960000000 1.0
C      1  0.4884200000000  0.4610270000000  0.5542410000000 1.0
C      1  0.4441270000000  0.4636700000000  0.4887020000000 1.0
C      1  0.5105180000000  0.4596150000000  0.4458290000000 1.0
C      1  0.4426740000000  0.5313790000000  0.5372550000000 1.0
C      1  0.4642620000000  0.5280780000000  0.4452490000000 1.0
C      1  0.5565430000000  0.5317250000000  0.4634740000000 1.0
C      1  0.5368330000000  0.5286710000000  0.5543720000000 1.0
C      1  0.4424570000000  0.4718390000000  0.5350650000000 1.0
C      1  0.4644340000000  0.4714020000000  0.4443300000000 1.0
C      1  0.5559980000000  0.4737870000000  0.4635630000000 1.0
C      1  0.5348520000000  0.4716110000000  0.5560370000000 1.0
C      1  0.5272400000000  0.5257540000000  0.4695320000000 1.0
C      1  0.5277200000000  0.5258060000000  0.5253830000000 1.0
C      1  0.4730390000000  0.5259000000000  0.5320350000000 1.0
C      1  0.4723150000000  0.5264230000000  0.4744840000000 1.0
C      1  0.5266700000000  0.4757430000000  0.4705240000000 1.0
C      1  0.5284260000000  0.4761710000000  0.5264600000000 1.0
C      1  0.4719540000000  0.4755320000000  0.5289170000000 1.0
C      1  0.4713600000000  0.4767350000000  0.4738100000000 1.0
C      1  0.5150360000000  0.4588210000000  0.5687980000000 1.0
C      1  0.4290410000000  0.4609480000000  0.5146690000000 1.0
C      1  0.4834900000000  0.4569800000000  0.4321460000000 1.0
C      1  0.5701720000000  0.4632560000000  0.4837040000000 1.0
C      1  0.5184820000000  0.5407140000000  0.5696860000000 1.0
C      1  0.4320460000000  0.5454550000000  0.5171690000000 1.0
C      1  0.4836420000000  0.5377610000000  0.4295390000000 1.0
C      1  0.5674560000000  0.5461660000000  0.4832660000000 1.0
C      1  0.4803730000000  0.5510470000000  0.4947420000000 1.0
C      1  0.5073090000000  0.5518500000000  0.4739670000000 1.0
C      1  0.5193100000000  0.5506130000000  0.5055280000000 1.0
C      1  0.4921970000000  0.5523580000000  0.5259780000000 1.0
C      1  0.4754410000000  0.4500280000000  0.4928890000000 1.0
C      1  0.5064910000000  0.4513890000000  0.4790990000000 1.0
C      1  0.5249070000000  0.4490480000000  0.5075840000000 1.0
C      1  0.4939640000000  0.4522650000000  0.5213310000000 1.0
C      1  0.5170380000000  0.5010270000000  0.4824040000000 1.0
C      1  0.5149570000000  0.5006560000000  0.5151200000000 1.0
C      1  0.4823150000000  0.5012630000000  0.5181260000000 1.0
C      1  0.4846230000000  0.5011970000000  0.4852450000000 1.0
END
