TITL C-27134-4977-104 -0.00607264735576754 125000 -317.07786068574 0 0 60 (C1) n - 1
REM
REM in /home/nfs/bkarasulu/CARBON/AIRSS/Generating-Clusters/AIREBO/Higher-Symm/Only-C60
REM
REM
REM
REM
REM
REM ./C.cell (28575a23ae977d3b5fae324c64b13b57)
REM
REM compiler GCC version 9.2.1 20190827 (Red Hat 9.2.1-1)
REM options -cpp -mtune=generic -march=x86-64 -g -O0 -fpre-include=/usr/include/finclude/math-vector-fortran.h
REM seed -2026469617 -1686922956 -1033082731 1292316844 406712499 -1573538448 -576255359 279869304 513773278 324329184 655583457 1507974372 1312213718 -1153715740 -1923728882 -1050877153 -1465905155 403391828 -1933153107 1322113430 877127098 -79418405 -1511641095 2060530082 1718763653 39659074 -1665053933 -530076494 1669385627 -1199506279 -1639979855 1939522563 -1589639311
REM
CELL 1.54180   50.00000   50.00000   50.00000   90.00000   90.00000   90.00000
LATT -1
SFAC C  
C      1  0.4498740000000  0.5155740000000  0.4544170000000 1.0
C      1  0.5212010000000  0.5512470000000  0.4562390000000 1.0
C      1  0.5577360000000  0.4755920000000  0.4515150000000 1.0
C      1  0.4842420000000  0.4498660000000  0.4468450000000 1.0
C      1  0.4403230000000  0.4787230000000  0.5506090000000 1.0
C      1  0.5201010000000  0.4423860000000  0.5468830000000 1.0
C      1  0.5620140000000  0.5171820000000  0.5430030000000 1.0
C      1  0.4753490000000  0.5586170000000  0.5424380000000 1.0
C      1  0.5484460000000  0.5340850000000  0.4874540000000 1.0
C      1  0.5197320000000  0.4636790000000  0.4789240000000 1.0
C      1  0.4551950000000  0.4698980000000  0.4763640000000 1.0
C      1  0.4655180000000  0.5488130000000  0.4894420000000 1.0
C      1  0.5401520000000  0.4717190000000  0.5154710000000 1.0
C      1  0.5334230000000  0.5466870000000  0.5147870000000 1.0
C      1  0.4535430000000  0.5314410000000  0.5229160000000 1.0
C      1  0.4723700000000  0.4522700000000  0.5223690000000 1.0
C      1  0.4618250000000  0.4582930000000  0.5510950000000 1.0
C      1  0.4538110000000  0.5375070000000  0.5529240000000 1.0
C      1  0.5392630000000  0.5376350000000  0.5445730000000 1.0
C      1  0.5407780000000  0.4640940000000  0.5451490000000 1.0
C      1  0.4686790000000  0.5361100000000  0.4620710000000 1.0
C      1  0.4618860000000  0.4682260000000  0.4496360000000 1.0
C      1  0.5314340000000  0.4596990000000  0.4516170000000 1.0
C      1  0.5452230000000  0.5346820000000  0.4578560000000 1.0
C      1  0.4610610000000  0.5043110000000  0.5510860000000 1.0
C      1  0.5056700000000  0.5428190000000  0.5432800000000 1.0
C      1  0.5361340000000  0.4978040000000  0.5452160000000 1.0
C      1  0.4954350000000  0.4631250000000  0.5529140000000 1.0
C      1  0.4591040000000  0.4936730000000  0.4370500000000 1.0
C      1  0.5085480000000  0.4588330000000  0.4336930000000 1.0
C      1  0.5425800000000  0.5049300000000  0.4471830000000 1.0
C      1  0.4979630000000  0.5301180000000  0.4566530000000 1.0
C      1  0.4739030000000  0.5669190000000  0.5132170000000 1.0
C      1  0.5745310000000  0.5127260000000  0.5186870000000 1.0
C      1  0.5143590000000  0.4290270000000  0.5225450000000 1.0
C      1  0.4247550000000  0.4809230000000  0.5269610000000 1.0
C      1  0.4880090000000  0.4338840000000  0.4711180000000 1.0
C      1  0.5711790000000  0.4771520000000  0.4765100000000 1.0
C      1  0.5144820000000  0.5703520000000  0.4755470000000 1.0
C      1  0.4298550000000  0.5089190000000  0.4743800000000 1.0
C      1  0.5257930000000  0.5049840000000  0.4227930000000 1.0
C      1  0.5060350000000  0.4811330000000  0.4161590000000 1.0
C      1  0.4791530000000  0.4996160000000  0.4183240000000 1.0
C      1  0.5001380000000  0.5184530000000  0.4285170000000 1.0
C      1  0.5210060000000  0.5026700000000  0.5703300000000 1.0
C      1  0.5045110000000  0.5277710000000  0.5704720000000 1.0
C      1  0.4816920000000  0.5065170000000  0.5735810000000 1.0
C      1  0.4998780000000  0.4818660000000  0.5755780000000 1.0
C      1  0.5151500000000  0.5257630000000  0.4864170000000 1.0
C      1  0.5306840000000  0.4913130000000  0.4760450000000 1.0
C      1  0.4794000000000  0.4763480000000  0.4928910000000 1.0
C      1  0.4662680000000  0.5154650000000  0.4960420000000 1.0
C      1  0.5088880000000  0.4717150000000  0.5225280000000 1.0
C      1  0.5291860000000  0.5129420000000  0.5148210000000 1.0
C      1  0.4864960000000  0.5287790000000  0.5188770000000 1.0
C      1  0.4678600000000  0.4859760000000  0.5229280000000 1.0
C      1  0.4430180000000  0.4909840000000  0.5000960000000 1.0
C      1  0.5030790000000  0.5533560000000  0.5022060000000 1.0
C      1  0.5542150000000  0.4962060000000  0.4989990000000 1.0
C      1  0.4978610000000  0.4486020000000  0.5001520000000 1.0
END
