TITL C-27131-4585-135 0.00237466727293307 125000 -316.040260159755 0 0 60 (C1) n - 1
REM
REM in /home/nfs/bkarasulu/CARBON/AIRSS/Generating-Clusters/AIREBO/Higher-Symm/Only-C60
REM
REM
REM
REM
REM
REM ./C.cell (28575a23ae977d3b5fae324c64b13b57)
REM
REM compiler GCC version 9.2.1 20190827 (Red Hat 9.2.1-1)
REM options -cpp -mtune=generic -march=x86-64 -g -O0 -fpre-include=/usr/include/finclude/math-vector-fortran.h
REM seed 131162116 1909512496 -168897358 -1304790626 -1606072072 -464263993 -244628562 526889634 -496399452 282784138 -2145781079 1911087641 -250390311 -49477467 -521564079 -1632261296 1136238777 -1134427623 69725412 1576863276 -1430597183 370254895 -1089209771 1775944887 176467104 -1108495751 -873577462 -419915544 -280601913 1120965470 -1420480187 1402110094 -1158422807
REM
CELL 1.54180   50.00000   50.00000   50.00000   90.00000   90.00000   90.00000
LATT -1
SFAC C  
C      1  0.5480750000000  0.5379430000000  0.5519660000000 1.0
C      1  0.5468750000000  0.5610010000000  0.4983790000000 1.0
C      1  0.5385190000000  0.5411460000000  0.4538070000000 1.0
C      1  0.5482640000000  0.4885760000000  0.4411890000000 1.0
C      1  0.5483840000000  0.4408270000000  0.4669050000000 1.0
C      1  0.5470950000000  0.4408250000000  0.5286100000000 1.0
C      1  0.5373400000000  0.4924630000000  0.5640490000000 1.0
C      1  0.5425010000000  0.4903600000000  0.5335820000000 1.0
C      1  0.5447980000000  0.5212320000000  0.5261920000000 1.0
C      1  0.5538320000000  0.5344500000000  0.5010570000000 1.0
C      1  0.5432000000000  0.5197120000000  0.4770150000000 1.0
C      1  0.5577860000000  0.4935880000000  0.4679250000000 1.0
C      1  0.5610020000000  0.4630460000000  0.4825220000000 1.0
C      1  0.5577900000000  0.4674330000000  0.5164020000000 1.0
C      1  0.5135980000000  0.5712350000000  0.4621520000000 1.0
C      1  0.5054070000000  0.5233750000000  0.4209010000000 1.0
C      1  0.5298930000000  0.4412230000000  0.4381610000000 1.0
C      1  0.5038290000000  0.4160940000000  0.4883830000000 1.0
C      1  0.5160290000000  0.4484670000000  0.5642190000000 1.0
C      1  0.5166550000000  0.5338420000000  0.5945470000000 1.0
C      1  0.5109660000000  0.5705130000000  0.5447160000000 1.0
C      1  0.5207460000000  0.5638530000000  0.4877200000000 1.0
C      1  0.5099240000000  0.5462040000000  0.4399510000000 1.0
C      1  0.5238370000000  0.4743500000000  0.4412360000000 1.0
C      1  0.5169560000000  0.4285110000000  0.4659390000000 1.0
C      1  0.5215300000000  0.4419750000000  0.5380470000000 1.0
C      1  0.5104330000000  0.5041860000000  0.5790460000000 1.0
C      1  0.5221220000000  0.5493910000000  0.5646910000000 1.0
C      1  0.4730520000000  0.4636330000000  0.4466330000000 1.0
C      1  0.4619270000000  0.4382530000000  0.4947300000000 1.0
C      1  0.4710260000000  0.4716470000000  0.5568600000000 1.0
C      1  0.4698290000000  0.5291380000000  0.5537590000000 1.0
C      1  0.4668640000000  0.5627450000000  0.5298310000000 1.0
C      1  0.4634440000000  0.5516270000000  0.4651960000000 1.0
C      1  0.4631250000000  0.5089510000000  0.4352710000000 1.0
C      1  0.4872880000000  0.4316820000000  0.5029470000000 1.0
C      1  0.5009670000000  0.4763260000000  0.5674570000000 1.0
C      1  0.4936840000000  0.5314100000000  0.5695970000000 1.0
C      1  0.4937020000000  0.5625870000000  0.5254430000000 1.0
C      1  0.4842080000000  0.5635810000000  0.4516370000000 1.0
C      1  0.4900930000000  0.5038100000000  0.4321160000000 1.0
C      1  0.4984730000000  0.4523690000000  0.4452590000000 1.0
C      1  0.5132850000000  0.5141210000000  0.5204030000000 1.0
C      1  0.5013560000000  0.5397150000000  0.5014460000000 1.0
C      1  0.5101910000000  0.5168830000000  0.4778310000000 1.0
C      1  0.5003450000000  0.4890360000000  0.4609750000000 1.0
C      1  0.5101230000000  0.4774190000000  0.4914020000000 1.0
C      1  0.5000990000000  0.4578270000000  0.5173270000000 1.0
C      1  0.5096980000000  0.4842590000000  0.5364520000000 1.0
C      1  0.4671560000000  0.4860590000000  0.4677570000000 1.0
C      1  0.4591180000000  0.4691130000000  0.4939910000000 1.0
C      1  0.4701640000000  0.4712750000000  0.5262510000000 1.0
C      1  0.4664080000000  0.5037530000000  0.5337730000000 1.0
C      1  0.4549000000000  0.5339830000000  0.5232940000000 1.0
C      1  0.4685730000000  0.5357670000000  0.4932160000000 1.0
C      1  0.4571850000000  0.5185500000000  0.4654780000000 1.0
C      1  0.4884760000000  0.5018910000000  0.5006250000000 1.0
C      1  0.4545940000000  0.4996610000000  0.5030770000000 1.0
C      1  0.5385780000000  0.4839880000000  0.4943270000000 1.0
C      1  0.4240230000000  0.5048920000000  0.5048270000000 1.0
END
