TITL C-27142-7278-52 -0.000884456606684254 125000 -333.833892824795 0 0 60 (C1) n - 1
REM
REM in /home/nfs/bkarasulu/CARBON/AIRSS/Generating-Clusters/AIREBO/Higher-Symm/Only-C60
REM
REM
REM
REM
REM
REM ./C.cell (28575a23ae977d3b5fae324c64b13b57)
REM
REM compiler GCC version 9.2.1 20190827 (Red Hat 9.2.1-1)
REM options -cpp -mtune=generic -march=x86-64 -g -O0 -fpre-include=/usr/include/finclude/math-vector-fortran.h
REM seed 1610051178 -1652429406 -1808515624 1475099001 90697364 -753887374 1757227897 1906839852 -1154177257 975848409 558070393 852033151 -1465705892 -48526422 613226277 1508509505 -1653462764 766060311 -1174515069 -471364371 -726484857 -856336063 1215550378 -16243707 -459547547 159427175 1394146404 -1862693460 -1307167529 1900752724 1989960556 -706485785 -57018990
REM
CELL 1.54180   50.00000   50.00000   50.00000   90.00000   90.00000   90.00000
LATT -1
SFAC C  
C      1  0.5707800000000  0.4463770000000  0.4643480000000 1.0
C      1  0.4235780000000  0.5487790000000  0.5356660000000 1.0
C      1  0.4984000000000  0.4779110000000  0.5671330000000 1.0
C      1  0.4982990000000  0.5271290000000  0.4308970000000 1.0
C      1  0.4402360000000  0.4699130000000  0.4682410000000 1.0
C      1  0.5631440000000  0.5346860000000  0.5321700000000 1.0
C      1  0.4321190000000  0.5372970000000  0.4254840000000 1.0
C      1  0.5447210000000  0.4702300000000  0.5335540000000 1.0
C      1  0.4740400000000  0.4388360000000  0.5536040000000 1.0
C      1  0.5360040000000  0.5618830000000  0.4547910000000 1.0
C      1  0.5192950000000  0.5217210000000  0.5646670000000 1.0
C      1  0.4763280000000  0.4852280000000  0.4305200000000 1.0
C      1  0.5064480000000  0.4684410000000  0.5221090000000 1.0
C      1  0.4966900000000  0.5349110000000  0.4751780000000 1.0
C      1  0.5741050000000  0.4922970000000  0.5490780000000 1.0
C      1  0.4483560000000  0.5168530000000  0.4670180000000 1.0
C      1  0.5013280000000  0.5584880000000  0.4884750000000 1.0
C      1  0.5021230000000  0.4423900000000  0.5136290000000 1.0
C      1  0.5053790000000  0.4375920000000  0.4216840000000 1.0
C      1  0.4739660000000  0.5388550000000  0.5789130000000 1.0
C      1  0.5653170000000  0.4731120000000  0.4814220000000 1.0
C      1  0.4303790000000  0.5208720000000  0.5213390000000 1.0
C      1  0.5474230000000  0.4826080000000  0.5605590000000 1.0
C      1  0.4502600000000  0.5234370000000  0.4395860000000 1.0
C      1  0.4351490000000  0.4950070000000  0.4808970000000 1.0
C      1  0.5730150000000  0.5088130000000  0.5254950000000 1.0
C      1  0.4761390000000  0.5020970000000  0.5094270000000 1.0
C      1  0.5238610000000  0.4923400000000  0.4791290000000 1.0
C      1  0.4880540000000  0.4791390000000  0.5399050000000 1.0
C      1  0.5197550000000  0.5254420000000  0.4572200000000 1.0
C      1  0.4577650000000  0.4808000000000  0.5270450000000 1.0
C      1  0.5459940000000  0.5169630000000  0.4763600000000 1.0
C      1  0.5054320000000  0.4133780000000  0.4744800000000 1.0
C      1  0.4886170000000  0.5811120000000  0.5299800000000 1.0
C      1  0.4519850000000  0.4533200000000  0.5424530000000 1.0
C      1  0.5563110000000  0.5451190000000  0.4657060000000 1.0
C      1  0.4928420000000  0.5588120000000  0.5146380000000 1.0
C      1  0.5040860000000  0.4379330000000  0.4865410000000 1.0
C      1  0.5283840000000  0.4905130000000  0.5116930000000 1.0
C      1  0.4754390000000  0.5158910000000  0.4794980000000 1.0
C      1  0.5764960000000  0.5577000000000  0.5288680000000 1.0
C      1  0.4236930000000  0.4482210000000  0.4684540000000 1.0
C      1  0.5083320000000  0.4639130000000  0.4687900000000 1.0
C      1  0.4855350000000  0.5291610000000  0.5278210000000 1.0
C      1  0.4904680000000  0.4261150000000  0.5338660000000 1.0
C      1  0.5189230000000  0.5751300000000  0.4736200000000 1.0
C      1  0.5370140000000  0.5321230000000  0.5424060000000 1.0
C      1  0.4689170000000  0.4686210000000  0.4591960000000 1.0
C      1  0.4365020000000  0.4970360000000  0.5094530000000 1.0
C      1  0.5598270000000  0.4966490000000  0.4998600000000 1.0
C      1  0.4542950000000  0.5385290000000  0.5333240000000 1.0
C      1  0.5416590000000  0.4604680000000  0.4629750000000 1.0
C      1  0.5227190000000  0.4937200000000  0.5705510000000 1.0
C      1  0.4748140000000  0.5125940000000  0.4283710000000 1.0
C      1  0.4945040000000  0.4594240000000  0.4385130000000 1.0
C      1  0.4926600000000  0.5307620000000  0.5608060000000 1.0
C      1  0.4848140000000  0.4852140000000  0.4810430000000 1.0
C      1  0.5174070000000  0.5176430000000  0.5249520000000 1.0
C      1  0.5224090000000  0.5480790000000  0.4311830000000 1.0
C      1  0.4874610000000  0.4523710000000  0.5754120000000 1.0
END
