TITL C-27134-4977-42 6.11111682916967e-06 125000 -350.5099512518 0 0 60 (D6h) n - 1
REM
REM in /home/nfs/bkarasulu/CARBON/AIRSS/Generating-Clusters/AIREBO/Higher-Symm/Only-C60
REM
REM
REM
REM
REM
REM ./C.cell (28575a23ae977d3b5fae324c64b13b57)
REM
REM compiler GCC version 9.2.1 20190827 (Red Hat 9.2.1-1)
REM options -cpp -mtune=generic -march=x86-64 -g -O0 -fpre-include=/usr/include/finclude/math-vector-fortran.h
REM seed 1666637402 1049010728 521645919 -787996361 1826934660 -1542908842 -1871298941 -1387706104 -682847935 -635743850 1441499604 -2034631890 696156999 -1134162256 1286313023 2145181356 -1085652349 1856823225 -1165236967 2099802787 -167843256 -1401489760 -1941418016 650699516 649924851 1268514928 -1527961566 -1105180902 413076400 1072962328 -2016645612 323817870 -1781196220
REM
CELL 1.54180   50.00000   50.00000   50.00000   90.00000   90.00000   90.00000
LATT -1
SFAC C  
C      1  0.4350990000000  0.4523410000000  0.4999110000000 1.0
C      1  0.4350650000000  0.4763320000000  0.4586860000000 1.0
C      1  0.4350940000000  0.5240290000000  0.4588500000000 1.0
C      1  0.4351550000000  0.5477360000000  0.5002390000000 1.0
C      1  0.4351890000000  0.5237450000000  0.5414640000000 1.0
C      1  0.4351600000000  0.4760470000000  0.5413000000000 1.0
C      1  0.5649010000000  0.5476590000000  0.5000890000000 1.0
C      1  0.5648400000000  0.5239530000000  0.4587000000000 1.0
C      1  0.5648110000000  0.4762550000000  0.4585360000000 1.0
C      1  0.5648450000000  0.4522640000000  0.4997610000000 1.0
C      1  0.5649060000000  0.4759710000000  0.5411500000000 1.0
C      1  0.5649350000000  0.5236680000000  0.5413140000000 1.0
C      1  0.5122670000000  0.5485210000000  0.5001530000000 1.0
C      1  0.5123010000000  0.5241120000000  0.5420960000000 1.0
C      1  0.5122720000000  0.4755840000000  0.5419290000000 1.0
C      1  0.5122090000000  0.4514650000000  0.4998190000000 1.0
C      1  0.5121750000000  0.4758730000000  0.4578760000000 1.0
C      1  0.5122040000000  0.5244010000000  0.4580430000000 1.0
C      1  0.4877330000000  0.4514790000000  0.4998470000000 1.0
C      1  0.4877960000000  0.4755990000000  0.5419570000000 1.0
C      1  0.4878250000000  0.5241270000000  0.5421240000000 1.0
C      1  0.4877910000000  0.5485350000000  0.5001810000000 1.0
C      1  0.4877280000000  0.5244160000000  0.4580710000000 1.0
C      1  0.4876990000000  0.4758880000000  0.4579040000000 1.0
C      1  0.4134230000000  0.4858540000000  0.4753140000000 1.0
C      1  0.4134400000000  0.5144180000000  0.4754120000000 1.0
C      1  0.4134770000000  0.5286150000000  0.5001980000000 1.0
C      1  0.4134970000000  0.5142480000000  0.5248860000000 1.0
C      1  0.4134800000000  0.4856840000000  0.5247880000000 1.0
C      1  0.4134430000000  0.4714870000000  0.5000010000000 1.0
C      1  0.5865200000000  0.5143160000000  0.4752120000000 1.0
C      1  0.5865030000000  0.4857520000000  0.4751140000000 1.0
C      1  0.5865230000000  0.4713850000000  0.4998020000000 1.0
C      1  0.5865600000000  0.4855820000000  0.5245880000000 1.0
C      1  0.5865770000000  0.5141460000000  0.5246860000000 1.0
C      1  0.5865570000000  0.5285130000000  0.4999990000000 1.0
C      1  0.4616510000000  0.5159120000000  0.4727400000000 1.0
C      1  0.4616920000000  0.5316130000000  0.5001530000000 1.0
C      1  0.4617140000000  0.5157240000000  0.5274570000000 1.0
C      1  0.4616960000000  0.4841330000000  0.5273480000000 1.0
C      1  0.4616550000000  0.4684320000000  0.4999360000000 1.0
C      1  0.4616330000000  0.4843210000000  0.4726320000000 1.0
C      1  0.5382860000000  0.4842760000000  0.4725430000000 1.0
C      1  0.5383080000000  0.4683870000000  0.4998470000000 1.0
C      1  0.5383490000000  0.4840880000000  0.5272600000000 1.0
C      1  0.5383670000000  0.5156790000000  0.5273680000000 1.0
C      1  0.5383450000000  0.5315680000000  0.5000640000000 1.0
C      1  0.5383040000000  0.5158670000000  0.4726520000000 1.0
C      1  0.4338690000000  0.5372680000000  0.5650740000000 1.0
C      1  0.4338250000000  0.4623640000000  0.5648160000000 1.0
C      1  0.4337280000000  0.4251350000000  0.4998190000000 1.0
C      1  0.4336760000000  0.4628100000000  0.4350790000000 1.0
C      1  0.4337200000000  0.5377140000000  0.4353360000000 1.0
C      1  0.4338170000000  0.5749430000000  0.5003340000000 1.0
C      1  0.5662800000000  0.4622860000000  0.5646640000000 1.0
C      1  0.5663240000000  0.5371900000000  0.5649210000000 1.0
C      1  0.5662720000000  0.5748650000000  0.5001810000000 1.0
C      1  0.5661750000000  0.5376360000000  0.4351840000000 1.0
C      1  0.5661310000000  0.4627320000000  0.4349260000000 1.0
C      1  0.5661830000000  0.4250570000000  0.4996660000000 1.0
END
