TITL C-27145-253-153 -0.00481464241253888 125000 -324.948820763481 0 0 60 (C1) n - 1
REM
REM in /home/nfs/bkarasulu/CARBON/AIRSS/Generating-Clusters/AIREBO/Higher-Symm/Only-C60
REM
REM
REM
REM
REM
REM ./C.cell (28575a23ae977d3b5fae324c64b13b57)
REM
REM compiler GCC version 9.2.1 20190827 (Red Hat 9.2.1-1)
REM options -cpp -mtune=generic -march=x86-64 -g -O0 -fpre-include=/usr/include/finclude/math-vector-fortran.h
REM seed -956045785 1636159626 1381883662 -325450618 -164879493 1049027152 -836138692 -1506939766 -2129976131 1971127404 -261349058 -1381830438 1774322379 1731942293 369554535 -355558963 777777580 1587560845 357476728 1352992642 -122649492 -71127736 -1047129490 -479968690 486754256 -141453360 -1577169285 2010814805 1033156164 -1625469393 -1177309062 222153067 -2120503994
REM
CELL 1.54180   50.00000   50.00000   50.00000   90.00000   90.00000   90.00000
LATT -1
SFAC C  
C      1  0.5730020000000  0.4867930000000  0.5258340000000 1.0
C      1  0.5210690000000  0.4965380000000  0.4346950000000 1.0
C      1  0.4336510000000  0.4915250000000  0.4760170000000 1.0
C      1  0.4769050000000  0.4946130000000  0.5613500000000 1.0
C      1  0.5725210000000  0.5015400000000  0.4710830000000 1.0
C      1  0.5317140000000  0.5111540000000  0.5723180000000 1.0
C      1  0.4209570000000  0.5131540000000  0.5274480000000 1.0
C      1  0.4731300000000  0.5076840000000  0.4256650000000 1.0
C      1  0.5544400000000  0.4711740000000  0.5039740000000 1.0
C      1  0.5061820000000  0.4770310000000  0.4549670000000 1.0
C      1  0.4497850000000  0.4700090000000  0.4929380000000 1.0
C      1  0.4918190000000  0.4673180000000  0.5511850000000 1.0
C      1  0.5505220000000  0.5244420000000  0.4788040000000 1.0
C      1  0.5166350000000  0.5246210000000  0.5449790000000 1.0
C      1  0.4473560000000  0.5282740000000  0.5135100000000 1.0
C      1  0.4770430000000  0.5303200000000  0.4493480000000 1.0
C      1  0.5391110000000  0.5181980000000  0.4329870000000 1.0
C      1  0.4325970000000  0.5129030000000  0.4582950000000 1.0
C      1  0.4627410000000  0.5184690000000  0.5587400000000 1.0
C      1  0.5651520000000  0.5069280000000  0.5461950000000 1.0
C      1  0.5379940000000  0.4845260000000  0.5714220000000 1.0
C      1  0.4239190000000  0.4869090000000  0.5350170000000 1.0
C      1  0.4689540000000  0.4807960000000  0.4269000000000 1.0
C      1  0.5750440000000  0.4751430000000  0.4662450000000 1.0
C      1  0.4789170000000  0.4565810000000  0.4343940000000 1.0
C      1  0.4320860000000  0.4621130000000  0.5278370000000 1.0
C      1  0.5292250000000  0.4605510000000  0.5626350000000 1.0
C      1  0.5722240000000  0.4496540000000  0.4757190000000 1.0
C      1  0.4669820000000  0.5339360000000  0.5363360000000 1.0
C      1  0.4511060000000  0.5336680000000  0.4638780000000 1.0
C      1  0.5350110000000  0.5342990000000  0.4555720000000 1.0
C      1  0.5470820000000  0.5258400000000  0.5384860000000 1.0
C      1  0.4488250000000  0.5461870000000  0.4888490000000 1.0
C      1  0.4968020000000  0.5438740000000  0.5276450000000 1.0
C      1  0.5512310000000  0.5373300000000  0.5090760000000 1.0
C      1  0.5066270000000  0.5446060000000  0.4581120000000 1.0
C      1  0.4576330000000  0.4477370000000  0.5136960000000 1.0
C      1  0.4952240000000  0.4488440000000  0.4623800000000 1.0
C      1  0.5456260000000  0.4426380000000  0.4944210000000 1.0
C      1  0.5133930000000  0.4468950000000  0.5366530000000 1.0
C      1  0.5071130000000  0.5818690000000  0.5208960000000 1.0
C      1  0.5219830000000  0.5755730000000  0.4917850000000 1.0
C      1  0.4799190000000  0.5833190000000  0.4757450000000 1.0
C      1  0.4759130000000  0.5894460000000  0.5092640000000 1.0
C      1  0.4963100000000  0.4135470000000  0.4809590000000 1.0
C      1  0.5266540000000  0.4074980000000  0.4944260000000 1.0
C      1  0.5046170000000  0.4101400000000  0.5201840000000 1.0
C      1  0.4738250000000  0.4121220000000  0.5058670000000 1.0
C      1  0.4742250000000  0.4396730000000  0.4851350000000 1.0
C      1  0.4832190000000  0.4355260000000  0.5286750000000 1.0
C      1  0.5334990000000  0.4280610000000  0.5210170000000 1.0
C      1  0.5220770000000  0.4344260000000  0.4734550000000 1.0
C      1  0.4791700000000  0.5706770000000  0.5366580000000 1.0
C      1  0.4545890000000  0.5725570000000  0.4905900000000 1.0
C      1  0.5042880000000  0.5702560000000  0.4709690000000 1.0
C      1  0.5272200000000  0.5544910000000  0.5166330000000 1.0
C      1  0.5044260000000  0.4961480000000  0.5474970000000 1.0
C      1  0.5527320000000  0.5037390000000  0.5057050000000 1.0
C      1  0.4990610000000  0.5079700000000  0.4560300000000 1.0
C      1  0.4489240000000  0.4990580000000  0.5029070000000 1.0
END
