TITL C-27136-4842-26 0.00221253631099785 125000 -300.147700524025 0 0 60 (C1) n - 1
REM
REM in /home/nfs/bkarasulu/CARBON/AIRSS/Generating-Clusters/AIREBO/Higher-Symm/Only-C60
REM
REM
REM
REM
REM
REM ./C.cell (28575a23ae977d3b5fae324c64b13b57)
REM
REM compiler GCC version 9.2.1 20190827 (Red Hat 9.2.1-1)
REM options -cpp -mtune=generic -march=x86-64 -g -O0 -fpre-include=/usr/include/finclude/math-vector-fortran.h
REM seed 1363403332 -1429596966 -1886797297 -853358239 -440949724 -593455487 1140275678 -1780066407 1400185432 -641260450 1003884321 -1605279271 -7698348 1672111574 -11779629 -2056168870 363230996 1003976249 439113928 -1751343505 1387705101 1777654245 -1032572096 -7373178 -788783463 -51451728 980473031 1843256841 1975882458 -1769698276 -1295348991 -1857874300 -2133641998
REM
CELL 1.54180   50.00000   50.00000   50.00000   90.00000   90.00000   90.00000
LATT -1
SFAC C  
C      1  0.5100420000000  0.4448190000000  0.4467870000000 1.0
C      1  0.4986510000000  0.4299790000000  0.5177330000000 1.0
C      1  0.5087470000000  0.4716780000000  0.5810080000000 1.0
C      1  0.4999210000000  0.5733770000000  0.5162200000000 1.0
C      1  0.4937830000000  0.5565390000000  0.4434540000000 1.0
C      1  0.5020560000000  0.4668530000000  0.5517560000000 1.0
C      1  0.5049550000000  0.5472020000000  0.5334330000000 1.0
C      1  0.4956260000000  0.5515230000000  0.4743040000000 1.0
C      1  0.5049230000000  0.4752480000000  0.4476040000000 1.0
C      1  0.4910390000000  0.4287260000000  0.4882380000000 1.0
C      1  0.5648940000000  0.5325070000000  0.5222510000000 1.0
C      1  0.5666740000000  0.5334890000000  0.4693420000000 1.0
C      1  0.5627450000000  0.4938310000000  0.4719570000000 1.0
C      1  0.5608300000000  0.4757890000000  0.5086180000000 1.0
C      1  0.5629470000000  0.4881360000000  0.5465120000000 1.0
C      1  0.4401100000000  0.4724350000000  0.5484340000000 1.0
C      1  0.4215020000000  0.5252220000000  0.5282940000000 1.0
C      1  0.4395630000000  0.5480380000000  0.4739680000000 1.0
C      1  0.4237710000000  0.4969760000000  0.4527100000000 1.0
C      1  0.4148610000000  0.4624920000000  0.4926200000000 1.0
C      1  0.5916800000000  0.5115910000000  0.4737960000000 1.0
C      1  0.5884820000000  0.4835940000000  0.4917240000000 1.0
C      1  0.5861540000000  0.4927200000000  0.5242360000000 1.0
C      1  0.5956600000000  0.5228450000000  0.5242600000000 1.0
C      1  0.5860380000000  0.5367790000000  0.4959560000000 1.0
C      1  0.5135470000000  0.5539180000000  0.5599330000000 1.0
C      1  0.5096640000000  0.5738890000000  0.4904350000000 1.0
C      1  0.5180130000000  0.4899330000000  0.4243810000000 1.0
C      1  0.5058900000000  0.4251270000000  0.4650380000000 1.0
C      1  0.5122030000000  0.4389340000000  0.5402780000000 1.0
C      1  0.4508490000000  0.5777050000000  0.5293430000000 1.0
C      1  0.4897490000000  0.5313730000000  0.4324450000000 1.0
C      1  0.4393480000000  0.4504130000000  0.4395430000000 1.0
C      1  0.4491000000000  0.4372130000000  0.5239850000000 1.0
C      1  0.4863790000000  0.5143450000000  0.5755080000000 1.0
C      1  0.4566150000000  0.4591330000000  0.4569000000000 1.0
C      1  0.4763080000000  0.4551220000000  0.5142310000000 1.0
C      1  0.4872660000000  0.5127610000000  0.5493150000000 1.0
C      1  0.4703140000000  0.5607810000000  0.5188710000000 1.0
C      1  0.4901360000000  0.5121760000000  0.4517660000000 1.0
C      1  0.4682330000000  0.5507190000000  0.4881880000000 1.0
C      1  0.4746420000000  0.4851040000000  0.4537090000000 1.0
C      1  0.4640620000000  0.4459400000000  0.4838580000000 1.0
C      1  0.4717020000000  0.4715900000000  0.5430900000000 1.0
C      1  0.4721970000000  0.5307490000000  0.5303590000000 1.0
C      1  0.5008140000000  0.4751500000000  0.5048820000000 1.0
C      1  0.5080670000000  0.4940330000000  0.5322180000000 1.0
C      1  0.5126170000000  0.5214420000000  0.5126000000000 1.0
C      1  0.5092020000000  0.5206140000000  0.4786370000000 1.0
C      1  0.5109690000000  0.4870750000000  0.4776290000000 1.0
C      1  0.4508610000000  0.4854010000000  0.5198890000000 1.0
C      1  0.4486500000000  0.5156730000000  0.5177680000000 1.0
C      1  0.4516620000000  0.5209230000000  0.4872480000000 1.0
C      1  0.4481980000000  0.4952530000000  0.4713830000000 1.0
C      1  0.4442400000000  0.4719560000000  0.4927630000000 1.0
C      1  0.5402640000000  0.5233230000000  0.4681870000000 1.0
C      1  0.5392240000000  0.4790740000000  0.4676880000000 1.0
C      1  0.5345590000000  0.4765780000000  0.5079330000000 1.0
C      1  0.5392540000000  0.4946710000000  0.5432850000000 1.0
C      1  0.5395490000000  0.5395220000000  0.5215000000000 1.0
END
