TITL C-27131-4585-49 -6.6607486089448e-05 125000 -313.114069587769 0 0 60 (C1) n - 1
REM
REM in /home/nfs/bkarasulu/CARBON/AIRSS/Generating-Clusters/AIREBO/Higher-Symm/Only-C60
REM
REM
REM
REM
REM
REM ./C.cell (28575a23ae977d3b5fae324c64b13b57)
REM
REM compiler GCC version 9.2.1 20190827 (Red Hat 9.2.1-1)
REM options -cpp -mtune=generic -march=x86-64 -g -O0 -fpre-include=/usr/include/finclude/math-vector-fortran.h
REM seed 2113594446 993426460 -1734430788 676414747 255976712 -2016349040 2062710058 948427443 -109272797 -325046389 1665195189 -551104811 1634593446 2064814983 1009446437 77942986 662849623 1065099893 662695445 -2062747222 19608838 118931434 -1146677836 -2070230930 -901743249 1895577416 1766228665 401153654 895767634 -417876980 -1739507664 -970820978 1335782761
REM
CELL 1.54180   50.00000   50.00000   50.00000   90.00000   90.00000   90.00000
LATT -1
SFAC C  
C      1  0.5040230000000  0.5675120000000  0.4634340000000 1.0
C      1  0.5688490000000  0.5099500000000  0.4544270000000 1.0
C      1  0.5519160000000  0.4526290000000  0.4663790000000 1.0
C      1  0.4984290000000  0.4330790000000  0.4636220000000 1.0
C      1  0.4325700000000  0.4850600000000  0.4626770000000 1.0
C      1  0.4502720000000  0.5458530000000  0.4713310000000 1.0
C      1  0.5514720000000  0.4497820000000  0.5139950000000 1.0
C      1  0.4907330000000  0.4238950000000  0.5083050000000 1.0
C      1  0.4240600000000  0.4730810000000  0.5073950000000 1.0
C      1  0.4582180000000  0.5534590000000  0.5190950000000 1.0
C      1  0.5228830000000  0.5778350000000  0.5051390000000 1.0
C      1  0.5832990000000  0.5243430000000  0.4965880000000 1.0
C      1  0.5370110000000  0.5144620000000  0.4602420000000 1.0
C      1  0.5369900000000  0.4827880000000  0.4712970000000 1.0
C      1  0.5137980000000  0.4608920000000  0.4592400000000 1.0
C      1  0.4647270000000  0.4849280000000  0.4654420000000 1.0
C      1  0.4664660000000  0.5162550000000  0.4755730000000 1.0
C      1  0.4880790000000  0.5386390000000  0.4613730000000 1.0
C      1  0.5051280000000  0.5588190000000  0.5233150000000 1.0
C      1  0.5553170000000  0.5339730000000  0.5070460000000 1.0
C      1  0.5572930000000  0.4816480000000  0.5243430000000 1.0
C      1  0.5094300000000  0.4482150000000  0.5229750000000 1.0
C      1  0.4554950000000  0.4664610000000  0.5185390000000 1.0
C      1  0.4423010000000  0.5266340000000  0.5276180000000 1.0
C      1  0.5600030000000  0.5595260000000  0.5191780000000 1.0
C      1  0.5818400000000  0.4799720000000  0.5400610000000 1.0
C      1  0.5274000000000  0.4245410000000  0.5332940000000 1.0
C      1  0.4435510000000  0.4371120000000  0.5230410000000 1.0
C      1  0.4141650000000  0.5337660000000  0.5337200000000 1.0
C      1  0.4764130000000  0.5661390000000  0.5349090000000 1.0
C      1  0.5071980000000  0.5392390000000  0.5471210000000 1.0
C      1  0.5458220000000  0.5129310000000  0.5272760000000 1.0
C      1  0.5291200000000  0.4704060000000  0.5397070000000 1.0
C      1  0.4819620000000  0.4582920000000  0.5382610000000 1.0
C      1  0.4498120000000  0.4947070000000  0.5366090000000 1.0
C      1  0.4576610000000  0.5274500000000  0.5580970000000 1.0
C      1  0.5006220000000  0.5407300000000  0.4929120000000 1.0
C      1  0.5330820000000  0.5359430000000  0.4833230000000 1.0
C      1  0.5625950000000  0.4829800000000  0.4907820000000 1.0
C      1  0.5067330000000  0.4629450000000  0.4924410000000 1.0
C      1  0.4727770000000  0.4651920000000  0.4891510000000 1.0
C      1  0.4407610000000  0.5159270000000  0.4960650000000 1.0
C      1  0.5212100000000  0.5160040000000  0.4343220000000 1.0
C      1  0.5208580000000  0.4905790000000  0.4213200000000 1.0
C      1  0.5028690000000  0.4731640000000  0.4347330000000 1.0
C      1  0.4772700000000  0.4837040000000  0.4375310000000 1.0
C      1  0.4756990000000  0.5091980000000  0.4246900000000 1.0
C      1  0.4954910000000  0.5266460000000  0.4353180000000 1.0
C      1  0.5266830000000  0.5675770000000  0.4796180000000 1.0
C      1  0.5804370000000  0.5021010000000  0.4796120000000 1.0
C      1  0.5367400000000  0.4482080000000  0.4912400000000 1.0
C      1  0.4806640000000  0.4338560000000  0.4844960000000 1.0
C      1  0.4239920000000  0.4941830000000  0.4886180000000 1.0
C      1  0.4684890000000  0.5518490000000  0.4934610000000 1.0
C      1  0.5186470000000  0.4766580000000  0.5640670000000 1.0
C      1  0.4920250000000  0.4708460000000  0.5661620000000 1.0
C      1  0.4612230000000  0.4759970000000  0.5627500000000 1.0
C      1  0.4448430000000  0.5022610000000  0.5693900000000 1.0
C      1  0.4833660000000  0.5368220000000  0.5611950000000 1.0
C      1  0.5292170000000  0.5223580000000  0.5461400000000 1.0
END
