TITL C-27140-5627-115 -0.000652329157175935 125000 -349.38508904115 0 0 60 (C1) n - 1
REM
REM in /home/nfs/bkarasulu/CARBON/AIRSS/Generating-Clusters/AIREBO/Higher-Symm/Only-C60
REM
REM
REM
REM
REM
REM ./C.cell (28575a23ae977d3b5fae324c64b13b57)
REM
REM compiler GCC version 9.2.1 20190827 (Red Hat 9.2.1-1)
REM options -cpp -mtune=generic -march=x86-64 -g -O0 -fpre-include=/usr/include/finclude/math-vector-fortran.h
REM seed 1769451618 1085482182 -1080548652 -1689606185 1837187868 2132110767 -1195450366 -1513219920 630272774 -1681769495 140286593 1440045114 -1109542415 1046192395 790336631 121188473 1490931084 1530355453 -1507478149 1324018361 -1505427242 641605522 71816280 1461152764 543129000 -922382149 94436681 1260748462 390150060 -846461297 -1970487698 1189658916 1833297092
REM
CELL 1.54180   50.00000   50.00000   50.00000   90.00000   90.00000   90.00000
LATT -1
SFAC C  
C      1  0.5223620000000  0.4843150000000  0.4778980000000 1.0
C      1  0.5211300000000  0.5140150000000  0.4918960000000 1.0
C      1  0.4889220000000  0.5230020000000  0.4980510000000 1.0
C      1  0.4757640000000  0.4972170000000  0.4802070000000 1.0
C      1  0.4951150000000  0.4736020000000  0.4952040000000 1.0
C      1  0.4694180000000  0.5240840000000  0.5240040000000 1.0
C      1  0.4720580000000  0.4739310000000  0.5202000000000 1.0
C      1  0.5093590000000  0.4600010000000  0.5229270000000 1.0
C      1  0.5350910000000  0.4929930000000  0.5147020000000 1.0
C      1  0.5065860000000  0.5385910000000  0.5225710000000 1.0
C      1  0.5178190000000  0.5213990000000  0.5488300000000 1.0
C      1  0.4843630000000  0.5238490000000  0.5521570000000 1.0
C      1  0.4707770000000  0.4927200000000  0.5485090000000 1.0
C      1  0.4963060000000  0.4724560000000  0.5517460000000 1.0
C      1  0.5232650000000  0.4894360000000  0.5460660000000 1.0
C      1  0.4959310000000  0.5670260000000  0.5207280000000 1.0
C      1  0.4427430000000  0.5178220000000  0.5221010000000 1.0
C      1  0.4626000000000  0.4444780000000  0.5200790000000 1.0
C      1  0.5404390000000  0.4598440000000  0.5205000000000 1.0
C      1  0.5563780000000  0.5153000000000  0.5184760000000 1.0
C      1  0.4316180000000  0.5318530000000  0.4991840000000 1.0
C      1  0.4466260000000  0.4438870000000  0.4960610000000 1.0
C      1  0.5365980000000  0.4379710000000  0.4991970000000 1.0
C      1  0.5750960000000  0.5158130000000  0.4951300000000 1.0
C      1  0.5105940000000  0.5763740000000  0.4974570000000 1.0
C      1  0.5553640000000  0.4763630000000  0.4757760000000 1.0
C      1  0.5373790000000  0.5409040000000  0.4804370000000 1.0
C      1  0.4737090000000  0.5491400000000  0.4825020000000 1.0
C      1  0.4430430000000  0.4878800000000  0.4777100000000 1.0
C      1  0.4928900000000  0.4431920000000  0.4801470000000 1.0
C      1  0.5099810000000  0.4770110000000  0.4470760000000 1.0
C      1  0.5273310000000  0.5033110000000  0.4431130000000 1.0
C      1  0.5086420000000  0.5246660000000  0.4450710000000 1.0
C      1  0.4814610000000  0.5127100000000  0.4504700000000 1.0
C      1  0.4794350000000  0.4817520000000  0.4435060000000 1.0
C      1  0.5445300000000  0.5346360000000  0.5345710000000 1.0
C      1  0.4790190000000  0.5564080000000  0.5453070000000 1.0
C      1  0.4391130000000  0.4933400000000  0.5361040000000 1.0
C      1  0.4807140000000  0.4443440000000  0.5456320000000 1.0
C      1  0.5547560000000  0.4766200000000  0.5453120000000 1.0
C      1  0.5611340000000  0.5243120000000  0.4714490000000 1.0
C      1  0.4976690000000  0.5652150000000  0.4733450000000 1.0
C      1  0.4369760000000  0.5182000000000  0.4742680000000 1.0
C      1  0.4636600000000  0.4444460000000  0.4723490000000 1.0
C      1  0.5415100000000  0.4484970000000  0.4735930000000 1.0
C      1  0.5157480000000  0.5474620000000  0.4593730000000 1.0
C      1  0.4591390000000  0.5313270000000  0.4611770000000 1.0
C      1  0.4590990000000  0.4686190000000  0.4577640000000 1.0
C      1  0.5165380000000  0.4493480000000  0.4594430000000 1.0
C      1  0.5518190000000  0.5019170000000  0.4564170000000 1.0
C      1  0.5474970000000  0.5608170000000  0.5249570000000 1.0
C      1  0.4560930000000  0.5649060000000  0.5274730000000 1.0
C      1  0.4223480000000  0.4754850000000  0.5226480000000 1.0
C      1  0.4990450000000  0.4266010000000  0.5279340000000 1.0
C      1  0.5760420000000  0.4772860000000  0.5251320000000 1.0
C      1  0.5744360000000  0.4858590000000  0.4983300000000 1.0
C      1  0.5372730000000  0.5655720000000  0.4989960000000 1.0
C      1  0.4494260000000  0.5558570000000  0.5014110000000 1.0
C      1  0.4297650000000  0.4672060000000  0.4965860000000 1.0
C      1  0.5104570000000  0.4268140000000  0.5007410000000 1.0
END
