TITL C-27141-4733-68 0.00214116468998686 125000 -350.561915774107 0 0 60 (C1) n - 1
REM
REM in /home/nfs/bkarasulu/CARBON/AIRSS/Generating-Clusters/AIREBO/Higher-Symm/Only-C60
REM
REM
REM
REM
REM
REM ./C.cell (28575a23ae977d3b5fae324c64b13b57)
REM
REM compiler GCC version 9.2.1 20190827 (Red Hat 9.2.1-1)
REM options -cpp -mtune=generic -march=x86-64 -g -O0 -fpre-include=/usr/include/finclude/math-vector-fortran.h
REM seed -1458205535 1682858423 312875107 215852581 -953278728 820301330 -387462962 -959747166 -1214348353 381562091 -2116390335 599298539 1374362231 756277419 1116811885 -1756107905 -1850784460 822345553 1302746258 88380545 -2102743301 608088517 -1874598869 1681740080 870878717 -763965306 -1774365980 -157335210 1124830843 2144496708 45996303 -1612699054 1060033269
REM
CELL 1.54180   50.00000   50.00000   50.00000   90.00000   90.00000   90.00000
LATT -1
SFAC C  
C      1  0.4715700000000  0.5278010000000  0.4614900000000 1.0
C      1  0.4799770000000  0.5142580000000  0.5459450000000 1.0
C      1  0.4818550000000  0.4517460000000  0.4867520000000 1.0
C      1  0.5220040000000  0.4667090000000  0.4583150000000 1.0
C      1  0.5188940000000  0.4801970000000  0.5550390000000 1.0
C      1  0.5267080000000  0.5476700000000  0.4934790000000 1.0
C      1  0.5088490000000  0.5595790000000  0.4508550000000 1.0
C      1  0.4999360000000  0.5265870000000  0.5627020000000 1.0
C      1  0.5021680000000  0.4313820000000  0.4876430000000 1.0
C      1  0.4954710000000  0.4587820000000  0.4417270000000 1.0
C      1  0.4903460000000  0.4768590000000  0.5717640000000 1.0
C      1  0.4904960000000  0.5700240000000  0.4711570000000 1.0
C      1  0.4609780000000  0.5483330000000  0.5018090000000 1.0
C      1  0.4545510000000  0.4647770000000  0.5409580000000 1.0
C      1  0.4576210000000  0.4836820000000  0.4539060000000 1.0
C      1  0.5425980000000  0.4486430000000  0.5052220000000 1.0
C      1  0.5401480000000  0.5273260000000  0.5406080000000 1.0
C      1  0.5418890000000  0.5263400000000  0.4543090000000 1.0
C      1  0.5269970000000  0.4443890000000  0.4791840000000 1.0
C      1  0.5318880000000  0.5500990000000  0.4655540000000 1.0
C      1  0.5246540000000  0.5110970000000  0.5589700000000 1.0
C      1  0.4673470000000  0.5526190000000  0.4736990000000 1.0
C      1  0.4735040000000  0.4598230000000  0.4603690000000 1.0
C      1  0.4700280000000  0.4897470000000  0.5561630000000 1.0
C      1  0.5250840000000  0.5170780000000  0.4333820000000 1.0
C      1  0.5290080000000  0.5552400000000  0.5399390000000 1.0
C      1  0.5271870000000  0.4326860000000  0.5271890000000 1.0
C      1  0.4694390000000  0.4967010000000  0.4293240000000 1.0
C      1  0.4730150000000  0.4398480000000  0.5465880000000 1.0
C      1  0.4766700000000  0.5668420000000  0.5172710000000 1.0
C      1  0.4989850000000  0.5757600000000  0.4998650000000 1.0
C      1  0.4950320000000  0.4490420000000  0.5627010000000 1.0
C      1  0.4920920000000  0.4804370000000  0.4203260000000 1.0
C      1  0.5044720000000  0.4198540000000  0.5143560000000 1.0
C      1  0.5043500000000  0.5545180000000  0.5558310000000 1.0
C      1  0.5028740000000  0.5368190000000  0.4302790000000 1.0
C      1  0.4609030000000  0.5145720000000  0.4976270000000 1.0
C      1  0.4637250000000  0.4866220000000  0.5167970000000 1.0
C      1  0.4433930000000  0.4951720000000  0.4758540000000 1.0
C      1  0.5412440000000  0.4805770000000  0.5158470000000 1.0
C      1  0.5437960000000  0.5115540000000  0.5107080000000 1.0
C      1  0.5451140000000  0.5068180000000  0.4770560000000 1.0
C      1  0.4326980000000  0.5186030000000  0.5146850000000 1.0
C      1  0.4336170000000  0.4735540000000  0.5159950000000 1.0
C      1  0.4245540000000  0.4789730000000  0.4907670000000 1.0
C      1  0.5708550000000  0.4635700000000  0.5159370000000 1.0
C      1  0.5783710000000  0.5163720000000  0.5122980000000 1.0
C      1  0.5755340000000  0.5046170000000  0.4875130000000 1.0
C      1  0.4871610000000  0.5189750000000  0.5185500000000 1.0
C      1  0.4869550000000  0.4696100000000  0.5085230000000 1.0
C      1  0.4881560000000  0.5082220000000  0.4782710000000 1.0
C      1  0.5110490000000  0.4726600000000  0.5230270000000 1.0
C      1  0.5122240000000  0.5234200000000  0.5063640000000 1.0
C      1  0.5144370000000  0.4965490000000  0.4721680000000 1.0
C      1  0.4766770000000  0.5243030000000  0.4338340000000 1.0
C      1  0.4822870000000  0.5692480000000  0.5451050000000 1.0
C      1  0.4805130000000  0.4176660000000  0.5303010000000 1.0
C      1  0.5191140000000  0.4894720000000  0.4331320000000 1.0
C      1  0.5225790000000  0.4465760000000  0.5509060000000 1.0
C      1  0.5263570000000  0.5689980000000  0.5140620000000 1.0
END
