TITL C-27132-7279-19 -0.000245362898908048 125000 -345.128707163491 0 0 60 (C1) n - 1
REM
REM in /home/nfs/bkarasulu/CARBON/AIRSS/Generating-Clusters/AIREBO/Higher-Symm/Only-C60
REM
REM
REM
REM
REM
REM ./C.cell (28575a23ae977d3b5fae324c64b13b57)
REM
REM compiler GCC version 9.2.1 20190827 (Red Hat 9.2.1-1)
REM options -cpp -mtune=generic -march=x86-64 -g -O0 -fpre-include=/usr/include/finclude/math-vector-fortran.h
REM seed -1677136353 -1809414030 -1132637794 -1911691216 546410027 1762949383 1428488759 367587410 -1097602788 2013084318 89696278 -1281292240 -353050728 276532326 851333470 1347558643 -194382284 194094471 -627175828 -2003662304 -955930184 -227798623 -877273426 -546310234 1073672236 1623020619 446819183 -1200520105 355351875 2132783837 1307980608 -824518568 1653492311
REM
CELL 1.54180   50.00000   50.00000   50.00000   90.00000   90.00000   90.00000
LATT -1
SFAC C  
C      1  0.5196500000000  0.4619910000000  0.5186750000000 1.0
C      1  0.5265890000000  0.5356360000000  0.5173600000000 1.0
C      1  0.4580930000000  0.5086110000000  0.5146330000000 1.0
C      1  0.4655350000000  0.5234250000000  0.5573570000000 1.0
C      1  0.4980980000000  0.4569780000000  0.5519950000000 1.0
C      1  0.5407950000000  0.5206580000000  0.5559370000000 1.0
C      1  0.4208220000000  0.5147950000000  0.4790070000000 1.0
C      1  0.5270070000000  0.4209710000000  0.4723920000000 1.0
C      1  0.5509430000000  0.5594750000000  0.4739760000000 1.0
C      1  0.4308260000000  0.5214820000000  0.5255460000000 1.0
C      1  0.5050570000000  0.4241490000000  0.5159930000000 1.0
C      1  0.5535410000000  0.5507500000000  0.5213850000000 1.0
C      1  0.4824190000000  0.5516800000000  0.5206420000000 1.0
C      1  0.4676580000000  0.4602990000000  0.5131410000000 1.0
C      1  0.5518760000000  0.4915780000000  0.5175670000000 1.0
C      1  0.4176000000000  0.4776420000000  0.5105060000000 1.0
C      1  0.5420050000000  0.4392040000000  0.5163710000000 1.0
C      1  0.5264170000000  0.5865790000000  0.5058020000000 1.0
C      1  0.5587010000000  0.4616890000000  0.5070090000000 1.0
C      1  0.5027730000000  0.5737910000000  0.5064260000000 1.0
C      1  0.4414070000000  0.4683100000000  0.5004790000000 1.0
C      1  0.4954720000000  0.4792950000000  0.4582770000000 1.0
C      1  0.5201070000000  0.5026470000000  0.4602290000000 1.0
C      1  0.4878290000000  0.5122110000000  0.4576770000000 1.0
C      1  0.4740730000000  0.4693640000000  0.5430250000000 1.0
C      1  0.5424110000000  0.4936160000000  0.5476650000000 1.0
C      1  0.4873360000000  0.5399120000000  0.5495440000000 1.0
C      1  0.4663990000000  0.5087500000000  0.4816310000000 1.0
C      1  0.5112140000000  0.4696570000000  0.4866180000000 1.0
C      1  0.5213230000000  0.5256300000000  0.4852780000000 1.0
C      1  0.4855780000000  0.4890580000000  0.5103250000000 1.0
C      1  0.5181830000000  0.4958520000000  0.5159280000000 1.0
C      1  0.4959900000000  0.5209260000000  0.5155200000000 1.0
C      1  0.4990120000000  0.5500950000000  0.4846380000000 1.0
C      1  0.4475660000000  0.4851590000000  0.4770460000000 1.0
C      1  0.5426020000000  0.4752600000000  0.4825060000000 1.0
C      1  0.5141190000000  0.5324620000000  0.5490850000000 1.0
C      1  0.4674500000000  0.4962490000000  0.5450400000000 1.0
C      1  0.5212220000000  0.4754260000000  0.5498770000000 1.0
C      1  0.5434400000000  0.4886330000000  0.4449100000000 1.0
C      1  0.4901050000000  0.5389340000000  0.4416510000000 1.0
C      1  0.4734420000000  0.4666700000000  0.4401200000000 1.0
C      1  0.5496880000000  0.5706730000000  0.5005230000000 1.0
C      1  0.4147790000000  0.5061110000000  0.5062070000000 1.0
C      1  0.5311110000000  0.4161860000000  0.5011650000000 1.0
C      1  0.5315110000000  0.5676550000000  0.4543690000000 1.0
C      1  0.4232840000000  0.4937920000000  0.4556630000000 1.0
C      1  0.5457180000000  0.4343290000000  0.4553760000000 1.0
C      1  0.5615550000000  0.5386520000000  0.5464310000000 1.0
C      1  0.4386520000000  0.5327830000000  0.5507610000000 1.0
C      1  0.5021670000000  0.4299270000000  0.5435840000000 1.0
C      1  0.4900600000000  0.4454520000000  0.4975640000000 1.0
C      1  0.5487770000000  0.5067160000000  0.4877640000000 1.0
C      1  0.4684210000000  0.5400010000000  0.4921600000000 1.0
C      1  0.5049300000000  0.5577050000000  0.4556830000000 1.0
C      1  0.4483620000000  0.4737560000000  0.4472580000000 1.0
C      1  0.5502320000000  0.4620950000000  0.4551060000000 1.0
C      1  0.5603200000000  0.5326880000000  0.4728880000000 1.0
C      1  0.4386830000000  0.5372880000000  0.4782430000000 1.0
C      1  0.4990630000000  0.4286890000000  0.4704660000000 1.0
END
