TITL C-27143-4867-49 -0.001612273321813 125000 -330.170818524881 0 0 60 (C1) n - 1
REM
REM in /home/nfs/bkarasulu/CARBON/AIRSS/Generating-Clusters/AIREBO/Higher-Symm/Only-C60
REM
REM
REM
REM
REM
REM ./C.cell (28575a23ae977d3b5fae324c64b13b57)
REM
REM compiler GCC version 9.2.1 20190827 (Red Hat 9.2.1-1)
REM options -cpp -mtune=generic -march=x86-64 -g -O0 -fpre-include=/usr/include/finclude/math-vector-fortran.h
REM seed 560954953 2032001043 1376228082 -818071775 -648341018 -1072390677 -1439281005 -471747287 193979430 1630218573 1078599498 774281701 524384496 351490603 1934445577 -1215654304 -75891193 -1344607405 1028100997 1336775254 -1094824137 1881519562 -1734084477 -839320512 -455270122 1546015658 856960679 1602040211 235413060 -869026466 -593678931 -1843094296 -1029453850
REM
CELL 1.54180   50.00000   50.00000   50.00000   90.00000   90.00000   90.00000
LATT -1
SFAC C  
C      1  0.5284140000000  0.5589090000000  0.4733460000000 1.0
C      1  0.4599750000000  0.5551620000000  0.4904340000000 1.0
C      1  0.5082280000000  0.5538720000000  0.5353810000000 1.0
C      1  0.4615640000000  0.5478020000000  0.5439560000000 1.0
C      1  0.5564110000000  0.5472750000000  0.5082590000000 1.0
C      1  0.4794850000000  0.5521090000000  0.4475350000000 1.0
C      1  0.5587610000000  0.4624860000000  0.4708570000000 1.0
C      1  0.4464230000000  0.4669700000000  0.4641670000000 1.0
C      1  0.4978920000000  0.4671960000000  0.5672560000000 1.0
C      1  0.4625050000000  0.4902530000000  0.4748660000000 1.0
C      1  0.4964730000000  0.4891780000000  0.5456670000000 1.0
C      1  0.5525750000000  0.4897150000000  0.4840580000000 1.0
C      1  0.4484140000000  0.5409280000000  0.5186390000000 1.0
C      1  0.5394100000000  0.5410150000000  0.5310570000000 1.0
C      1  0.5085600000000  0.5503720000000  0.4488770000000 1.0
C      1  0.5352450000000  0.4886500000000  0.5361530000000 1.0
C      1  0.5222990000000  0.4850120000000  0.4485570000000 1.0
C      1  0.4438590000000  0.4883140000000  0.5149640000000 1.0
C      1  0.4934660000000  0.4832440000000  0.4381130000000 1.0
C      1  0.4510390000000  0.4810910000000  0.5445860000000 1.0
C      1  0.5590790000000  0.4774500000000  0.5212860000000 1.0
C      1  0.4664760000000  0.5254590000000  0.5597560000000 1.0
C      1  0.5669910000000  0.5252320000000  0.4947380000000 1.0
C      1  0.4679110000000  0.5273310000000  0.4431010000000 1.0
C      1  0.5190070000000  0.5265120000000  0.4713600000000 1.0
C      1  0.4672840000000  0.5229650000000  0.4967000000000 1.0
C      1  0.5091570000000  0.5219740000000  0.5273370000000 1.0
C      1  0.5168890000000  0.4575250000000  0.5137670000000 1.0
C      1  0.5035560000000  0.4636150000000  0.4766360000000 1.0
C      1  0.4712680000000  0.4592720000000  0.5165100000000 1.0
C      1  0.5304290000000  0.4308990000000  0.4518510000000 1.0
C      1  0.4502170000000  0.4359720000000  0.5030000000000 1.0
C      1  0.5214410000000  0.4365780000000  0.5568860000000 1.0
C      1  0.4667240000000  0.5673940000000  0.4678090000000 1.0
C      1  0.4844600000000  0.5648860000000  0.5411760000000 1.0
C      1  0.5457670000000  0.5672930000000  0.4914260000000 1.0
C      1  0.5488060000000  0.4544320000000  0.5024400000000 1.0
C      1  0.4781430000000  0.4605050000000  0.4536860000000 1.0
C      1  0.4735200000000  0.4566600000000  0.5473500000000 1.0
C      1  0.4800860000000  0.5054960000000  0.4298470000000 1.0
C      1  0.4501670000000  0.5023790000000  0.5618550000000 1.0
C      1  0.5750410000000  0.4991360000000  0.5076320000000 1.0
C      1  0.5095590000000  0.4907360000000  0.5139060000000 1.0
C      1  0.5189020000000  0.4936060000000  0.4813040000000 1.0
C      1  0.4765080000000  0.4911370000000  0.5058380000000 1.0
C      1  0.4244740000000  0.5192250000000  0.4822740000000 1.0
C      1  0.5234650000000  0.5202600000000  0.5719240000000 1.0
C      1  0.5377560000000  0.5109980000000  0.4396470000000 1.0
C      1  0.5248240000000  0.5324610000000  0.4279860000000 1.0
C      1  0.4302750000000  0.5154550000000  0.5097580000000 1.0
C      1  0.5413270000000  0.5159260000000  0.5501390000000 1.0
C      1  0.4947970000000  0.5180570000000  0.5579130000000 1.0
C      1  0.5510160000000  0.5177980000000  0.4678790000000 1.0
C      1  0.4524390000000  0.5186410000000  0.4664120000000 1.0
C      1  0.5255910000000  0.4427580000000  0.4813430000000 1.0
C      1  0.4755900000000  0.4503790000000  0.4855450000000 1.0
C      1  0.5026950000000  0.4436340000000  0.5355890000000 1.0
C      1  0.5407640000000  0.4589840000000  0.4482790000000 1.0
C      1  0.4388880000000  0.4639720000000  0.4935820000000 1.0
C      1  0.5277110000000  0.4674560000000  0.5578060000000 1.0
END
