TITL C-27142-7278-31 -0.000654786469666719 125000 -322.746048553712 0 0 60 (C1) n - 1
REM
REM in /home/nfs/bkarasulu/CARBON/AIRSS/Generating-Clusters/AIREBO/Higher-Symm/Only-C60
REM
REM
REM
REM
REM
REM ./C.cell (28575a23ae977d3b5fae324c64b13b57)
REM
REM compiler GCC version 9.2.1 20190827 (Red Hat 9.2.1-1)
REM options -cpp -mtune=generic -march=x86-64 -g -O0 -fpre-include=/usr/include/finclude/math-vector-fortran.h
REM seed -1155434339 148895515 2098109172 823890558 265845911 -1425876902 -1472601619 1354892668 -528487104 -1183100652 -1301955862 -1870154903 -440230828 -1021141771 509266450 68271570 -294401538 -1369686714 1043723412 -764319403 1163311141 -466636819 -938824787 11528833 -1824903851 1008701466 -1325539234 -1439538062 1495467996 1616386832 1379481515 317681974 -694939363
REM
CELL 1.54180   50.00000   50.00000   50.00000   90.00000   90.00000   90.00000
LATT -1
SFAC C  
C      1  0.4912220000000  0.5182120000000  0.4275680000000 1.0
C      1  0.4191380000000  0.4728490000000  0.5242840000000 1.0
C      1  0.5209510000000  0.4289700000000  0.4866190000000 1.0
C      1  0.5191290000000  0.5188280000000  0.5753380000000 1.0
C      1  0.4784960000000  0.4896710000000  0.5731260000000 1.0
C      1  0.5125040000000  0.4844950000000  0.4267590000000 1.0
C      1  0.5759180000000  0.4856110000000  0.4717250000000 1.0
C      1  0.4154450000000  0.5086650000000  0.4869180000000 1.0
C      1  0.5758370000000  0.5097960000000  0.5144830000000 1.0
C      1  0.4878000000000  0.4259490000000  0.5084760000000 1.0
C      1  0.5224400000000  0.5774430000000  0.5129940000000 1.0
C      1  0.4899950000000  0.5694880000000  0.4762710000000 1.0
C      1  0.4824320000000  0.4899470000000  0.4172900000000 1.0
C      1  0.4118700000000  0.5020690000000  0.5199410000000 1.0
C      1  0.5194430000000  0.5714130000000  0.4831570000000 1.0
C      1  0.5088390000000  0.4895710000000  0.5735230000000 1.0
C      1  0.4883110000000  0.5236220000000  0.5751250000000 1.0
C      1  0.5203580000000  0.5134340000000  0.4347320000000 1.0
C      1  0.5767640000000  0.5110750000000  0.4855300000000 1.0
C      1  0.4200610000000  0.4781750000000  0.4892090000000 1.0
C      1  0.5739620000000  0.4824790000000  0.5225710000000 1.0
C      1  0.4874210000000  0.5777240000000  0.5060260000000 1.0
C      1  0.5172780000000  0.4305380000000  0.5185280000000 1.0
C      1  0.4914310000000  0.4230090000000  0.4778670000000 1.0
C      1  0.4255220000000  0.5294970000000  0.5293220000000 1.0
C      1  0.5122160000000  0.4560840000000  0.5323220000000 1.0
C      1  0.5283930000000  0.5197300000000  0.4622830000000 1.0
C      1  0.5556400000000  0.5303240000000  0.4788630000000 1.0
C      1  0.4474970000000  0.4696360000000  0.4967780000000 1.0
C      1  0.5523080000000  0.4708010000000  0.5083330000000 1.0
C      1  0.4836000000000  0.4456510000000  0.4619100000000 1.0
C      1  0.5341750000000  0.5528560000000  0.4692120000000 1.0
C      1  0.4913070000000  0.5569000000000  0.5266640000000 1.0
C      1  0.4714460000000  0.5212940000000  0.5503370000000 1.0
C      1  0.5217190000000  0.4726190000000  0.5526070000000 1.0
C      1  0.4590990000000  0.4872530000000  0.4348920000000 1.0
C      1  0.4502520000000  0.4660810000000  0.5297110000000 1.0
C      1  0.5248830000000  0.5555320000000  0.5369170000000 1.0
C      1  0.5264490000000  0.4625660000000  0.4374870000000 1.0
C      1  0.5571200000000  0.4660500000000  0.4811470000000 1.0
C      1  0.4377810000000  0.5255100000000  0.5009870000000 1.0
C      1  0.5541130000000  0.5257190000000  0.5237290000000 1.0
C      1  0.4845140000000  0.5431710000000  0.4688260000000 1.0
C      1  0.5328760000000  0.4530270000000  0.4685830000000 1.0
C      1  0.4746490000000  0.4495640000000  0.5174950000000 1.0
C      1  0.4639240000000  0.4879310000000  0.5440720000000 1.0
C      1  0.5387360000000  0.5307270000000  0.5529670000000 1.0
C      1  0.4744550000000  0.5260270000000  0.4492520000000 1.0
C      1  0.4986390000000  0.5231830000000  0.4887410000000 1.0
C      1  0.4947900000000  0.4762370000000  0.5111670000000 1.0
C      1  0.4657160000000  0.5167020000000  0.4942860000000 1.0
C      1  0.5271380000000  0.4867430000000  0.5115020000000 1.0
C      1  0.5083120000000  0.5274530000000  0.5272460000000 1.0
C      1  0.5267790000000  0.5017960000000  0.5400410000000 1.0
C      1  0.5298130000000  0.5291470000000  0.5009610000000 1.0
C      1  0.5038460000000  0.4707160000000  0.4693190000000 1.0
C      1  0.4628090000000  0.5002580000000  0.4646140000000 1.0
C      1  0.5155140000000  0.4963900000000  0.4834460000000 1.0
C      1  0.4824270000000  0.5060210000000  0.5220000000000 1.0
C      1  0.4744930000000  0.4777690000000  0.4839220000000 1.0
END
