TITL C-27130-3996-148 -3.97941642613506e-05 125000 -313.688960134635 0 0 60 (C1) n - 1
REM
REM in /home/nfs/bkarasulu/CARBON/AIRSS/Generating-Clusters/AIREBO/Higher-Symm/Only-C60
REM
REM
REM
REM
REM
REM ./C.cell (28575a23ae977d3b5fae324c64b13b57)
REM
REM compiler GCC version 9.2.1 20190827 (Red Hat 9.2.1-1)
REM options -cpp -mtune=generic -march=x86-64 -g -O0 -fpre-include=/usr/include/finclude/math-vector-fortran.h
REM seed 1825110846 555148601 -720474881 1063459537 1574948791 -1913712349 -1333004600 1126171134 -707222977 70065682 1051770602 -257467407 -1960136894 -1723855195 -1970045477 1517952763 1720560263 334275903 -1971685259 40415281 -1517321692 -1364128796 -531357570 -1516497423 -1157142820 -866760257 117967663 2141293892 1767506907 -1925639910 386810929 -2126829538 641543933
REM
CELL 1.54180   50.00000   50.00000   50.00000   90.00000   90.00000   90.00000
LATT -1
SFAC C  
C      1  0.5392260000000  0.4291950000000  0.5084380000000 1.0
C      1  0.5407570000000  0.4968420000000  0.5672460000000 1.0
C      1  0.5306170000000  0.5702480000000  0.5203030000000 1.0
C      1  0.5424610000000  0.5420750000000  0.4566330000000 1.0
C      1  0.5294620000000  0.4670830000000  0.4397240000000 1.0
C      1  0.5098290000000  0.4431290000000  0.4984760000000 1.0
C      1  0.5102370000000  0.4865640000000  0.5563270000000 1.0
C      1  0.5066080000000  0.5488370000000  0.5313680000000 1.0
C      1  0.5094890000000  0.5431640000000  0.4648720000000 1.0
C      1  0.5018690000000  0.4842190000000  0.4498130000000 1.0
C      1  0.4298930000000  0.4671020000000  0.4333020000000 1.0
C      1  0.4508910000000  0.4114490000000  0.5271680000000 1.0
C      1  0.4374980000000  0.4831670000000  0.5800470000000 1.0
C      1  0.4362670000000  0.5845990000000  0.5352790000000 1.0
C      1  0.4460340000000  0.5608500000000  0.4283480000000 1.0
C      1  0.4534210000000  0.5678370000000  0.5264180000000 1.0
C      1  0.4639110000000  0.5450550000000  0.4413750000000 1.0
C      1  0.4528360000000  0.4710020000000  0.4443420000000 1.0
C      1  0.4680760000000  0.4303990000000  0.5223270000000 1.0
C      1  0.4566430000000  0.4900960000000  0.5644340000000 1.0
C      1  0.4716570000000  0.4959310000000  0.4465480000000 1.0
C      1  0.4768240000000  0.4403100000000  0.4947280000000 1.0
C      1  0.4792640000000  0.4750320000000  0.5483360000000 1.0
C      1  0.4732670000000  0.5458050000000  0.5372990000000 1.0
C      1  0.4766360000000  0.5512930000000  0.4682740000000 1.0
C      1  0.4708450000000  0.5159540000000  0.5212030000000 1.0
C      1  0.4660750000000  0.5298180000000  0.4926330000000 1.0
C      1  0.4757500000000  0.5017290000000  0.4777140000000 1.0
C      1  0.4697320000000  0.4732120000000  0.4907280000000 1.0
C      1  0.4797490000000  0.4865170000000  0.5188070000000 1.0
C      1  0.5125400000000  0.4313710000000  0.5302740000000 1.0
C      1  0.4987560000000  0.5161590000000  0.5665190000000 1.0
C      1  0.4978670000000  0.5719990000000  0.5080440000000 1.0
C      1  0.5060140000000  0.5256350000000  0.4362060000000 1.0
C      1  0.4985690000000  0.4504110000000  0.4482170000000 1.0
C      1  0.4700370000000  0.5626080000000  0.4996500000000 1.0
C      1  0.4777490000000  0.5220870000000  0.4319290000000 1.0
C      1  0.4706850000000  0.4527330000000  0.4636030000000 1.0
C      1  0.4858000000000  0.4445270000000  0.5439410000000 1.0
C      1  0.4695590000000  0.5174240000000  0.5550660000000 1.0
C      1  0.5436670000000  0.4563670000000  0.5283880000000 1.0
C      1  0.5435260000000  0.5219730000000  0.5536930000000 1.0
C      1  0.5434550000000  0.5429880000000  0.5049800000000 1.0
C      1  0.5514140000000  0.5134860000000  0.4556950000000 1.0
C      1  0.5481430000000  0.4570790000000  0.4651430000000 1.0
C      1  0.5198950000000  0.4549270000000  0.5516630000000 1.0
C      1  0.5183930000000  0.5357990000000  0.5573620000000 1.0
C      1  0.5220820000000  0.5630170000000  0.4877140000000 1.0
C      1  0.5275350000000  0.5012390000000  0.4353560000000 1.0
C      1  0.5205560000000  0.4404570000000  0.4680490000000 1.0
C      1  0.5479800000000  0.4884610000000  0.5180240000000 1.0
C      1  0.5549140000000  0.5194090000000  0.5244910000000 1.0
C      1  0.5590330000000  0.5174660000000  0.4901210000000 1.0
C      1  0.5459890000000  0.4884660000000  0.4780740000000 1.0
C      1  0.5573260000000  0.4632170000000  0.4978440000000 1.0
C      1  0.5179510000000  0.4959390000000  0.5257850000000 1.0
C      1  0.5095690000000  0.5226610000000  0.5139370000000 1.0
C      1  0.5037220000000  0.5186570000000  0.4853710000000 1.0
C      1  0.5140480000000  0.4902390000000  0.4785980000000 1.0
C      1  0.5074020000000  0.4746870000000  0.5037530000000 1.0
END
