TITL C-27135-6010-93 1.06501158066348e-05 125000 -315.972769009214 0 0 60 (C1) n - 1
REM
REM in /home/nfs/bkarasulu/CARBON/AIRSS/Generating-Clusters/AIREBO/Higher-Symm/Only-C60
REM
REM
REM
REM
REM
REM ./C.cell (28575a23ae977d3b5fae324c64b13b57)
REM
REM compiler GCC version 9.2.1 20190827 (Red Hat 9.2.1-1)
REM options -cpp -mtune=generic -march=x86-64 -g -O0 -fpre-include=/usr/include/finclude/math-vector-fortran.h
REM seed -1363877432 -1979544881 -1504478050 -1420345457 1788766151 1008883405 1840330254 -1001962611 1481892935 -1955994356 1949035294 664189270 -1680373135 -416736496 1345591473 280798186 -1752971078 1009178242 -1776455011 1325124579 747076237 -870760880 -959401775 731650857 1651165910 915632136 33551915 -414816027 -1244760788 118379543 -1269398711 1749879863 1500025823
REM
CELL 1.54180   50.00000   50.00000   50.00000   90.00000   90.00000   90.00000
LATT -1
SFAC C  
C      1  0.5192850000000  0.5511230000000  0.5383150000000 1.0
C      1  0.5308440000000  0.4593430000000  0.5494760000000 1.0
C      1  0.4496980000000  0.4886870000000  0.5374330000000 1.0
C      1  0.4879760000000  0.5602270000000  0.5373020000000 1.0
C      1  0.4603050000000  0.4571950000000  0.5379340000000 1.0
C      1  0.5520680000000  0.4808850000000  0.5409310000000 1.0
C      1  0.4898410000000  0.4413960000000  0.5320900000000 1.0
C      1  0.4481680000000  0.5435610000000  0.5359470000000 1.0
C      1  0.5636070000000  0.5210380000000  0.5381150000000 1.0
C      1  0.5177150000000  0.4430280000000  0.5310250000000 1.0
C      1  0.5510750000000  0.5421390000000  0.5426490000000 1.0
C      1  0.4386600000000  0.5207240000000  0.5402470000000 1.0
C      1  0.5608680000000  0.4982300000000  0.5130350000000 1.0
C      1  0.4652580000000  0.4418550000000  0.5079890000000 1.0
C      1  0.4680250000000  0.5537840000000  0.5102940000000 1.0
C      1  0.4403760000000  0.4974060000000  0.5074060000000 1.0
C      1  0.5298360000000  0.4461060000000  0.5020730000000 1.0
C      1  0.5313300000000  0.5558840000000  0.5083530000000 1.0
C      1  0.4880490000000  0.4793010000000  0.5197450000000 1.0
C      1  0.4862910000000  0.5266130000000  0.5157450000000 1.0
C      1  0.5304580000000  0.5016810000000  0.5047680000000 1.0
C      1  0.5135370000000  0.4743210000000  0.5065250000000 1.0
C      1  0.5135210000000  0.5293740000000  0.5038230000000 1.0
C      1  0.4726220000000  0.5013990000000  0.5072770000000 1.0
C      1  0.4519930000000  0.4540150000000  0.4834710000000 1.0
C      1  0.4839880000000  0.5651590000000  0.4836920000000 1.0
C      1  0.5644190000000  0.4788130000000  0.4851500000000 1.0
C      1  0.5510020000000  0.4537730000000  0.4821210000000 1.0
C      1  0.5122870000000  0.5652380000000  0.4839590000000 1.0
C      1  0.4370110000000  0.4774890000000  0.4845970000000 1.0
C      1  0.5105720000000  0.4214030000000  0.4950140000000 1.0
C      1  0.4265460000000  0.5245290000000  0.5023170000000 1.0
C      1  0.5610360000000  0.5492090000000  0.5023650000000 1.0
C      1  0.4861800000000  0.4180780000000  0.4999180000000 1.0
C      1  0.5729510000000  0.5270870000000  0.4997010000000 1.0
C      1  0.4374370000000  0.5467460000000  0.4972150000000 1.0
C      1  0.4807420000000  0.5300100000000  0.4338170000000 1.0
C      1  0.5335150000000  0.5009100000000  0.4378370000000 1.0
C      1  0.4818350000000  0.4699660000000  0.4341450000000 1.0
C      1  0.5144960000000  0.5290940000000  0.4379750000000 1.0
C      1  0.4679620000000  0.4994230000000  0.4414480000000 1.0
C      1  0.5153750000000  0.4722920000000  0.4392090000000 1.0
C      1  0.4848020000000  0.4765060000000  0.5515060000000 1.0
C      1  0.4883560000000  0.5278670000000  0.5477660000000 1.0
C      1  0.5303270000000  0.4980100000000  0.5587250000000 1.0
C      1  0.5108500000000  0.4747200000000  0.5659420000000 1.0
C      1  0.5192900000000  0.5230890000000  0.5575520000000 1.0
C      1  0.4708380000000  0.5054330000000  0.5581420000000 1.0
C      1  0.5154380000000  0.4696410000000  0.4731540000000 1.0
C      1  0.4686050000000  0.5002220000000  0.4755540000000 1.0
C      1  0.5149070000000  0.5272170000000  0.4719860000000 1.0
C      1  0.4842420000000  0.4725910000000  0.4677650000000 1.0
C      1  0.5304090000000  0.4990550000000  0.4716490000000 1.0
C      1  0.4837240000000  0.5263060000000  0.4667180000000 1.0
C      1  0.4647500000000  0.4488690000000  0.4553980000000 1.0
C      1  0.4725340000000  0.5552440000000  0.4560560000000 1.0
C      1  0.5614830000000  0.4956860000000  0.4582570000000 1.0
C      1  0.5367380000000  0.4503230000000  0.4549770000000 1.0
C      1  0.5247530000000  0.5561170000000  0.4569950000000 1.0
C      1  0.4391920000000  0.4945700000000  0.4594110000000 1.0
END
