TITL C-27137-4574-101 -0.00375240020095552 125000 -324.173226663586 0 0 60 (C1) n - 1
REM
REM in /home/nfs/bkarasulu/CARBON/AIRSS/Generating-Clusters/AIREBO/Higher-Symm/Only-C60
REM
REM
REM
REM
REM
REM ./C.cell (28575a23ae977d3b5fae324c64b13b57)
REM
REM compiler GCC version 9.2.1 20190827 (Red Hat 9.2.1-1)
REM options -cpp -mtune=generic -march=x86-64 -g -O0 -fpre-include=/usr/include/finclude/math-vector-fortran.h
REM seed -473725840 -408627085 -141942645 -338739040 11638583 338335008 -743662532 2029830474 481476649 -1718789937 -1970099018 1755555933 790020820 121787268 -1814413792 -489315674 -523098810 1324208739 644422825 -282852688 1648035474 186668353 1602868054 -1039373654 -1186574050 1987771241 -1422977138 -365732333 -161345634 -1423685942 -611200995 -777583242 -1261765578
REM
CELL 1.54180   50.00000   50.00000   50.00000   90.00000   90.00000   90.00000
LATT -1
SFAC C  
C      1  0.4456090000000  0.4594250000000  0.5248910000000 1.0
C      1  0.5466910000000  0.5267710000000  0.5387420000000 1.0
C      1  0.4576260000000  0.5370500000000  0.4712820000000 1.0
C      1  0.5501470000000  0.4736850000000  0.4611290000000 1.0
C      1  0.4927850000000  0.5445070000000  0.4345190000000 1.0
C      1  0.5207730000000  0.4363510000000  0.4597430000000 1.0
C      1  0.4737160000000  0.4597340000000  0.5637020000000 1.0
C      1  0.5142250000000  0.5660690000000  0.5454980000000 1.0
C      1  0.5536450000000  0.5210670000000  0.6129220000000 1.0
C      1  0.4482690000000  0.6111070000000  0.4742340000000 1.0
C      1  0.5250660000000  0.4857070000000  0.3880750000000 1.0
C      1  0.4735730000000  0.3875750000000  0.5135250000000 1.0
C      1  0.5033510000000  0.5637910000000  0.4477620000000 1.0
C      1  0.5094470000000  0.4470190000000  0.4390950000000 1.0
C      1  0.4865600000000  0.4393730000000  0.5543070000000 1.0
C      1  0.5025870000000  0.5538370000000  0.5648420000000 1.0
C      1  0.4658810000000  0.4813170000000  0.5403290000000 1.0
C      1  0.5267040000000  0.5469080000000  0.5237570000000 1.0
C      1  0.4789090000000  0.5224970000000  0.4524720000000 1.0
C      1  0.5281110000000  0.4588780000000  0.4823710000000 1.0
C      1  0.5451440000000  0.5171370000000  0.5891820000000 1.0
C      1  0.4569660000000  0.5876820000000  0.4794230000000 1.0
C      1  0.5303770000000  0.4889310000000  0.4128280000000 1.0
C      1  0.4682950000000  0.4123790000000  0.5106670000000 1.0
C      1  0.4578080000000  0.5326620000000  0.5329830000000 1.0
C      1  0.5451510000000  0.5347920000000  0.4768090000000 1.0
C      1  0.4576540000000  0.4760420000000  0.4601290000000 1.0
C      1  0.5402660000000  0.4633720000000  0.5338090000000 1.0
C      1  0.4594130000000  0.5037340000000  0.5152850000000 1.0
C      1  0.5499060000000  0.5085320000000  0.4935830000000 1.0
C      1  0.4492510000000  0.4911680000000  0.4875980000000 1.0
C      1  0.5387220000000  0.4815660000000  0.5053660000000 1.0
C      1  0.4642310000000  0.4435750000000  0.5052910000000 1.0
C      1  0.5328070000000  0.5105310000000  0.5616110000000 1.0
C      1  0.4692870000000  0.5606580000000  0.4877000000000 1.0
C      1  0.5345780000000  0.4949130000000  0.4438600000000 1.0
C      1  0.5049330000000  0.4783550000000  0.4417810000000 1.0
C      1  0.4931940000000  0.4410940000000  0.5229780000000 1.0
C      1  0.5011930000000  0.5221830000000  0.5615240000000 1.0
C      1  0.5013480000000  0.5607240000000  0.4793400000000 1.0
C      1  0.4953740000000  0.5285670000000  0.4811980000000 1.0
C      1  0.5049520000000  0.4812950000000  0.4745730000000 1.0
C      1  0.4895960000000  0.4731260000000  0.5195220000000 1.0
C      1  0.5085010000000  0.5195500000000  0.5297500000000 1.0
C      1  0.4726210000000  0.5125890000000  0.5518570000000 1.0
C      1  0.5285010000000  0.5521420000000  0.4930130000000 1.0
C      1  0.4770320000000  0.4921620000000  0.4463470000000 1.0
C      1  0.5228410000000  0.4460150000000  0.5137010000000 1.0
C      1  0.4577490000000  0.4510400000000  0.4749700000000 1.0
C      1  0.5376390000000  0.4792590000000  0.5556600000000 1.0
C      1  0.4617690000000  0.5546960000000  0.5180650000000 1.0
C      1  0.5433480000000  0.5250690000000  0.4506230000000 1.0
C      1  0.4383160000000  0.5200050000000  0.4809300000000 1.0
C      1  0.5747360000000  0.4658610000000  0.4575970000000 1.0
C      1  0.4205870000000  0.4551580000000  0.5303510000000 1.0
C      1  0.5640420000000  0.5150280000000  0.5208130000000 1.0
C      1  0.5177360000000  0.5068690000000  0.4826060000000 1.0
C      1  0.4806340000000  0.4788840000000  0.4921460000000 1.0
C      1  0.5136080000000  0.4904920000000  0.5227810000000 1.0
C      1  0.4862170000000  0.5194960000000  0.5085530000000 1.0
END
