TITL C-27137-4574-152 0.000390472233211889 125000 -274.728535722966 0 0 60 (C1) n - 1
REM
REM in /home/nfs/bkarasulu/CARBON/AIRSS/Generating-Clusters/AIREBO/Higher-Symm/Only-C60
REM
REM
REM
REM
REM
REM ./C.cell (28575a23ae977d3b5fae324c64b13b57)
REM
REM compiler GCC version 9.2.1 20190827 (Red Hat 9.2.1-1)
REM options -cpp -mtune=generic -march=x86-64 -g -O0 -fpre-include=/usr/include/finclude/math-vector-fortran.h
REM seed 768642138 -390516467 1623270462 -1918768704 1362586600 -1744030695 1009283889 -1188684612 -1086921268 501339180 -879265679 -856243833 2066963047 666446288 1702909139 -2029789411 -741194247 -1238637930 -1172251438 -174126041 956427235 1858073844 -1228213115 -1712159040 420908270 1592091581 -2077858249 665229620 -962764066 -553627046 -363248877 -1619705223 1485703184
REM
CELL 1.54180   50.00000   50.00000   50.00000   90.00000   90.00000   90.00000
LATT -1
SFAC C  
C      1  0.5177410000000  0.4867980000000  0.5250000000000 1.0
C      1  0.4802820000000  0.5000920000000  0.5291350000000 1.0
C      1  0.5179070000000  0.5126850000000  0.5243290000000 1.0
C      1  0.4814560000000  0.5244520000000  0.5134150000000 1.0
C      1  0.5189250000000  0.5282950000000  0.5001430000000 1.0
C      1  0.4812950000000  0.5239390000000  0.4873730000000 1.0
C      1  0.5179440000000  0.5134300000000  0.4757870000000 1.0
C      1  0.4808240000000  0.4994700000000  0.4707630000000 1.0
C      1  0.5185890000000  0.4874330000000  0.4760310000000 1.0
C      1  0.4822190000000  0.4751830000000  0.4866850000000 1.0
C      1  0.5194060000000  0.4709320000000  0.5006690000000 1.0
C      1  0.4815450000000  0.4757270000000  0.5125780000000 1.0
C      1  0.4958490000000  0.4999980000000  0.5593700000000 1.0
C      1  0.5083730000000  0.5305490000000  0.5512190000000 1.0
C      1  0.4915260000000  0.5516090000000  0.5304940000000 1.0
C      1  0.5047100000000  0.5591870000000  0.5000740000000 1.0
C      1  0.4916970000000  0.5510650000000  0.4697200000000 1.0
C      1  0.5083200000000  0.5303950000000  0.4484290000000 1.0
C      1  0.4960400000000  0.4997290000000  0.4403510000000 1.0
C      1  0.5087880000000  0.4694190000000  0.4490330000000 1.0
C      1  0.4917360000000  0.4480850000000  0.4693050000000 1.0
C      1  0.5039870000000  0.4406250000000  0.5001390000000 1.0
C      1  0.4912520000000  0.4488100000000  0.5305940000000 1.0
C      1  0.5081490000000  0.4691680000000  0.5519700000000 1.0
C      1  0.4583570000000  0.4448830000000  0.5223640000000 1.0
C      1  0.5399030000000  0.4598310000000  0.5441300000000 1.0
C      1  0.4628180000000  0.4921570000000  0.5572600000000 1.0
C      1  0.5413780000000  0.5226200000000  0.5549750000000 1.0
C      1  0.4597190000000  0.5444330000000  0.5401790000000 1.0
C      1  0.5377540000000  0.5586450000000  0.5081220000000 1.0
C      1  0.4588460000000  0.5554030000000  0.4779290000000 1.0
C      1  0.5403120000000  0.5395260000000  0.4555010000000 1.0
C      1  0.4630720000000  0.5077050000000  0.4428720000000 1.0
C      1  0.5416410000000  0.4777500000000  0.4449980000000 1.0
C      1  0.4600220000000  0.4558770000000  0.4597920000000 1.0
C      1  0.5369660000000  0.4430170000000  0.4921640000000 1.0
C      1  0.5585260000000  0.4872960000000  0.4696730000000 1.0
C      1  0.4429500000000  0.4761180000000  0.4792230000000 1.0
C      1  0.5584920000000  0.4693140000000  0.4942710000000 1.0
C      1  0.4414770000000  0.4702630000000  0.5127730000000 1.0
C      1  0.5570260000000  0.4795270000000  0.5234890000000 1.0
C      1  0.4410820000000  0.4946180000000  0.5311610000000 1.0
C      1  0.5587250000000  0.5130440000000  0.5294120000000 1.0
C      1  0.4421960000000  0.5239570000000  0.5208400000000 1.0
C      1  0.5584120000000  0.5318550000000  0.5043710000000 1.0
C      1  0.4412430000000  0.5298180000000  0.4872580000000 1.0
C      1  0.5581270000000  0.5210270000000  0.4745620000000 1.0
C      1  0.4416220000000  0.5053150000000  0.4692000000000 1.0
C      1  0.4743240000000  0.5741650000000  0.4970810000000 1.0
C      1  0.5222940000000  0.5647450000000  0.4626380000000 1.0
C      1  0.4795870000000  0.5344750000000  0.4299530000000 1.0
C      1  0.5264820000000  0.4963070000000  0.4255830000000 1.0
C      1  0.4783360000000  0.4627510000000  0.4349030000000 1.0
C      1  0.5204940000000  0.4295540000000  0.4656360000000 1.0
C      1  0.4735160000000  0.4258630000000  0.5033210000000 1.0
C      1  0.5217980000000  0.4348740000000  0.5372560000000 1.0
C      1  0.4793340000000  0.4655130000000  0.5704400000000 1.0
C      1  0.5264340000000  0.5032540000000  0.5738790000000 1.0
C      1  0.4778660000000  0.5376220000000  0.5650940000000 1.0
C      1  0.5203100000000  0.5698040000000  0.5350900000000 1.0
END
