TITL C-27140-5627-30 0.000432616621431077 125000 -323.912787681263 0 0 60 (C1) n - 1
REM
REM in /home/nfs/bkarasulu/CARBON/AIRSS/Generating-Clusters/AIREBO/Higher-Symm/Only-C60
REM
REM
REM
REM
REM
REM ./C.cell (28575a23ae977d3b5fae324c64b13b57)
REM
REM compiler GCC version 9.2.1 20190827 (Red Hat 9.2.1-1)
REM options -cpp -mtune=generic -march=x86-64 -g -O0 -fpre-include=/usr/include/finclude/math-vector-fortran.h
REM seed -1049599577 -512565027 2115282478 1363794340 890026652 581782988 587805566 1597334945 1798700506 -639356184 147138556 1103768633 1015282742 -300989831 1037254041 1638746201 -1684677069 -1552827498 -1077662108 1297978423 1624306975 2111530600 -1292577437 -1260248887 -1729497183 -715275394 -277210348 -231289001 -41636969 -91410372 2023466295 -1894330883 1850802242
REM
CELL 1.54180   50.00000   50.00000   50.00000   90.00000   90.00000   90.00000
LATT -1
SFAC C  
C      1  0.5041330000000  0.5795100000000  0.4892110000000 1.0
C      1  0.4959600000000  0.4283390000000  0.5152210000000 1.0
C      1  0.4464050000000  0.5099570000000  0.4930030000000 1.0
C      1  0.5551790000000  0.4915280000000  0.5096280000000 1.0
C      1  0.5416100000000  0.4818090000000  0.4495910000000 1.0
C      1  0.4654680000000  0.5156000000000  0.5470390000000 1.0
C      1  0.4695270000000  0.5032340000000  0.5171640000000 1.0
C      1  0.5150430000000  0.4916990000000  0.4679380000000 1.0
C      1  0.4472590000000  0.5388080000000  0.5204000000000 1.0
C      1  0.5560020000000  0.4554320000000  0.4929280000000 1.0
C      1  0.4786300000000  0.4718070000000  0.4524070000000 1.0
C      1  0.5233170000000  0.5227840000000  0.5530720000000 1.0
C      1  0.5615070000000  0.4604160000000  0.5218180000000 1.0
C      1  0.4434580000000  0.5405780000000  0.4891900000000 1.0
C      1  0.5287500000000  0.5305750000000  0.4333970000000 1.0
C      1  0.4730600000000  0.4719050000000  0.5647170000000 1.0
C      1  0.5130910000000  0.4331050000000  0.4858380000000 1.0
C      1  0.4938180000000  0.5675380000000  0.5181980000000 1.0
C      1  0.4923470000000  0.4780060000000  0.5154270000000 1.0
C      1  0.5028290000000  0.5205420000000  0.4811690000000 1.0
C      1  0.5102470000000  0.5397460000000  0.5303450000000 1.0
C      1  0.4957460000000  0.4432770000000  0.4591940000000 1.0
C      1  0.5459130000000  0.4532410000000  0.5435670000000 1.0
C      1  0.4586030000000  0.5474550000000  0.4645500000000 1.0
C      1  0.4779080000000  0.5706830000000  0.4727530000000 1.0
C      1  0.5153160000000  0.4397760000000  0.5413540000000 1.0
C      1  0.5284890000000  0.4609260000000  0.4737810000000 1.0
C      1  0.4785490000000  0.5414550000000  0.5331020000000 1.0
C      1  0.5616540000000  0.4828730000000  0.4770400000000 1.0
C      1  0.4342760000000  0.5150480000000  0.5370430000000 1.0
C      1  0.4453870000000  0.4718910000000  0.5221880000000 1.0
C      1  0.5533700000000  0.5283440000000  0.4646880000000 1.0
C      1  0.4222470000000  0.4643090000000  0.4859710000000 1.0
C      1  0.5717780000000  0.5433890000000  0.5127890000000 1.0
C      1  0.4747630000000  0.5014880000000  0.4786050000000 1.0
C      1  0.5225450000000  0.4933020000000  0.5187510000000 1.0
C      1  0.5198020000000  0.4737070000000  0.5464050000000 1.0
C      1  0.4738430000000  0.5248090000000  0.4542870000000 1.0
C      1  0.5167220000000  0.4546180000000  0.5114790000000 1.0
C      1  0.4851590000000  0.5451770000000  0.4940370000000 1.0
C      1  0.4647410000000  0.4351520000000  0.5150930000000 1.0
C      1  0.5278560000000  0.5675840000000  0.4807420000000 1.0
C      1  0.5093500000000  0.4995980000000  0.5602660000000 1.0
C      1  0.4927150000000  0.4987130000000  0.4432640000000 1.0
C      1  0.5214710000000  0.5216690000000  0.5079190000000 1.0
C      1  0.4898910000000  0.4653990000000  0.4839200000000 1.0
C      1  0.5227680000000  0.5032550000000  0.4309450000000 1.0
C      1  0.4819160000000  0.4980800000000  0.5650420000000 1.0
C      1  0.4266710000000  0.4878670000000  0.5336600000000 1.0
C      1  0.5700450000000  0.5077980000000  0.4599770000000 1.0
C      1  0.4304280000000  0.4888350000000  0.4715870000000 1.0
C      1  0.5649940000000  0.5172090000000  0.5262570000000 1.0
C      1  0.5462110000000  0.5334870000000  0.4949430000000 1.0
C      1  0.4606730000000  0.4734060000000  0.4918440000000 1.0
C      1  0.5514640000000  0.5207630000000  0.5510390000000 1.0
C      1  0.4475820000000  0.4813650000000  0.4505610000000 1.0
C      1  0.5229830000000  0.5417090000000  0.4636000000000 1.0
C      1  0.4724420000000  0.4596510000000  0.5360000000000 1.0
C      1  0.5513290000000  0.5660220000000  0.4996440000000 1.0
C      1  0.4447590000000  0.4437520000000  0.4944160000000 1.0
END
