TITL C-27138-9601-30 -0.00239868715899334 125000 -318.524314941328 0 0 60 (C1) n - 1
REM
REM in /home/nfs/bkarasulu/CARBON/AIRSS/Generating-Clusters/AIREBO/Higher-Symm/Only-C60
REM
REM
REM
REM
REM
REM ./C.cell (28575a23ae977d3b5fae324c64b13b57)
REM
REM compiler GCC version 9.2.1 20190827 (Red Hat 9.2.1-1)
REM options -cpp -mtune=generic -march=x86-64 -g -O0 -fpre-include=/usr/include/finclude/math-vector-fortran.h
REM seed -513226123 1594228289 -2069252618 -928108166 -1758784638 -1894575993 -1371212018 774076797 1619940063 -1510646453 -1114090610 -45565611 1676227361 -1359094395 -392948860 1405522478 -1315353775 -1493105118 1621695954 713222697 1005100357 -1734238887 -519315911 -1681235305 636537283 -1932801869 -623215242 -19947458 1310119978 -1456021563 1109829035 -2047379488 -1100693392
REM
CELL 1.54180   50.00000   50.00000   50.00000   90.00000   90.00000   90.00000
LATT -1
SFAC C  
C      1  0.5602920000000  0.5373830000000  0.4234120000000 1.0
C      1  0.5328550000000  0.5195070000000  0.5951840000000 1.0
C      1  0.4053580000000  0.5183190000000  0.4700480000000 1.0
C      1  0.4768310000000  0.5149440000000  0.4340460000000 1.0
C      1  0.5551620000000  0.5136460000000  0.5133790000000 1.0
C      1  0.4540410000000  0.5231780000000  0.5444990000000 1.0
C      1  0.5106640000000  0.5664790000000  0.5263740000000 1.0
C      1  0.4739000000000  0.5656990000000  0.4883750000000 1.0
C      1  0.5071850000000  0.5639850000000  0.4931420000000 1.0
C      1  0.5575900000000  0.4969300000000  0.5603430000000 1.0
C      1  0.4330620000000  0.5106460000000  0.5146790000000 1.0
C      1  0.5230390000000  0.5087340000000  0.4379610000000 1.0
C      1  0.4651990000000  0.4268200000000  0.5266960000000 1.0
C      1  0.4900870000000  0.4162530000000  0.4659360000000 1.0
C      1  0.5292810000000  0.4134040000000  0.5182670000000 1.0
C      1  0.4439530000000  0.4727510000000  0.5108930000000 1.0
C      1  0.5239620000000  0.4699410000000  0.4459140000000 1.0
C      1  0.5395630000000  0.4644340000000  0.5457510000000 1.0
C      1  0.5382040000000  0.5509250000000  0.4901890000000 1.0
C      1  0.4903890000000  0.5583950000000  0.5433130000000 1.0
C      1  0.4639650000000  0.5555260000000  0.4648940000000 1.0
C      1  0.4861000000000  0.5283720000000  0.5546690000000 1.0
C      1  0.4559510000000  0.5250420000000  0.4606810000000 1.0
C      1  0.5450390000000  0.5311480000000  0.4702180000000 1.0
C      1  0.5158730000000  0.4385420000000  0.5090970000000 1.0
C      1  0.4835820000000  0.4465830000000  0.5132700000000 1.0
C      1  0.4971060000000  0.4398820000000  0.4829250000000 1.0
C      1  0.4786970000000  0.4855930000000  0.4866530000000 1.0
C      1  0.5217930000000  0.4857520000000  0.4883290000000 1.0
C      1  0.5090530000000  0.4840420000000  0.5290560000000 1.0
C      1  0.4622830000000  0.5521400000000  0.5335570000000 1.0
C      1  0.4851120000000  0.5464070000000  0.4439960000000 1.0
C      1  0.5498130000000  0.5420480000000  0.5160820000000 1.0
C      1  0.5603140000000  0.4861800000000  0.5297730000000 1.0
C      1  0.4447340000000  0.4908080000000  0.5397260000000 1.0
C      1  0.4970910000000  0.4870990000000  0.4339160000000 1.0
C      1  0.5353440000000  0.5094440000000  0.5698470000000 1.0
C      1  0.4304610000000  0.5169200000000  0.4808160000000 1.0
C      1  0.5442060000000  0.5264290000000  0.4417520000000 1.0
C      1  0.5307830000000  0.4654420000000  0.5129160000000 1.0
C      1  0.4763980000000  0.4793970000000  0.5186100000000 1.0
C      1  0.5005120000000  0.4678290000000  0.4687610000000 1.0
C      1  0.4406180000000  0.4584020000000  0.4880170000000 1.0
C      1  0.5478860000000  0.4593580000000  0.4526450000000 1.0
C      1  0.5190860000000  0.4560980000000  0.5619610000000 1.0
C      1  0.5122260000000  0.5085020000000  0.5520690000000 1.0
C      1  0.4586080000000  0.5076100000000  0.4964470000000 1.0
C      1  0.5122590000000  0.5058150000000  0.4655360000000 1.0
C      1  0.5645090000000  0.4592300000000  0.4754040000000 1.0
C      1  0.4908890000000  0.4575030000000  0.5628760000000 1.0
C      1  0.4504360000000  0.4601150000000  0.4617310000000 1.0
C      1  0.4567920000000  0.5675200000000  0.5106760000000 1.0
C      1  0.5024890000000  0.5645310000000  0.4594660000000 1.0
C      1  0.5375220000000  0.5605100000000  0.5342150000000 1.0
C      1  0.4830050000000  0.5076540000000  0.4651430000000 1.0
C      1  0.5454150000000  0.5074930000000  0.4874350000000 1.0
C      1  0.4876350000000  0.5103720000000  0.5270310000000 1.0
C      1  0.4730610000000  0.4676860000000  0.4486980000000 1.0
C      1  0.5617840000000  0.4668490000000  0.5014060000000 1.0
C      1  0.4709540000000  0.4717570000000  0.5512940000000 1.0
END
