TITL C-27145-253-179 3.71679321550013e-05 125000 -275.430102506123 0 0 60 (C1) n - 1
REM
REM in /home/nfs/bkarasulu/CARBON/AIRSS/Generating-Clusters/AIREBO/Higher-Symm/Only-C60
REM
REM
REM
REM
REM
REM ./C.cell (28575a23ae977d3b5fae324c64b13b57)
REM
REM compiler GCC version 9.2.1 20190827 (Red Hat 9.2.1-1)
REM options -cpp -mtune=generic -march=x86-64 -g -O0 -fpre-include=/usr/include/finclude/math-vector-fortran.h
REM seed -1736744558 -384204535 -463821041 604431912 -1189802702 -1750220768 1662441748 -1926882592 -157661574 -398397501 1802195422 145541033 -1192659301 -236785296 1868019794 -2026287768 -1692665359 -1125478425 665782297 -377910169 1278797472 -132364823 -2095465742 2022361087 1620351741 1723127639 -183779759 2142766543 -683785509 1719200332 502827909 -1385173502 -811613703
REM
CELL 1.54180   50.00000   50.00000   50.00000   90.00000   90.00000   90.00000
LATT -1
SFAC C  
C      1  0.4789580000000  0.5208490000000  0.4429350000000 1.0
C      1  0.4412060000000  0.5154010000000  0.4965370000000 1.0
C      1  0.4834010000000  0.5154870000000  0.5584220000000 1.0
C      1  0.5507610000000  0.5206560000000  0.5346530000000 1.0
C      1  0.5484060000000  0.5162250000000  0.4630680000000 1.0
C      1  0.4852070000000  0.4874290000000  0.4436270000000 1.0
C      1  0.4384030000000  0.4816670000000  0.4997810000000 1.0
C      1  0.4810670000000  0.4809790000000  0.5579810000000 1.0
C      1  0.5453720000000  0.4871750000000  0.5371720000000 1.0
C      1  0.5497430000000  0.4816990000000  0.4645490000000 1.0
C      1  0.4546680000000  0.5078310000000  0.4234130000000 1.0
C      1  0.4113020000000  0.5197300000000  0.5196140000000 1.0
C      1  0.4988420000000  0.5067870000000  0.5874380000000 1.0
C      1  0.5819460000000  0.5080500000000  0.5358310000000 1.0
C      1  0.5537290000000  0.5079410000000  0.4305240000000 1.0
C      1  0.4558370000000  0.4817930000000  0.4201220000000 1.0
C      1  0.4133220000000  0.4935240000000  0.5192110000000 1.0
C      1  0.4953570000000  0.4797570000000  0.5888180000000 1.0
C      1  0.5830220000000  0.4819040000000  0.5382320000000 1.0
C      1  0.5554240000000  0.4807270000000  0.4310320000000 1.0
C      1  0.4660380000000  0.5443790000000  0.5326510000000 1.0
C      1  0.5166740000000  0.5493450000000  0.5406210000000 1.0
C      1  0.5456770000000  0.5469590000000  0.4925470000000 1.0
C      1  0.5108010000000  0.5495910000000  0.4575840000000 1.0
C      1  0.4576290000000  0.5477410000000  0.4794110000000 1.0
C      1  0.4661690000000  0.4539730000000  0.5309040000000 1.0
C      1  0.5130530000000  0.4479220000000  0.5361040000000 1.0
C      1  0.5469520000000  0.4563360000000  0.4954890000000 1.0
C      1  0.5114760000000  0.4479170000000  0.4634950000000 1.0
C      1  0.4607100000000  0.4536420000000  0.4748930000000 1.0
C      1  0.4973520000000  0.4512040000000  0.5557790000000 1.0
C      1  0.5587340000000  0.4626350000000  0.5179860000000 1.0
C      1  0.5358710000000  0.4514890000000  0.4573720000000 1.0
C      1  0.4638470000000  0.4618250000000  0.4502530000000 1.0
C      1  0.4423270000000  0.4576770000000  0.5232040000000 1.0
C      1  0.5029930000000  0.5431550000000  0.5610430000000 1.0
C      1  0.5612650000000  0.5432010000000  0.5121360000000 1.0
C      1  0.5339070000000  0.5436250000000  0.4490960000000 1.0
C      1  0.4568790000000  0.5433640000000  0.4544650000000 1.0
C      1  0.4433000000000  0.5383490000000  0.5213910000000 1.0
C      1  0.4934010000000  0.5262260000000  0.4732510000000 1.0
C      1  0.4733370000000  0.5258070000000  0.4981440000000 1.0
C      1  0.4904830000000  0.5229500000000  0.5260030000000 1.0
C      1  0.5218800000000  0.5260970000000  0.5175370000000 1.0
C      1  0.5235500000000  0.5235550000000  0.4850930000000 1.0
C      1  0.4945610000000  0.4745560000000  0.4724610000000 1.0
C      1  0.4717140000000  0.4751890000000  0.4974610000000 1.0
C      1  0.4888040000000  0.4776430000000  0.5250310000000 1.0
C      1  0.5206410000000  0.4747620000000  0.5191070000000 1.0
C      1  0.5237910000000  0.4782910000000  0.4862690000000 1.0
C      1  0.5740900000000  0.5251390000000  0.4747940000000 1.0
C      1  0.4972150000000  0.5338170000000  0.4234620000000 1.0
C      1  0.4253120000000  0.5249810000000  0.4733700000000 1.0
C      1  0.4557700000000  0.5239530000000  0.5653620000000 1.0
C      1  0.5470490000000  0.5333390000000  0.5610790000000 1.0
C      1  0.5760390000000  0.4770060000000  0.4776470000000 1.0
C      1  0.5037360000000  0.4806600000000  0.4211760000000 1.0
C      1  0.4248380000000  0.4710850000000  0.4758440000000 1.0
C      1  0.4521960000000  0.4754780000000  0.5615670000000 1.0
C      1  0.5439680000000  0.4795230000000  0.5659610000000 1.0
END
