TITL C-27133-8107-67 -0.00102021863743587 125000 -324.505734001344 0 0 60 (C1) n - 1
REM
REM in /home/nfs/bkarasulu/CARBON/AIRSS/Generating-Clusters/AIREBO/Higher-Symm/Only-C60
REM
REM
REM
REM
REM
REM ./C.cell (28575a23ae977d3b5fae324c64b13b57)
REM
REM compiler GCC version 9.2.1 20190827 (Red Hat 9.2.1-1)
REM options -cpp -mtune=generic -march=x86-64 -g -O0 -fpre-include=/usr/include/finclude/math-vector-fortran.h
REM seed 1116368156 332724907 -156607640 1074019245 2135882096 468055939 -205879182 1619592379 1076797354 -257508580 -1031509818 1284587399 -522017361 -132767456 419486599 -184605312 -1882281080 117396079 -58761039 -98826184 314482450 -789043822 -19715595 -1123954439 -1055005717 -1250997835 -1384376922 689813630 -2089250173 947376694 1406159369 11886336 579762372
REM
CELL 1.54180   50.00000   50.00000   50.00000   90.00000   90.00000   90.00000
LATT -1
SFAC C  
C      1  0.5353530000000  0.4291910000000  0.4953020000000 1.0
C      1  0.4890990000000  0.5155370000000  0.4589960000000 1.0
C      1  0.4472610000000  0.5144920000000  0.5608380000000 1.0
C      1  0.5270900000000  0.5374040000000  0.5617720000000 1.0
C      1  0.4416390000000  0.5328860000000  0.5090870000000 1.0
C      1  0.5015310000000  0.4990120000000  0.5016130000000 1.0
C      1  0.4851440000000  0.4344710000000  0.5026190000000 1.0
C      1  0.4974120000000  0.5510550000000  0.5449560000000 1.0
C      1  0.5089700000000  0.4443230000000  0.4843300000000 1.0
C      1  0.4856100000000  0.4595240000000  0.4557330000000 1.0
C      1  0.5319640000000  0.5037810000000  0.4289960000000 1.0
C      1  0.4327110000000  0.4912030000000  0.4918390000000 1.0
C      1  0.5545980000000  0.4459240000000  0.5075190000000 1.0
C      1  0.5228770000000  0.4684170000000  0.4676530000000 1.0
C      1  0.4323750000000  0.4990190000000  0.5426590000000 1.0
C      1  0.5738340000000  0.4767860000000  0.4699160000000 1.0
C      1  0.4910010000000  0.5651290000000  0.5153530000000 1.0
C      1  0.5235260000000  0.5320190000000  0.4174920000000 1.0
C      1  0.5287100000000  0.4494140000000  0.4302700000000 1.0
C      1  0.4285810000000  0.5081230000000  0.5152960000000 1.0
C      1  0.5147410000000  0.5345020000000  0.4473560000000 1.0
C      1  0.5503830000000  0.4640920000000  0.4488230000000 1.0
C      1  0.5108610000000  0.4956080000000  0.5341340000000 1.0
C      1  0.5038700000000  0.4610700000000  0.4334050000000 1.0
C      1  0.5102930000000  0.4558230000000  0.5374970000000 1.0
C      1  0.4667940000000  0.5054640000000  0.4769850000000 1.0
C      1  0.5226400000000  0.5357000000000  0.5281060000000 1.0
C      1  0.5550340000000  0.5514080000000  0.5004720000000 1.0
C      1  0.5363510000000  0.5150350000000  0.4628100000000 1.0
C      1  0.4854310000000  0.4488950000000  0.5269100000000 1.0
C      1  0.4742390000000  0.5870930000000  0.5163010000000 1.0
C      1  0.5080990000000  0.4913970000000  0.4472510000000 1.0
C      1  0.5347260000000  0.5670000000000  0.4906680000000 1.0
C      1  0.4195940000000  0.5068220000000  0.4440060000000 1.0
C      1  0.4687370000000  0.5023600000000  0.5099430000000 1.0
C      1  0.5177880000000  0.4692500000000  0.5631630000000 1.0
C      1  0.4651030000000  0.4713390000000  0.5234810000000 1.0
C      1  0.4772190000000  0.5079080000000  0.5720170000000 1.0
C      1  0.4605940000000  0.4377120000000  0.4898770000000 1.0
C      1  0.4721740000000  0.5367100000000  0.5563270000000 1.0
C      1  0.4963220000000  0.5318860000000  0.5099780000000 1.0
C      1  0.5474460000000  0.5234390000000  0.5134320000000 1.0
C      1  0.5610970000000  0.4525120000000  0.5335570000000 1.0
C      1  0.5337720000000  0.5072890000000  0.5539200000000 1.0
C      1  0.4542240000000  0.4697780000000  0.4921810000000 1.0
C      1  0.5081490000000  0.5633900000000  0.4888990000000 1.0
C      1  0.4984030000000  0.4924990000000  0.5656200000000 1.0
C      1  0.4408710000000  0.4717290000000  0.5426830000000 1.0
C      1  0.4437250000000  0.5377080000000  0.4814080000000 1.0
C      1  0.5592800000000  0.4968920000000  0.4467200000000 1.0
C      1  0.4620170000000  0.5532180000000  0.4687220000000 1.0
C      1  0.5260990000000  0.4718940000000  0.5174560000000 1.0
C      1  0.5483500000000  0.4767770000000  0.5502940000000 1.0
C      1  0.4677900000000  0.5326190000000  0.5254200000000 1.0
C      1  0.5609540000000  0.5049030000000  0.5355590000000 1.0
C      1  0.5470300000000  0.4745410000000  0.4907890000000 1.0
C      1  0.5333820000000  0.5056790000000  0.4912830000000 1.0
C      1  0.4936980000000  0.5487800000000  0.4671400000000 1.0
C      1  0.4882390000000  0.4711430000000  0.4871930000000 1.0
C      1  0.4351910000000  0.5104250000000  0.4659710000000 1.0
END
