TITL C-27135-6010-126 -0.000620402999640761 125000 -318.994205411788 0 0 60 (C1) n - 1
REM
REM in /home/nfs/bkarasulu/CARBON/AIRSS/Generating-Clusters/AIREBO/Higher-Symm/Only-C60
REM
REM
REM
REM
REM
REM ./C.cell (28575a23ae977d3b5fae324c64b13b57)
REM
REM compiler GCC version 9.2.1 20190827 (Red Hat 9.2.1-1)
REM options -cpp -mtune=generic -march=x86-64 -g -O0 -fpre-include=/usr/include/finclude/math-vector-fortran.h
REM seed -1979638580 -2105157928 -1011968002 1992842368 506090890 1129696298 1717986091 -693051123 225589190 354059405 1840322159 -1945643866 1031817984 -27819402 162396908 -1734291346 2080358553 1819388005 887083364 380796101 -2052300912 770195941 1507641374 -1056002961 -1339478359 -1789358120 2100224233 919921246 69565039 810917738 1660039864 606598737 1872419491
REM
CELL 1.54180   50.00000   50.00000   50.00000   90.00000   90.00000   90.00000
LATT -1
SFAC C  
C      1  0.4451950000000  0.5496820000000  0.4680080000000 1.0
C      1  0.4206560000000  0.4944500000000  0.4743480000000 1.0
C      1  0.4491770000000  0.4467560000000  0.4644140000000 1.0
C      1  0.5209010000000  0.4323700000000  0.4615820000000 1.0
C      1  0.5654770000000  0.4655570000000  0.4729450000000 1.0
C      1  0.5701460000000  0.5336150000000  0.4669130000000 1.0
C      1  0.5205960000000  0.5737780000000  0.4596880000000 1.0
C      1  0.5290400000000  0.5655580000000  0.5118960000000 1.0
C      1  0.4684130000000  0.5668420000000  0.5106050000000 1.0
C      1  0.4382070000000  0.5158680000000  0.5175190000000 1.0
C      1  0.4413650000000  0.4531990000000  0.5109780000000 1.0
C      1  0.4922650000000  0.4305790000000  0.5093630000000 1.0
C      1  0.5502330000000  0.4539950000000  0.5169660000000 1.0
C      1  0.5622730000000  0.5110360000000  0.5146340000000 1.0
C      1  0.5257210000000  0.5418880000000  0.5553010000000 1.0
C      1  0.5019730000000  0.5554340000000  0.5527950000000 1.0
C      1  0.4649180000000  0.5005340000000  0.5572070000000 1.0
C      1  0.4669640000000  0.4759580000000  0.5506820000000 1.0
C      1  0.4910370000000  0.4471870000000  0.5593640000000 1.0
C      1  0.5283980000000  0.4672470000000  0.5580520000000 1.0
C      1  0.5274590000000  0.4962250000000  0.5563010000000 1.0
C      1  0.4913580000000  0.4716200000000  0.4690420000000 1.0
C      1  0.5114960000000  0.4618470000000  0.4941690000000 1.0
C      1  0.5336120000000  0.5018800000000  0.4703170000000 1.0
C      1  0.5317020000000  0.5278850000000  0.4921480000000 1.0
C      1  0.5042400000000  0.5426360000000  0.4785160000000 1.0
C      1  0.4777720000000  0.5213210000000  0.4809620000000 1.0
C      1  0.4619250000000  0.4989830000000  0.5012670000000 1.0
C      1  0.4680950000000  0.5200230000000  0.5332040000000 1.0
C      1  0.4651530000000  0.4699230000000  0.5186330000000 1.0
C      1  0.4940230000000  0.4555950000000  0.5294850000000 1.0
C      1  0.5228770000000  0.4728520000000  0.5242650000000 1.0
C      1  0.5343010000000  0.5049090000000  0.5250470000000 1.0
C      1  0.5186650000000  0.5350470000000  0.5227440000000 1.0
C      1  0.4847970000000  0.5469070000000  0.5279990000000 1.0
C      1  0.4271040000000  0.5436990000000  0.5118290000000 1.0
C      1  0.4180460000000  0.4683280000000  0.5139630000000 1.0
C      1  0.4698340000000  0.4188180000000  0.4997930000000 1.0
C      1  0.5434880000000  0.4282520000000  0.5104290000000 1.0
C      1  0.5796070000000  0.4906270000000  0.5121430000000 1.0
C      1  0.5567910000000  0.5649300000000  0.5091790000000 1.0
C      1  0.4842280000000  0.5864300000000  0.4995930000000 1.0
C      1  0.5190090000000  0.4590410000000  0.4551820000000 1.0
C      1  0.5411840000000  0.4747760000000  0.4618220000000 1.0
C      1  0.5463710000000  0.5266780000000  0.4549850000000 1.0
C      1  0.5279850000000  0.5469520000000  0.4529440000000 1.0
C      1  0.4554200000000  0.5231150000000  0.4612070000000 1.0
C      1  0.4447960000000  0.4962940000000  0.4592610000000 1.0
C      1  0.4619740000000  0.4718890000000  0.4588210000000 1.0
C      1  0.5697320000000  0.4667480000000  0.5011620000000 1.0
C      1  0.5641270000000  0.5368630000000  0.4975120000000 1.0
C      1  0.5098090000000  0.5743180000000  0.4895650000000 1.0
C      1  0.4452830000000  0.5583590000000  0.4958880000000 1.0
C      1  0.4201000000000  0.4938840000000  0.5025450000000 1.0
C      1  0.4486060000000  0.4352080000000  0.4906730000000 1.0
C      1  0.5181530000000  0.4283740000000  0.4928220000000 1.0
C      1  0.5028610000000  0.5094430000000  0.5490120000000 1.0
C      1  0.4988970000000  0.5058880000000  0.4508960000000 1.0
C      1  0.4959270000000  0.5111310000000  0.5157560000000 1.0
C      1  0.5026170000000  0.4999230000000  0.4841800000000 1.0
END
