TITL C-27139-4854-34 -0.000804853958402138 125000 -323.064300815321 0 0 60 (C2) n - 1
REM
REM in /home/nfs/bkarasulu/CARBON/AIRSS/Generating-Clusters/AIREBO/Higher-Symm/Only-C60
REM
REM
REM
REM
REM
REM ./C.cell (28575a23ae977d3b5fae324c64b13b57)
REM
REM compiler GCC version 9.2.1 20190827 (Red Hat 9.2.1-1)
REM options -cpp -mtune=generic -march=x86-64 -g -O0 -fpre-include=/usr/include/finclude/math-vector-fortran.h
REM seed -554411307 1055824155 -1956699337 169363620 911229739 -146400888 -308672947 -715893494 -235297621 1921409267 -869433193 699835313 473888093 584439536 1363934994 -852624812 -1459489809 -101123288 -1556930458 1852914161 1777785639 802266150 1414563426 -1367578681 715337942 1119659218 -2068614925 1595360223 514393971 1692803160 1659763059 -1478204573 -86946125
REM
CELL 1.54180   50.00000   50.00000   50.00000   90.00000   90.00000   90.00000
LATT -1
SFAC C  
C      1  0.4785350000000  0.4565290000000  0.5303290000000 1.0
C      1  0.4710970000000  0.4800840000000  0.5406600000000 1.0
C      1  0.4725860000000  0.5107030000000  0.5486930000000 1.0
C      1  0.4762870000000  0.5382560000000  0.5295390000000 1.0
C      1  0.4733330000000  0.5501060000000  0.4989210000000 1.0
C      1  0.4785310000000  0.5434690000000  0.4696710000000 1.0
C      1  0.4710940000000  0.5199130000000  0.4593400000000 1.0
C      1  0.4725870000000  0.4892940000000  0.4513070000000 1.0
C      1  0.4762900000000  0.4617410000000  0.4704610000000 1.0
C      1  0.4733380000000  0.4498910000000  0.5010790000000 1.0
C      1  0.5009060000000  0.4392850000000  0.5417730000000 1.0
C      1  0.5241050000000  0.4630240000000  0.5765630000000 1.0
C      1  0.4963240000000  0.5158850000000  0.5682700000000 1.0
C      1  0.5009500000000  0.5525270000000  0.5415340000000 1.0
C      1  0.4994280000000  0.5690540000000  0.5015520000000 1.0
C      1  0.5009000000000  0.5607150000000  0.4582270000000 1.0
C      1  0.5241010000000  0.5369790000000  0.4234370000000 1.0
C      1  0.4963250000000  0.4841150000000  0.4317300000000 1.0
C      1  0.5009540000000  0.4474730000000  0.4584660000000 1.0
C      1  0.4994340000000  0.4309460000000  0.4984480000000 1.0
C      1  0.4395820000000  0.4954800000000  0.4566760000000 1.0
C      1  0.4425800000000  0.4680010000000  0.4664950000000 1.0
C      1  0.4441080000000  0.4573180000000  0.4937670000000 1.0
C      1  0.4271920000000  0.4640580000000  0.5148450000000 1.0
C      1  0.4260970000000  0.4821260000000  0.5352550000000 1.0
C      1  0.4395820000000  0.5045140000000  0.5433240000000 1.0
C      1  0.4425770000000  0.5319930000000  0.5335050000000 1.0
C      1  0.4441040000000  0.5426760000000  0.5062330000000 1.0
C      1  0.4271880000000  0.5359350000000  0.4851560000000 1.0
C      1  0.4260950000000  0.5178670000000  0.4647460000000 1.0
C      1  0.5652910000000  0.4844330000000  0.5393810000000 1.0
C      1  0.5553020000000  0.5110240000000  0.5454890000000 1.0
C      1  0.5637380000000  0.5362300000000  0.5333940000000 1.0
C      1  0.5576710000000  0.5442140000000  0.5062660000000 1.0
C      1  0.5534210000000  0.5343710000000  0.4789650000000 1.0
C      1  0.5652900000000  0.5155730000000  0.4606190000000 1.0
C      1  0.5553030000000  0.4889810000000  0.4545100000000 1.0
C      1  0.5637420000000  0.4637760000000  0.4666050000000 1.0
C      1  0.5576750000000  0.4557910000000  0.4937340000000 1.0
C      1  0.5534240000000  0.4656340000000  0.5210340000000 1.0
C      1  0.5083300000000  0.5567530000000  0.4280320000000 1.0
C      1  0.4941000000000  0.5000450000000  0.4057780000000 1.0
C      1  0.4977430000000  0.4516790000000  0.4263520000000 1.0
C      1  0.5002190000000  0.4164010000000  0.4689880000000 1.0
C      1  0.5004520000000  0.4111770000000  0.5250910000000 1.0
C      1  0.5083370000000  0.4432480000000  0.5719680000000 1.0
C      1  0.4941000000000  0.4999540000000  0.5942220000000 1.0
C      1  0.4977390000000  0.5483200000000  0.5736480000000 1.0
C      1  0.5002110000000  0.5835990000000  0.5310120000000 1.0
C      1  0.5004430000000  0.5888230000000  0.4749090000000 1.0
C      1  0.5238800000000  0.5429730000000  0.4698980000000 1.0
C      1  0.5311130000000  0.5198380000000  0.4476720000000 1.0
C      1  0.5227690000000  0.4887770000000  0.4466230000000 1.0
C      1  0.5281580000000  0.4630070000000  0.4678750000000 1.0
C      1  0.5247110000000  0.4496970000000  0.4983040000000 1.0
C      1  0.5238840000000  0.4570290000000  0.5301010000000 1.0
C      1  0.5311150000000  0.4801650000000  0.5523270000000 1.0
C      1  0.5227680000000  0.5112260000000  0.5533770000000 1.0
C      1  0.5281550000000  0.5369960000000  0.5321250000000 1.0
C      1  0.5247060000000  0.5503060000000  0.5016960000000 1.0
END
