TITL C-27142-7278-195 0.00011986629719108 125000 -354.047910661945 0 0 60 (C1) n - 1
REM
REM in /home/nfs/bkarasulu/CARBON/AIRSS/Generating-Clusters/AIREBO/Higher-Symm/Only-C60
REM
REM
REM
REM
REM
REM ./C.cell (28575a23ae977d3b5fae324c64b13b57)
REM
REM compiler GCC version 9.2.1 20190827 (Red Hat 9.2.1-1)
REM options -cpp -mtune=generic -march=x86-64 -g -O0 -fpre-include=/usr/include/finclude/math-vector-fortran.h
REM seed 123734237 -468966561 -1646853121 1245336509 507272162 1867532991 -2069820478 -2070819585 -1205043071 -937264815 -2019273216 1730181826 -1761754134 655330090 456574329 1212764347 1313735059 -1552925850 710172821 1639039450 133004089 -1293757996 1208341314 1639895117 -1945881626 1868130204 -225914776 -1933567336 849085330 928139358 -2085844515 -506911728 -1206632854
REM
CELL 1.54180   50.00000   50.00000   50.00000   90.00000   90.00000   90.00000
LATT -1
SFAC C  
C      1  0.5448090000000  0.5589210000000  0.4848880000000 1.0
C      1  0.5334880000000  0.4346000000000  0.4891800000000 1.0
C      1  0.4245910000000  0.5070450000000  0.4839130000000 1.0
C      1  0.5451140000000  0.5590820000000  0.5137850000000 1.0
C      1  0.5314180000000  0.4331160000000  0.5178040000000 1.0
C      1  0.4249780000000  0.5074620000000  0.5130170000000 1.0
C      1  0.4646300000000  0.5688660000000  0.5126570000000 1.0
C      1  0.5806960000000  0.4942960000000  0.5154550000000 1.0
C      1  0.4586450000000  0.4335600000000  0.5195430000000 1.0
C      1  0.4591990000000  0.5726130000000  0.4834140000000 1.0
C      1  0.5814320000000  0.4938040000000  0.4852550000000 1.0
C      1  0.4596380000000  0.4355680000000  0.4897770000000 1.0
C      1  0.4990830000000  0.5420130000000  0.5527290000000 1.0
C      1  0.5271510000000  0.4880520000000  0.5597690000000 1.0
C      1  0.4629770000000  0.4824530000000  0.5550180000000 1.0
C      1  0.4970450000000  0.5293100000000  0.4365400000000 1.0
C      1  0.5286490000000  0.4826550000000  0.4365130000000 1.0
C      1  0.4620120000000  0.4777900000000  0.4429630000000 1.0
C      1  0.4260730000000  0.4822690000000  0.5265630000000 1.0
C      1  0.5233910000000  0.5726070000000  0.5263170000000 1.0
C      1  0.5528790000000  0.4422770000000  0.5327490000000 1.0
C      1  0.4249500000000  0.4813280000000  0.4715100000000 1.0
C      1  0.5238600000000  0.5735910000000  0.4729460000000 1.0
C      1  0.5549980000000  0.4506130000000  0.4775090000000 1.0
C      1  0.4968610000000  0.5296900000000  0.5226200000000 1.0
C      1  0.5235940000000  0.4889320000000  0.5269560000000 1.0
C      1  0.4749470000000  0.4836950000000  0.5247220000000 1.0
C      1  0.4975140000000  0.5248390000000  0.4692740000000 1.0
C      1  0.5223280000000  0.4874820000000  0.4699320000000 1.0
C      1  0.4745540000000  0.4816850000000  0.4728020000000 1.0
C      1  0.4731260000000  0.5115790000000  0.4814470000000 1.0
C      1  0.5239630000000  0.5149670000000  0.4821830000000 1.0
C      1  0.5009810000000  0.4706890000000  0.4833210000000 1.0
C      1  0.4731540000000  0.5129110000000  0.5134470000000 1.0
C      1  0.5232230000000  0.5159220000000  0.5140190000000 1.0
C      1  0.5015110000000  0.4714120000000  0.5160530000000 1.0
C      1  0.4824020000000  0.4290350000000  0.5337320000000 1.0
C      1  0.4471080000000  0.5525420000000  0.5274780000000 1.0
C      1  0.5710250000000  0.5171460000000  0.5280240000000 1.0
C      1  0.4826210000000  0.4262620000000  0.4758330000000 1.0
C      1  0.4453540000000  0.5520360000000  0.4701400000000 1.0
C      1  0.5720330000000  0.5164860000000  0.4715580000000 1.0
C      1  0.5019040000000  0.5552380000000  0.4571810000000 1.0
C      1  0.5446660000000  0.4673500000000  0.4583210000000 1.0
C      1  0.4340380000000  0.4791450000000  0.4436390000000 1.0
C      1  0.5151060000000  0.5648090000000  0.5535450000000 1.0
C      1  0.5507300000000  0.4744960000000  0.5401190000000 1.0
C      1  0.4349250000000  0.4827820000000  0.5543840000000 1.0
C      1  0.5070280000000  0.4406510000000  0.4781100000000 1.0
C      1  0.4456150000000  0.5242010000000  0.4738160000000 1.0
C      1  0.5485940000000  0.5319640000000  0.4747420000000 1.0
C      1  0.5058320000000  0.4425780000000  0.5263600000000 1.0
C      1  0.4459660000000  0.5250090000000  0.5220280000000 1.0
C      1  0.5479170000000  0.5321740000000  0.5231400000000 1.0
C      1  0.5762130000000  0.4631400000000  0.4912670000000 1.0
C      1  0.4490130000000  0.4647960000000  0.4826670000000 1.0
C      1  0.4915220000000  0.5712870000000  0.4834270000000 1.0
C      1  0.5773770000000  0.4625880000000  0.5240100000000 1.0
C      1  0.4495450000000  0.4647840000000  0.5149630000000 1.0
C      1  0.4960050000000  0.5618040000000  0.5149270000000 1.0
END
