TITL C-27144-3922-168 0.00090112087835155 125000 -323.188698567791 0 0 60 (C1) n - 1
REM
REM in /home/nfs/bkarasulu/CARBON/AIRSS/Generating-Clusters/AIREBO/Higher-Symm/Only-C60
REM
REM
REM
REM
REM
REM ./C.cell (28575a23ae977d3b5fae324c64b13b57)
REM
REM compiler GCC version 9.2.1 20190827 (Red Hat 9.2.1-1)
REM options -cpp -mtune=generic -march=x86-64 -g -O0 -fpre-include=/usr/include/finclude/math-vector-fortran.h
REM seed 1769068308 -845125706 -1720703620 806500106 1228448821 80559785 -1866871670 -870176381 1488146961 -977636368 1044685577 -2034378357 731044581 -741347975 -777511789 1139064917 -1706294383 1232834686 1582981496 668106138 -1950935458 -1786040424 845385189 -1302440742 -839547166 -667934489 -1196419260 1074155586 -271902023 40253370 1090539602 -1924951652 1807353821
REM
CELL 1.54180   50.00000   50.00000   50.00000   90.00000   90.00000   90.00000
LATT -1
SFAC C  
C      1  0.5129580000000  0.5287200000000  0.4799630000000 1.0
C      1  0.4744880000000  0.5246540000000  0.5033190000000 1.0
C      1  0.5040110000000  0.5243230000000  0.5115480000000 1.0
C      1  0.5147620000000  0.4297470000000  0.5064150000000 1.0
C      1  0.4958480000000  0.4356340000000  0.4787720000000 1.0
C      1  0.4819440000000  0.4365920000000  0.5121340000000 1.0
C      1  0.4372910000000  0.5551540000000  0.5267620000000 1.0
C      1  0.5443790000000  0.5566690000000  0.5406890000000 1.0
C      1  0.5082800000000  0.5550020000000  0.4329910000000 1.0
C      1  0.4988840000000  0.5009320000000  0.5317000000000 1.0
C      1  0.5290550000000  0.5013030000000  0.4864630000000 1.0
C      1  0.4685260000000  0.5019410000000  0.4846910000000 1.0
C      1  0.4759380000000  0.4780690000000  0.5278080000000 1.0
C      1  0.5375120000000  0.4784460000000  0.5059410000000 1.0
C      1  0.4864830000000  0.4807310000000  0.4678520000000 1.0
C      1  0.5514780000000  0.5168470000000  0.4711120000000 1.0
C      1  0.4451030000000  0.5135780000000  0.4665540000000 1.0
C      1  0.5001740000000  0.5120550000000  0.5618680000000 1.0
C      1  0.4697380000000  0.5486790000000  0.5354820000000 1.0
C      1  0.5454680000000  0.5504060000000  0.5074130000000 1.0
C      1  0.4855380000000  0.5484000000000  0.4577610000000 1.0
C      1  0.4497270000000  0.5233770000000  0.5247070000000 1.0
C      1  0.5492430000000  0.5249980000000  0.5298560000000 1.0
C      1  0.5065110000000  0.5239750000000  0.4467930000000 1.0
C      1  0.4644790000000  0.4752670000000  0.5006350000000 1.0
C      1  0.5157140000000  0.4755480000000  0.5283770000000 1.0
C      1  0.5149860000000  0.4764500000000  0.4730520000000 1.0
C      1  0.5512770000000  0.5042060000000  0.5468060000000 1.0
C      1  0.5230740000000  0.5018530000000  0.4349830000000 1.0
C      1  0.4314920000000  0.5004670000000  0.5178910000000 1.0
C      1  0.5311810000000  0.5020870000000  0.5685320000000 1.0
C      1  0.5514780000000  0.5021870000000  0.4459700000000 1.0
C      1  0.4228740000000  0.5014020000000  0.4888210000000 1.0
C      1  0.4522600000000  0.4403960000000  0.5153330000000 1.0
C      1  0.5378330000000  0.4426560000000  0.5278020000000 1.0
C      1  0.5115500000000  0.4416320000000  0.4540600000000 1.0
C      1  0.5495650000000  0.5445380000000  0.4780160000000 1.0
C      1  0.4571910000000  0.5423700000000  0.4681480000000 1.0
C      1  0.4933800000000  0.5412030000000  0.5551310000000 1.0
C      1  0.5623120000000  0.4600950000000  0.4914730000000 1.0
C      1  0.4594650000000  0.4678930000000  0.4524740000000 1.0
C      1  0.4814560000000  0.4655030000000  0.5584670000000 1.0
C      1  0.4978740000000  0.4814130000000  0.5746310000000 1.0
C      1  0.5758110000000  0.4630870000000  0.4683690000000 1.0
C      1  0.4362100000000  0.4832940000000  0.4561140000000 1.0
C      1  0.4337970000000  0.4679080000000  0.5074990000000 1.0
C      1  0.5424180000000  0.4709660000000  0.5462380000000 1.0
C      1  0.5286270000000  0.4694970000000  0.4445610000000 1.0
C      1  0.5275170000000  0.4719870000000  0.5768110000000 1.0
C      1  0.5619970000000  0.4738720000000  0.4464430000000 1.0
C      1  0.4171890000000  0.4722480000000  0.4781400000000 1.0
C      1  0.4677250000000  0.4504660000000  0.4779700000000 1.0
C      1  0.4980580000000  0.4496120000000  0.5362510000000 1.0
C      1  0.5309730000000  0.4511660000000  0.4893260000000 1.0
C      1  0.5005830000000  0.5677120000000  0.4813560000000 1.0
C      1  0.4845190000000  0.5647680000000  0.5099420000000 1.0
C      1  0.5182570000000  0.5710330000000  0.5097970000000 1.0
C      1  0.5244440000000  0.5556790000000  0.4627010000000 1.0
C      1  0.4557430000000  0.5525770000000  0.4983210000000 1.0
C      1  0.5133520000000  0.5467260000000  0.5309630000000 1.0
END
