TITL C-27139-4854-176 -0.00117366961224479 125000 -323.983408717754 0 0 60 (C1) n - 1
REM
REM in /home/nfs/bkarasulu/CARBON/AIRSS/Generating-Clusters/AIREBO/Higher-Symm/Only-C60
REM
REM
REM
REM
REM
REM ./C.cell (28575a23ae977d3b5fae324c64b13b57)
REM
REM compiler GCC version 9.2.1 20190827 (Red Hat 9.2.1-1)
REM options -cpp -mtune=generic -march=x86-64 -g -O0 -fpre-include=/usr/include/finclude/math-vector-fortran.h
REM seed -1683411562 -1560194572 1429011466 -890626731 -556056906 1449241454 1666703505 -1583194970 915727946 -197852242 698188947 224338115 -799146006 1842826232 -878453051 -720109563 1004142045 -210711016 1735956119 1553671636 1332686607 -888555687 958663323 220947785 1597807354 -361088778 -1377325291 -906886884 1306984443 1067247216 -18454491 965369624 -2118265457
REM
CELL 1.54180   50.00000   50.00000   50.00000   90.00000   90.00000   90.00000
LATT -1
SFAC C  
C      1  0.4783490000000  0.4786220000000  0.4632180000000 1.0
C      1  0.4667260000000  0.5211240000000  0.4585870000000 1.0
C      1  0.5153480000000  0.5469420000000  0.4587480000000 1.0
C      1  0.5443550000000  0.4948820000000  0.4599260000000 1.0
C      1  0.5218190000000  0.4548890000000  0.4565170000000 1.0
C      1  0.5670270000000  0.4571340000000  0.5204090000000 1.0
C      1  0.4725260000000  0.4197570000000  0.5100190000000 1.0
C      1  0.4253740000000  0.4827470000000  0.5236430000000 1.0
C      1  0.4596890000000  0.5710940000000  0.5185140000000 1.0
C      1  0.5580670000000  0.5423720000000  0.5234420000000 1.0
C      1  0.5481040000000  0.4664270000000  0.4730710000000 1.0
C      1  0.4922790000000  0.4483950000000  0.4720580000000 1.0
C      1  0.4527150000000  0.4961290000000  0.4770780000000 1.0
C      1  0.4842080000000  0.5453490000000  0.4687230000000 1.0
C      1  0.5376950000000  0.5435470000000  0.4761820000000 1.0
C      1  0.4713640000000  0.4741190000000  0.5136590000000 1.0
C      1  0.4653810000000  0.5209040000000  0.5236580000000 1.0
C      1  0.5068470000000  0.5431150000000  0.5015280000000 1.0
C      1  0.5424960000000  0.5075330000000  0.5052230000000 1.0
C      1  0.5085690000000  0.4543230000000  0.5228630000000 1.0
C      1  0.5314790000000  0.4789570000000  0.5190810000000 1.0
C      1  0.4831710000000  0.4562480000000  0.5396510000000 1.0
C      1  0.4660380000000  0.4920800000000  0.5420320000000 1.0
C      1  0.4622370000000  0.5473000000000  0.5404920000000 1.0
C      1  0.5266240000000  0.5295980000000  0.5256610000000 1.0
C      1  0.4971050000000  0.4702790000000  0.4389530000000 1.0
C      1  0.4683320000000  0.5155600000000  0.4281860000000 1.0
C      1  0.5161940000000  0.5310990000000  0.4360230000000 1.0
C      1  0.5293420000000  0.4933620000000  0.4368130000000 1.0
C      1  0.5268290000000  0.4636400000000  0.4238350000000 1.0
C      1  0.5668390000000  0.5160560000000  0.5357240000000 1.0
C      1  0.5459870000000  0.4440280000000  0.5320000000000 1.0
C      1  0.4598790000000  0.4385140000000  0.5275430000000 1.0
C      1  0.4358130000000  0.5017560000000  0.5421800000000 1.0
C      1  0.4894260000000  0.5671660000000  0.5345570000000 1.0
C      1  0.5738200000000  0.4663830000000  0.4907260000000 1.0
C      1  0.4951520000000  0.4274700000000  0.4964570000000 1.0
C      1  0.4370880000000  0.4736280000000  0.4930510000000 1.0
C      1  0.4654850000000  0.5667770000000  0.4869730000000 1.0
C      1  0.5433380000000  0.5582300000000  0.5013780000000 1.0
C      1  0.4506180000000  0.5409200000000  0.5027990000000 1.0
C      1  0.5154550000000  0.5740080000000  0.5128300000000 1.0
C      1  0.5693190000000  0.4903960000000  0.5142120000000 1.0
C      1  0.5246790000000  0.4263040000000  0.5123020000000 1.0
C      1  0.4376930000000  0.4531670000000  0.5204070000000 1.0
C      1  0.5295080000000  0.4559250000000  0.4960790000000 1.0
C      1  0.4648980000000  0.4541570000000  0.4911070000000 1.0
C      1  0.4370210000000  0.5225220000000  0.4851300000000 1.0
C      1  0.4979250000000  0.5715720000000  0.4848980000000 1.0
C      1  0.5442060000000  0.5161050000000  0.4775690000000 1.0
C      1  0.5437090000000  0.4983030000000  0.5437670000000 1.0
C      1  0.5343720000000  0.4560820000000  0.5536200000000 1.0
C      1  0.4862300000000  0.4788040000000  0.5631070000000 1.0
C      1  0.4357270000000  0.5286710000000  0.5493440000000 1.0
C      1  0.5137710000000  0.5530210000000  0.5466190000000 1.0
C      1  0.4857350000000  0.5017030000000  0.5086230000000 1.0
C      1  0.5167690000000  0.4832790000000  0.5560150000000 1.0
C      1  0.5061280000000  0.5060730000000  0.5331360000000 1.0
C      1  0.4897540000000  0.5054100000000  0.4773020000000 1.0
C      1  0.4978200000000  0.5043090000000  0.4399670000000 1.0
END
