TITL C-27145-253-70 0.00146592941524409 125000 -333.670705140288 0 0 60 (C1) n - 1
REM
REM in /home/nfs/bkarasulu/CARBON/AIRSS/Generating-Clusters/AIREBO/Higher-Symm/Only-C60
REM
REM
REM
REM
REM
REM ./C.cell (28575a23ae977d3b5fae324c64b13b57)
REM
REM compiler GCC version 9.2.1 20190827 (Red Hat 9.2.1-1)
REM options -cpp -mtune=generic -march=x86-64 -g -O0 -fpre-include=/usr/include/finclude/math-vector-fortran.h
REM seed 1373504230 -1533041472 -691272091 -1929468985 -2067815928 -510474984 -1797170480 -869685998 -1742186963 122175747 -939960975 924650076 304994054 -52434157 1274861379 -565585034 672831483 2016947147 -1399378502 1661397164 1302063307 -1462510084 -1711355387 534104911 -1834971256 495036658 1509568729 -1880622655 2099413675 -1371172056 1440808381 -461908654 1980436500
REM
CELL 1.54180   50.00000   50.00000   50.00000   90.00000   90.00000   90.00000
LATT -1
SFAC C  
C      1  0.4414750000000  0.4817420000000  0.5298170000000 1.0
C      1  0.4538590000000  0.4823420000000  0.4513650000000 1.0
C      1  0.5302780000000  0.4820340000000  0.4389280000000 1.0
C      1  0.5644060000000  0.4876460000000  0.5107010000000 1.0
C      1  0.5131750000000  0.4893930000000  0.5733070000000 1.0
C      1  0.4497510000000  0.4192910000000  0.5277210000000 1.0
C      1  0.4519140000000  0.4191500000000  0.4524070000000 1.0
C      1  0.5127510000000  0.4170230000000  0.4637340000000 1.0
C      1  0.5339180000000  0.4253490000000  0.5206780000000 1.0
C      1  0.5106120000000  0.4374000000000  0.5337080000000 1.0
C      1  0.4786350000000  0.4984390000000  0.5137360000000 1.0
C      1  0.4812210000000  0.4944620000000  0.4801120000000 1.0
C      1  0.5088170000000  0.5107950000000  0.4778040000000 1.0
C      1  0.5209030000000  0.5150460000000  0.5001040000000 1.0
C      1  0.5086600000000  0.5023690000000  0.5243180000000 1.0
C      1  0.4631630000000  0.5256110000000  0.5194170000000 1.0
C      1  0.4714200000000  0.5253830000000  0.4697050000000 1.0
C      1  0.5202750000000  0.5277690000000  0.4522940000000 1.0
C      1  0.5454880000000  0.5338840000000  0.5046440000000 1.0
C      1  0.5076220000000  0.5277480000000  0.5430220000000 1.0
C      1  0.5258300000000  0.5803790000000  0.4699810000000 1.0
C      1  0.5161450000000  0.5772280000000  0.5278970000000 1.0
C      1  0.4861870000000  0.5713160000000  0.5246040000000 1.0
C      1  0.4745710000000  0.5720500000000  0.4956750000000 1.0
C      1  0.4968570000000  0.5667130000000  0.4742620000000 1.0
C      1  0.4622910000000  0.5418030000000  0.4939240000000 1.0
C      1  0.4937280000000  0.5435310000000  0.4609100000000 1.0
C      1  0.5316450000000  0.5471220000000  0.4764230000000 1.0
C      1  0.5282990000000  0.5464820000000  0.5296280000000 1.0
C      1  0.4804980000000  0.5414100000000  0.5386730000000 1.0
C      1  0.5575490000000  0.4698980000000  0.4856440000000 1.0
C      1  0.5371910000000  0.4716840000000  0.5586890000000 1.0
C      1  0.4648050000000  0.4680180000000  0.5458730000000 1.0
C      1  0.4429630000000  0.4666990000000  0.4761310000000 1.0
C      1  0.5041610000000  0.4656770000000  0.4344460000000 1.0
C      1  0.5325940000000  0.5091720000000  0.4324470000000 1.0
C      1  0.5695680000000  0.5153630000000  0.5086510000000 1.0
C      1  0.5128970000000  0.5172650000000  0.5713760000000 1.0
C      1  0.4389160000000  0.5096860000000  0.5310720000000 1.0
C      1  0.4520010000000  0.5101750000000  0.4504710000000 1.0
C      1  0.4552970000000  0.4453500000000  0.5223250000000 1.0
C      1  0.4610600000000  0.4440030000000  0.4584180000000 1.0
C      1  0.5263490000000  0.4436410000000  0.4478150000000 1.0
C      1  0.5551680000000  0.4491060000000  0.5124540000000 1.0
C      1  0.5117770000000  0.4530070000000  0.5580650000000 1.0
C      1  0.5040590000000  0.4687420000000  0.5221190000000 1.0
C      1  0.4760250000000  0.4659560000000  0.5075610000000 1.0
C      1  0.4824640000000  0.4607010000000  0.4771670000000 1.0
C      1  0.5091540000000  0.4472570000000  0.4762750000000 1.0
C      1  0.5241070000000  0.4537540000000  0.5003100000000 1.0
C      1  0.4573460000000  0.5933370000000  0.4900480000000 1.0
C      1  0.5349770000000  0.6006120000000  0.4548030000000 1.0
C      1  0.5306240000000  0.5706130000000  0.5009820000000 1.0
C      1  0.5237590000000  0.5991370000000  0.5428440000000 1.0
C      1  0.4685170000000  0.5684170000000  0.5517850000000 1.0
C      1  0.4861810000000  0.4699010000000  0.5636990000000 1.0
C      1  0.4365290000000  0.4658770000000  0.5027510000000 1.0
C      1  0.4771820000000  0.4660160000000  0.4380330000000 1.0
C      1  0.5468790000000  0.4674790000000  0.4610950000000 1.0
C      1  0.5555080000000  0.4725510000000  0.5371490000000 1.0
END
