TITL C-27139-4854-125 0.000135689520580128 125000 -328.157060391355 0 0 60 (C1) n - 1
REM
REM in /home/nfs/bkarasulu/CARBON/AIRSS/Generating-Clusters/AIREBO/Higher-Symm/Only-C60
REM
REM
REM
REM
REM
REM ./C.cell (28575a23ae977d3b5fae324c64b13b57)
REM
REM compiler GCC version 9.2.1 20190827 (Red Hat 9.2.1-1)
REM options -cpp -mtune=generic -march=x86-64 -g -O0 -fpre-include=/usr/include/finclude/math-vector-fortran.h
REM seed 1891663071 458456568 -1864792628 2063792537 1653388636 -977371155 1407104797 318455676 1222099300 744111944 1548838173 1543148509 -18480145 1067026722 -845998139 249016461 -2104196184 -46015287 980307797 -950771179 -1757706972 -302698900 -212728447 508028853 -1232541326 1092191861 2069773923 -1342435456 572947146 196106211 -352692229 -1718684180 1872798977
REM
CELL 1.54180   50.00000   50.00000   50.00000   90.00000   90.00000   90.00000
LATT -1
SFAC C  
C      1  0.5413790000000  0.5697590000000  0.5109550000000 1.0
C      1  0.5678200000000  0.5051080000000  0.5410550000000 1.0
C      1  0.5095770000000  0.5378840000000  0.5690280000000 1.0
C      1  0.5308490000000  0.4212990000000  0.4977740000000 1.0
C      1  0.4591360000000  0.5692650000000  0.4938880000000 1.0
C      1  0.4649000000000  0.4182210000000  0.4961440000000 1.0
C      1  0.5689000000000  0.4957880000000  0.4615220000000 1.0
C      1  0.4240640000000  0.5029460000000  0.4622310000000 1.0
C      1  0.4322970000000  0.4880210000000  0.5324900000000 1.0
C      1  0.5103510000000  0.4600670000000  0.4427470000000 1.0
C      1  0.4982000000000  0.5476650000000  0.4259440000000 1.0
C      1  0.4980520000000  0.4712790000000  0.5761080000000 1.0
C      1  0.5439650000000  0.5097610000000  0.5569370000000 1.0
C      1  0.5762800000000  0.5305930000000  0.5036830000000 1.0
C      1  0.5003840000000  0.5726780000000  0.5317500000000 1.0
C      1  0.5279210000000  0.4982720000000  0.4235830000000 1.0
C      1  0.4647470000000  0.5052950000000  0.5751780000000 1.0
C      1  0.4632690000000  0.4979380000000  0.4249600000000 1.0
C      1  0.5683980000000  0.4622840000000  0.4947020000000 1.0
C      1  0.4179260000000  0.4527450000000  0.4886480000000 1.0
C      1  0.4253020000000  0.5341200000000  0.4957140000000 1.0
C      1  0.5117150000000  0.4355390000000  0.4581680000000 1.0
C      1  0.4951290000000  0.4197840000000  0.5445990000000 1.0
C      1  0.4995270000000  0.5790650000000  0.4742490000000 1.0
C      1  0.5459430000000  0.4686570000000  0.5081200000000 1.0
C      1  0.4692330000000  0.5140770000000  0.5489300000000 1.0
C      1  0.5030660000000  0.5477380000000  0.4802000000000 1.0
C      1  0.5461620000000  0.5201480000000  0.4973360000000 1.0
C      1  0.4487940000000  0.4675250000000  0.4883820000000 1.0
C      1  0.4537090000000  0.5190780000000  0.5009960000000 1.0
C      1  0.4731730000000  0.4962870000000  0.4560980000000 1.0
C      1  0.5218240000000  0.5075980000000  0.4537710000000 1.0
C      1  0.5180950000000  0.4985660000000  0.5409760000000 1.0
C      1  0.5056660000000  0.4498890000000  0.5324960000000 1.0
C      1  0.4983120000000  0.5427560000000  0.5194370000000 1.0
C      1  0.5002450000000  0.4570090000000  0.4811330000000 1.0
C      1  0.5470390000000  0.5096540000000  0.4690640000000 1.0
C      1  0.4742660000000  0.5412040000000  0.4976280000000 1.0
C      1  0.5083660000000  0.4721830000000  0.5512960000000 1.0
C      1  0.5432620000000  0.4964280000000  0.5194230000000 1.0
C      1  0.4516840000000  0.4953590000000  0.4767150000000 1.0
C      1  0.4523610000000  0.5073590000000  0.5289360000000 1.0
C      1  0.4720600000000  0.4497160000000  0.4913940000000 1.0
C      1  0.5216700000000  0.4511710000000  0.5062160000000 1.0
C      1  0.5271970000000  0.5431360000000  0.5014700000000 1.0
C      1  0.5055460000000  0.5332130000000  0.4543100000000 1.0
C      1  0.4972890000000  0.5232000000000  0.5428110000000 1.0
C      1  0.5005160000000  0.4845970000000  0.4621220000000 1.0
C      1  0.4755050000000  0.4827470000000  0.5866500000000 1.0
C      1  0.4741550000000  0.5881570000000  0.4804210000000 1.0
C      1  0.5778190000000  0.4715360000000  0.4706910000000 1.0
C      1  0.5255630000000  0.4151110000000  0.4712550000000 1.0
C      1  0.5866420000000  0.5207400000000  0.5274050000000 1.0
C      1  0.4276350000000  0.4686290000000  0.5137510000000 1.0
C      1  0.4112720000000  0.5242300000000  0.4741610000000 1.0
C      1  0.4773910000000  0.4370520000000  0.5214880000000 1.0
C      1  0.4766820000000  0.5253650000000  0.4394560000000 1.0
C      1  0.5215180000000  0.4715190000000  0.4195550000000 1.0
C      1  0.5349260000000  0.5287250000000  0.5755980000000 1.0
C      1  0.5253230000000  0.5842630000000  0.5282530000000 1.0
END
