TITL C-27137-4574-53 0.00191607125928854 125000 -355.942406991095 0 0 60 (C1) n - 1
REM
REM in /home/nfs/bkarasulu/CARBON/AIRSS/Generating-Clusters/AIREBO/Higher-Symm/Only-C60
REM
REM
REM
REM
REM
REM ./C.cell (28575a23ae977d3b5fae324c64b13b57)
REM
REM compiler GCC version 9.2.1 20190827 (Red Hat 9.2.1-1)
REM options -cpp -mtune=generic -march=x86-64 -g -O0 -fpre-include=/usr/include/finclude/math-vector-fortran.h
REM seed -625226533 2056573406 -1030355318 -937059541 -1896848690 -519479783 755486502 1194411321 1676569969 1042899186 -1836501595 1765007255 -1785865395 1277688691 -400357776 -948340950 -640464612 284884074 1895065518 1428623936 1890785345 -34047859 59171148 -546369558 1691603890 -1490991780 -607046601 1150825739 -747576450 1297830206 647386604 -2130386095 -363690773
REM
CELL 1.54180   50.00000   50.00000   50.00000   90.00000   90.00000   90.00000
LATT -1
SFAC C  
C      1  0.5633590000000  0.4840360000000  0.5785370000000 1.0
C      1  0.5979920000000  0.4731350000000  0.4912310000000 1.0
C      1  0.5395930000000  0.4898110000000  0.4101020000000 1.0
C      1  0.4393650000000  0.4854090000000  0.4155550000000 1.0
C      1  0.4031460000000  0.4787660000000  0.5068220000000 1.0
C      1  0.4656880000000  0.4894670000000  0.5947300000000 1.0
C      1  0.4446260000000  0.4821190000000  0.5785950000000 1.0
C      1  0.4006260000000  0.4892720000000  0.4815200000000 1.0
C      1  0.4618820000000  0.4849890000000  0.4035240000000 1.0
C      1  0.5587590000000  0.4804540000000  0.4274710000000 1.0
C      1  0.5988590000000  0.4886810000000  0.5139370000000 1.0
C      1  0.5423390000000  0.4820410000000  0.5928290000000 1.0
C      1  0.5443960000000  0.5181960000000  0.5409080000000 1.0
C      1  0.5488870000000  0.5255000000000  0.4859600000000 1.0
C      1  0.5183820000000  0.5190920000000  0.4460940000000 1.0
C      1  0.4566590000000  0.5138550000000  0.4559190000000 1.0
C      1  0.4421930000000  0.5103950000000  0.5162250000000 1.0
C      1  0.4850440000000  0.5223680000000  0.5620700000000 1.0
C      1  0.4596590000000  0.5169160000000  0.5438880000000 1.0
C      1  0.4402760000000  0.5202280000000  0.4851180000000 1.0
C      1  0.4853770000000  0.5108450000000  0.4414850000000 1.0
C      1  0.5404450000000  0.5092830000000  0.4650220000000 1.0
C      1  0.5580220000000  0.5156390000000  0.5098580000000 1.0
C      1  0.5172120000000  0.5136900000000  0.5608610000000 1.0
C      1  0.5069570000000  0.4516000000000  0.4521640000000 1.0
C      1  0.4595150000000  0.4641990000000  0.4565740000000 1.0
C      1  0.4519220000000  0.4583950000000  0.5082050000000 1.0
C      1  0.4895380000000  0.4587290000000  0.5446330000000 1.0
C      1  0.5382350000000  0.4664440000000  0.5385290000000 1.0
C      1  0.5494740000000  0.4550990000000  0.4875220000000 1.0
C      1  0.4835970000000  0.4633370000000  0.4433910000000 1.0
C      1  0.5297430000000  0.4569270000000  0.4657730000000 1.0
C      1  0.5445230000000  0.4535790000000  0.5148770000000 1.0
C      1  0.5148900000000  0.4662570000000  0.5529810000000 1.0
C      1  0.4650240000000  0.4650720000000  0.5334870000000 1.0
C      1  0.4541230000000  0.4533830000000  0.4814710000000 1.0
C      1  0.5162920000000  0.4855840000000  0.5770430000000 1.0
C      1  0.5758080000000  0.4988560000000  0.5256910000000 1.0
C      1  0.5516680000000  0.4815870000000  0.4577310000000 1.0
C      1  0.4866190000000  0.4853630000000  0.4219700000000 1.0
C      1  0.4219760000000  0.4994710000000  0.4686000000000 1.0
C      1  0.4478440000000  0.4877030000000  0.5485450000000 1.0
C      1  0.4883600000000  0.4994820000000  0.5841250000000 1.0
C      1  0.4309990000000  0.4805300000000  0.5195740000000 1.0
C      1  0.4408270000000  0.4865360000000  0.4464230000000 1.0
C      1  0.5162140000000  0.4989600000000  0.4198840000000 1.0
C      1  0.5743960000000  0.4683490000000  0.4782150000000 1.0
C      1  0.5580500000000  0.4877350000000  0.5484500000000 1.0
C      1  0.4505860000000  0.5434970000000  0.5157160000000 1.0
C      1  0.4905410000000  0.5573060000000  0.5536420000000 1.0
C      1  0.5404340000000  0.5514160000000  0.5364700000000 1.0
C      1  0.5440850000000  0.5534190000000  0.4868770000000 1.0
C      1  0.5127650000000  0.5509940000000  0.4504720000000 1.0
C      1  0.4592040000000  0.5476640000000  0.4632180000000 1.0
C      1  0.5472300000000  0.5640420000000  0.5128010000000 1.0
C      1  0.5167090000000  0.5447890000000  0.5518870000000 1.0
C      1  0.4660530000000  0.5497440000000  0.5401540000000 1.0
C      1  0.4452550000000  0.5537100000000  0.4883650000000 1.0
C      1  0.4855560000000  0.5411180000000  0.4520500000000 1.0
C      1  0.5322030000000  0.5649360000000  0.4642320000000 1.0
END
