TITL C-27134-4977-165 -0.000829658452624732 125000 -320.312878386199 0 0 60 (C1) n - 1
REM
REM in /home/nfs/bkarasulu/CARBON/AIRSS/Generating-Clusters/AIREBO/Higher-Symm/Only-C60
REM
REM
REM
REM
REM
REM ./C.cell (28575a23ae977d3b5fae324c64b13b57)
REM
REM compiler GCC version 9.2.1 20190827 (Red Hat 9.2.1-1)
REM options -cpp -mtune=generic -march=x86-64 -g -O0 -fpre-include=/usr/include/finclude/math-vector-fortran.h
REM seed -562666045 -652695188 867976860 573132985 472503746 2048920904 -1458517304 -165048442 1029037186 616003142 -1245008192 -387944261 -1114125576 55769598 1650133081 478459911 -257431311 2125517682 -1019845695 1732790811 -1591397293 1595533970 1554617549 -1239054935 -842470936 1803005310 -1593820635 998687422 -985353350 -459671587 -45207879 -186946332 299133707
REM
CELL 1.54180   50.00000   50.00000   50.00000   90.00000   90.00000   90.00000
LATT -1
SFAC C  
C      1  0.5457500000000  0.4634000000000  0.5132460000000 1.0
C      1  0.5139080000000  0.5701590000000  0.5119970000000 1.0
C      1  0.4344330000000  0.4685360000000  0.5055470000000 1.0
C      1  0.4549200000000  0.4519000000000  0.4864000000000 1.0
C      1  0.4947400000000  0.5702090000000  0.4838910000000 1.0
C      1  0.5527150000000  0.4811570000000  0.4843400000000 1.0
C      1  0.4726080000000  0.5104230000000  0.4312190000000 1.0
C      1  0.5098180000000  0.4751620000000  0.4450660000000 1.0
C      1  0.5169150000000  0.5299760000000  0.4503740000000 1.0
C      1  0.5369180000000  0.4975760000000  0.5648440000000 1.0
C      1  0.4928180000000  0.4757930000000  0.5678160000000 1.0
C      1  0.4765040000000  0.5157980000000  0.5639070000000 1.0
C      1  0.5675500000000  0.4931330000000  0.5367940000000 1.0
C      1  0.4808600000000  0.5568260000000  0.5350930000000 1.0
C      1  0.4618100000000  0.4466850000000  0.5404930000000 1.0
C      1  0.4340740000000  0.4908780000000  0.4574920000000 1.0
C      1  0.5274990000000  0.5660930000000  0.4613270000000 1.0
C      1  0.5349480000000  0.4480500000000  0.4601790000000 1.0
C      1  0.4802250000000  0.5192940000000  0.4897680000000 1.0
C      1  0.4836060000000  0.4795150000000  0.4882980000000 1.0
C      1  0.5246390000000  0.5006370000000  0.5048780000000 1.0
C      1  0.5050280000000  0.5260530000000  0.5090840000000 1.0
C      1  0.5090960000000  0.4779570000000  0.5189600000000 1.0
C      1  0.4674410000000  0.4974660000000  0.5099890000000 1.0
C      1  0.5143640000000  0.5509020000000  0.5388950000000 1.0
C      1  0.4469670000000  0.4756720000000  0.5363590000000 1.0
C      1  0.5455110000000  0.4701940000000  0.5465980000000 1.0
C      1  0.4950520000000  0.5535570000000  0.4542090000000 1.0
C      1  0.5428080000000  0.4800620000000  0.4518200000000 1.0
C      1  0.4597860000000  0.4680910000000  0.4584380000000 1.0
C      1  0.5451530000000  0.5446390000000  0.4417170000000 1.0
C      1  0.4422310000000  0.5165630000000  0.4442330000000 1.0
C      1  0.5123380000000  0.4356290000000  0.4463890000000 1.0
C      1  0.4627650000000  0.5381740000000  0.5460670000000 1.0
C      1  0.5653930000000  0.5195750000000  0.5483390000000 1.0
C      1  0.4845750000000  0.4462430000000  0.5575850000000 1.0
C      1  0.5351270000000  0.5384950000000  0.5000500000000 1.0
C      1  0.4364640000000  0.5021900000000  0.5084620000000 1.0
C      1  0.5156670000000  0.4483630000000  0.5079230000000 1.0
C      1  0.4697670000000  0.5476290000000  0.4869960000000 1.0
C      1  0.5541140000000  0.5137030000000  0.4940820000000 1.0
C      1  0.4869900000000  0.4498530000000  0.4975140000000 1.0
C      1  0.4723730000000  0.4993010000000  0.4633510000000 1.0
C      1  0.5087070000000  0.4858870000000  0.4715520000000 1.0
C      1  0.5194590000000  0.5122090000000  0.4745370000000 1.0
C      1  0.5162360000000  0.4972900000000  0.5435740000000 1.0
C      1  0.4803930000000  0.4818900000000  0.5367600000000 1.0
C      1  0.4991820000000  0.5220970000000  0.5423440000000 1.0
C      1  0.4740870000000  0.5680360000000  0.5108620000000 1.0
C      1  0.4639270000000  0.4349330000000  0.5147470000000 1.0
C      1  0.5733820000000  0.4920350000000  0.5093320000000 1.0
C      1  0.5341010000000  0.5653860000000  0.4886120000000 1.0
C      1  0.5405230000000  0.4422840000000  0.4871120000000 1.0
C      1  0.4214010000000  0.4902370000000  0.4826620000000 1.0
C      1  0.4696290000000  0.5364760000000  0.4493700000000 1.0
C      1  0.4869910000000  0.4548120000000  0.4429340000000 1.0
C      1  0.5426710000000  0.5106080000000  0.4403230000000 1.0
C      1  0.5363930000000  0.5300200000000  0.5546030000000 1.0
C      1  0.5159080000000  0.4581500000000  0.5526190000000 1.0
C      1  0.4507400000000  0.5061400000000  0.5480260000000 1.0
END
