TITL C-27138-9601-63 -0.0056023668812663 125000 -323.995049521755 0 0 60 (C1) n - 1
REM
REM in /home/nfs/bkarasulu/CARBON/AIRSS/Generating-Clusters/AIREBO/Higher-Symm/Only-C60
REM
REM
REM
REM
REM
REM ./C.cell (28575a23ae977d3b5fae324c64b13b57)
REM
REM compiler GCC version 9.2.1 20190827 (Red Hat 9.2.1-1)
REM options -cpp -mtune=generic -march=x86-64 -g -O0 -fpre-include=/usr/include/finclude/math-vector-fortran.h
REM seed -1448111229 -124727934 201206154 1713887380 83872453 728756668 1710951050 -442529216 1560897691 529716095 -1745947624 -642546799 1331818064 -879704047 -1457219578 1268388658 -1978632715 1816165004 -1985394001 1577188879 -530291704 -205322231 272294308 -1927623149 -1432919824 -1210981758 1441521300 1263263328 677702873 -224646242 1286156669 96052763 875255040
REM
CELL 1.54180   50.00000   50.00000   50.00000   90.00000   90.00000   90.00000
LATT -1
SFAC C  
C      1  0.4409090000000  0.5335360000000  0.4997330000000 1.0
C      1  0.4494390000000  0.5172160000000  0.5503180000000 1.0
C      1  0.4797590000000  0.5199310000000  0.5376790000000 1.0
C      1  0.5327440000000  0.5163530000000  0.5076110000000 1.0
C      1  0.5667520000000  0.4648140000000  0.5329600000000 1.0
C      1  0.5635450000000  0.5211990000000  0.4972140000000 1.0
C      1  0.4949930000000  0.5454300000000  0.5520990000000 1.0
C      1  0.4849340000000  0.4719260000000  0.4618780000000 1.0
C      1  0.4976490000000  0.5032270000000  0.5591610000000 1.0
C      1  0.4368020000000  0.4722710000000  0.5290050000000 1.0
C      1  0.4354880000000  0.5034350000000  0.5154730000000 1.0
C      1  0.5263480000000  0.4888660000000  0.4301380000000 1.0
C      1  0.5034280000000  0.5058220000000  0.4288580000000 1.0
C      1  0.4973700000000  0.4266080000000  0.4722850000000 1.0
C      1  0.4580730000000  0.4669530000000  0.5467430000000 1.0
C      1  0.5156320000000  0.5313100000000  0.4823180000000 1.0
C      1  0.4750590000000  0.5459280000000  0.4621720000000 1.0
C      1  0.4904230000000  0.4676990000000  0.5199470000000 1.0
C      1  0.5277890000000  0.4377070000000  0.4490010000000 1.0
C      1  0.5628600000000  0.4784310000000  0.4587850000000 1.0
C      1  0.5197680000000  0.4645780000000  0.4438150000000 1.0
C      1  0.4768610000000  0.4437420000000  0.5399020000000 1.0
C      1  0.5092090000000  0.5336020000000  0.4299300000000 1.0
C      1  0.5278800000000  0.5410780000000  0.4553110000000 1.0
C      1  0.4632490000000  0.5007730000000  0.4873290000000 1.0
C      1  0.4438840000000  0.4755360000000  0.4975780000000 1.0
C      1  0.4935520000000  0.5710990000000  0.4865940000000 1.0
C      1  0.4846250000000  0.5060820000000  0.5080030000000 1.0
C      1  0.4662100000000  0.4902300000000  0.5600960000000 1.0
C      1  0.4621050000000  0.5583060000000  0.4898510000000 1.0
C      1  0.5245140000000  0.5442350000000  0.5252540000000 1.0
C      1  0.5716080000000  0.5292990000000  0.4723380000000 1.0
C      1  0.5368780000000  0.5448920000000  0.5569190000000 1.0
C      1  0.5240450000000  0.4379000000000  0.5132730000000 1.0
C      1  0.5459590000000  0.4633820000000  0.4736410000000 1.0
C      1  0.4879300000000  0.4415390000000  0.4503670000000 1.0
C      1  0.4722650000000  0.4622540000000  0.4924080000000 1.0
C      1  0.4525960000000  0.5491170000000  0.5389850000000 1.0
C      1  0.4361450000000  0.5158520000000  0.4725110000000 1.0
C      1  0.5476290000000  0.4711010000000  0.5564560000000 1.0
C      1  0.4256530000000  0.5310030000000  0.5300200000000 1.0
C      1  0.5357540000000  0.4659670000000  0.5187410000000 1.0
C      1  0.5033290000000  0.4312410000000  0.5299710000000 1.0
C      1  0.5229190000000  0.5172110000000  0.5465770000000 1.0
C      1  0.5016170000000  0.5602640000000  0.4587430000000 1.0
C      1  0.5106280000000  0.5699220000000  0.5091010000000 1.0
C      1  0.4814770000000  0.4966530000000  0.4438710000000 1.0
C      1  0.4975060000000  0.5709520000000  0.5376280000000 1.0
C      1  0.5509700000000  0.4990500000000  0.4419020000000 1.0
C      1  0.5225090000000  0.4605950000000  0.5641060000000 1.0
C      1  0.5410250000000  0.4951750000000  0.5353330000000 1.0
C      1  0.5010900000000  0.4726050000000  0.5518750000000 1.0
C      1  0.4777700000000  0.4304750000000  0.4918900000000 1.0
C      1  0.4657840000000  0.5174810000000  0.4584120000000 1.0
C      1  0.5144620000000  0.4760720000000  0.4753850000000 1.0
C      1  0.4925540000000  0.5349270000000  0.5031400000000 1.0
C      1  0.5535750000000  0.5257140000000  0.4509840000000 1.0
C      1  0.5263240000000  0.4370760000000  0.4829640000000 1.0
C      1  0.5135520000000  0.4883200000000  0.5059440000000 1.0
C      1  0.4745920000000  0.5560390000000  0.5194740000000 1.0
END
