TITL C-27141-4733-36 0.000492192313483295 125000 -322.012760307937 0 0 60 (C1) n - 1
REM
REM in /home/nfs/bkarasulu/CARBON/AIRSS/Generating-Clusters/AIREBO/Higher-Symm/Only-C60
REM
REM
REM
REM
REM
REM ./C.cell (28575a23ae977d3b5fae324c64b13b57)
REM
REM compiler GCC version 9.2.1 20190827 (Red Hat 9.2.1-1)
REM options -cpp -mtune=generic -march=x86-64 -g -O0 -fpre-include=/usr/include/finclude/math-vector-fortran.h
REM seed -1499482997 492506269 1705735373 -1916880053 -1062407781 -1047045872 -948574583 -1169153799 977447975 -371576739 -1252438943 2123951825 -1389495153 -1676488486 -1638724357 -193008208 -1576649554 -2087936720 49210468 1921712483 1779055349 1423628621 -2115300693 970221227 1427811712 1041632865 2066495267 -1325088513 1802346689 -2091276308 846192510 2037240005 742273911
REM
CELL 1.54180   50.00000   50.00000   50.00000   90.00000   90.00000   90.00000
LATT -1
SFAC C  
C      1  0.5646380000000  0.5287720000000  0.5541800000000 1.0
C      1  0.5650880000000  0.4748360000000  0.5528650000000 1.0
C      1  0.5156790000000  0.4437350000000  0.5443950000000 1.0
C      1  0.4407000000000  0.4436500000000  0.5355750000000 1.0
C      1  0.4261290000000  0.4948260000000  0.5441090000000 1.0
C      1  0.4466990000000  0.5490470000000  0.5628040000000 1.0
C      1  0.5230220000000  0.5430120000000  0.5309680000000 1.0
C      1  0.4716740000000  0.5714890000000  0.5130480000000 1.0
C      1  0.5340650000000  0.5575680000000  0.4875890000000 1.0
C      1  0.5621720000000  0.4955990000000  0.4917660000000 1.0
C      1  0.5529440000000  0.4451890000000  0.4977410000000 1.0
C      1  0.4939780000000  0.4439540000000  0.5027160000000 1.0
C      1  0.4524840000000  0.4733630000000  0.4933310000000 1.0
C      1  0.4529270000000  0.5179560000000  0.4898600000000 1.0
C      1  0.4295510000000  0.4898470000000  0.4527770000000 1.0
C      1  0.4515670000000  0.5497430000000  0.4656810000000 1.0
C      1  0.4981360000000  0.5818550000000  0.4758680000000 1.0
C      1  0.5535790000000  0.5278390000000  0.4593790000000 1.0
C      1  0.5859470000000  0.4672630000000  0.4634570000000 1.0
C      1  0.5236890000000  0.4389080000000  0.4764490000000 1.0
C      1  0.4680410000000  0.4421510000000  0.4641510000000 1.0
C      1  0.4577930000000  0.5009150000000  0.5400270000000 1.0
C      1  0.4675080000000  0.5289640000000  0.5462450000000 1.0
C      1  0.4984780000000  0.5323700000000  0.5396710000000 1.0
C      1  0.5467640000000  0.5214440000000  0.5333960000000 1.0
C      1  0.5385010000000  0.4884870000000  0.5359540000000 1.0
C      1  0.5112550000000  0.4710560000000  0.5431780000000 1.0
C      1  0.4787580000000  0.4755710000000  0.5342210000000 1.0
C      1  0.5699230000000  0.4800430000000  0.4477290000000 1.0
C      1  0.5121740000000  0.4244720000000  0.4528880000000 1.0
C      1  0.4849590000000  0.4267100000000  0.4477300000000 1.0
C      1  0.4520310000000  0.4807970000000  0.4441030000000 1.0
C      1  0.4324280000000  0.5522470000000  0.4485810000000 1.0
C      1  0.4800550000000  0.5738080000000  0.4523670000000 1.0
C      1  0.5368020000000  0.5425850000000  0.4433180000000 1.0
C      1  0.4676890000000  0.4366030000000  0.4925190000000 1.0
C      1  0.4298630000000  0.4940870000000  0.4832660000000 1.0
C      1  0.4522200000000  0.5489440000000  0.4971040000000 1.0
C      1  0.4966570000000  0.5771180000000  0.5038070000000 1.0
C      1  0.5552950000000  0.5397810000000  0.4854610000000 1.0
C      1  0.5747940000000  0.4672400000000  0.4920550000000 1.0
C      1  0.5339490000000  0.4219080000000  0.5039060000000 1.0
C      1  0.5609560000000  0.4668910000000  0.5223290000000 1.0
C      1  0.5116270000000  0.4304760000000  0.5198870000000 1.0
C      1  0.4595400000000  0.4561350000000  0.5189850000000 1.0
C      1  0.4364160000000  0.5029760000000  0.5146600000000 1.0
C      1  0.4519200000000  0.5519190000000  0.5296280000000 1.0
C      1  0.5205010000000  0.5627330000000  0.5113850000000 1.0
C      1  0.5595360000000  0.5200090000000  0.5049840000000 1.0
C      1  0.4797280000000  0.5087580000000  0.4708660000000 1.0
C      1  0.4835420000000  0.5414020000000  0.4620860000000 1.0
C      1  0.5143480000000  0.5560050000000  0.4608690000000 1.0
C      1  0.5476620000000  0.4977710000000  0.4631870000000 1.0
C      1  0.5178790000000  0.4933120000000  0.4687400000000 1.0
C      1  0.5055770000000  0.4662170000000  0.4809780000000 1.0
C      1  0.4753280000000  0.4751180000000  0.4682160000000 1.0
C      1  0.4950450000000  0.5029620000000  0.5258390000000 1.0
C      1  0.4935360000000  0.5019600000000  0.5598070000000 1.0
C      1  0.5015580000000  0.5041700000000  0.4965270000000 1.0
C      1  0.4995970000000  0.5038250000000  0.4433040000000 1.0
END
