TITL C-27142-7278-90 -0.00301437631630773 125000 -337.905531145948 0 0 60 (C1) n - 1
REM
REM in /home/nfs/bkarasulu/CARBON/AIRSS/Generating-Clusters/AIREBO/Higher-Symm/Only-C60
REM
REM
REM
REM
REM
REM ./C.cell (28575a23ae977d3b5fae324c64b13b57)
REM
REM compiler GCC version 9.2.1 20190827 (Red Hat 9.2.1-1)
REM options -cpp -mtune=generic -march=x86-64 -g -O0 -fpre-include=/usr/include/finclude/math-vector-fortran.h
REM seed -307278296 -1084902228 -2124540459 653340858 -312428250 -1354725401 1674038158 807460140 -1627201376 -1104297577 431436684 1237642503 1286291622 1109553369 1157644352 419951640 -1481257348 700018490 -1068064361 1474506156 -1853000247 453965381 -606430769 -340814264 1281677271 1532585261 -1738059350 1252048527 207350565 366032157 -516406649 -699933796 -1974599989
REM
CELL 1.54180   50.00000   50.00000   50.00000   90.00000   90.00000   90.00000
LATT -1
SFAC C  
C      1  0.5218770000000  0.5162480000000  0.4964880000000 1.0
C      1  0.4926720000000  0.5157800000000  0.5139050000000 1.0
C      1  0.4841570000000  0.5176540000000  0.4810340000000 1.0
C      1  0.5215290000000  0.4833110000000  0.4880480000000 1.0
C      1  0.4987690000000  0.4838710000000  0.5250890000000 1.0
C      1  0.4787920000000  0.4846930000000  0.4876020000000 1.0
C      1  0.4732750000000  0.5380600000000  0.5644430000000 1.0
C      1  0.4743470000000  0.5273970000000  0.4350410000000 1.0
C      1  0.5637130000000  0.5245280000000  0.5116370000000 1.0
C      1  0.4577700000000  0.4772130000000  0.5530600000000 1.0
C      1  0.4708280000000  0.4717930000000  0.4299060000000 1.0
C      1  0.5754110000000  0.4709650000000  0.5097590000000 1.0
C      1  0.5262380000000  0.5220370000000  0.5561520000000 1.0
C      1  0.4372590000000  0.5239760000000  0.5002960000000 1.0
C      1  0.5282900000000  0.5252620000000  0.4449920000000 1.0
C      1  0.5257430000000  0.4772370000000  0.5447610000000 1.0
C      1  0.4485030000000  0.4773630000000  0.5012560000000 1.0
C      1  0.5261980000000  0.4779810000000  0.4547700000000 1.0
C      1  0.5443560000000  0.5081180000000  0.5744400000000 1.0
C      1  0.4134720000000  0.5098440000000  0.5053500000000 1.0
C      1  0.5379970000000  0.5116350000000  0.4221980000000 1.0
C      1  0.5454220000000  0.4831630000000  0.5680290000000 1.0
C      1  0.4180890000000  0.4826410000000  0.5059950000000 1.0
C      1  0.5366150000000  0.4843170000000  0.4260640000000 1.0
C      1  0.4864940000000  0.5539100000000  0.4431450000000 1.0
C      1  0.5526420000000  0.5515570000000  0.5178410000000 1.0
C      1  0.4591420000000  0.5431110000000  0.5413520000000 1.0
C      1  0.4942460000000  0.4574010000000  0.4426160000000 1.0
C      1  0.5526100000000  0.4566860000000  0.5234470000000 1.0
C      1  0.4553040000000  0.4517800000000  0.5356050000000 1.0
C      1  0.5022740000000  0.4501560000000  0.5277680000000 1.0
C      1  0.4741080000000  0.4510310000000  0.4864960000000 1.0
C      1  0.5249930000000  0.4499000000000  0.4827590000000 1.0
C      1  0.5033510000000  0.5448870000000  0.5278930000000 1.0
C      1  0.4709310000000  0.5476780000000  0.4887420000000 1.0
C      1  0.5213050000000  0.5458200000000  0.4808970000000 1.0
C      1  0.4529220000000  0.4846340000000  0.4484660000000 1.0
C      1  0.5680450000000  0.4839780000000  0.4851830000000 1.0
C      1  0.4820610000000  0.4841660000000  0.5683020000000 1.0
C      1  0.4527200000000  0.5144260000000  0.4498190000000 1.0
C      1  0.5640680000000  0.5132910000000  0.4854680000000 1.0
C      1  0.4921680000000  0.5117540000000  0.5660770000000 1.0
C      1  0.5278770000000  0.4425450000000  0.5131020000000 1.0
C      1  0.4741810000000  0.4440250000000  0.5168440000000 1.0
C      1  0.4983630000000  0.4426600000000  0.4685460000000 1.0
C      1  0.5265390000000  0.5546080000000  0.5108850000000 1.0
C      1  0.4748890000000  0.5563140000000  0.5173690000000 1.0
C      1  0.4949080000000  0.5543130000000  0.4691830000000 1.0
C      1  0.5523070000000  0.4660320000000  0.4700080000000 1.0
C      1  0.5004180000000  0.4636180000000  0.5592280000000 1.0
C      1  0.4483710000000  0.4665760000000  0.4699920000000 1.0
C      1  0.5470140000000  0.5280710000000  0.4678080000000 1.0
C      1  0.5048840000000  0.5452240000000  0.5614930000000 1.0
C      1  0.4467330000000  0.5293480000000  0.4734220000000 1.0
C      1  0.4595590000000  0.5197180000000  0.5206190000000 1.0
C      1  0.5001390000000  0.5174500000000  0.4519390000000 1.0
C      1  0.5352520000000  0.5169960000000  0.5278560000000 1.0
C      1  0.4652500000000  0.4890150000000  0.5249280000000 1.0
C      1  0.4949920000000  0.4866930000000  0.4585730000000 1.0
C      1  0.5376160000000  0.4855400000000  0.5160160000000 1.0
END
