TITL C-27133-8107-198 0.000683811930491365 125000 -346.110824349037 0 0 60 (C1) n - 1
REM
REM in /home/nfs/bkarasulu/CARBON/AIRSS/Generating-Clusters/AIREBO/Higher-Symm/Only-C60
REM
REM
REM
REM
REM
REM ./C.cell (28575a23ae977d3b5fae324c64b13b57)
REM
REM compiler GCC version 9.2.1 20190827 (Red Hat 9.2.1-1)
REM options -cpp -mtune=generic -march=x86-64 -g -O0 -fpre-include=/usr/include/finclude/math-vector-fortran.h
REM seed -498341387 211710025 1161911968 1299441626 -663728090 1416615589 -979517410 2048893722 1233712644 -1699478062 -1508898254 1361388095 -685891826 925706201 -256256337 1537280102 -2051722535 518798581 338572913 -2085358863 -451499115 1532748447 -921571774 -1284132123 -1112014633 -433662921 -990903637 -557387647 -418711528 -34602564 -531191795 32125252 1633821073
REM
CELL 1.54180   50.00000   50.00000   50.00000   90.00000   90.00000   90.00000
LATT -1
SFAC C  
C      1  0.4532480000000  0.5001840000000  0.5469670000000 1.0
C      1  0.4571840000000  0.4465400000000  0.5146320000000 1.0
C      1  0.4629900000000  0.4676370000000  0.4653240000000 1.0
C      1  0.4575720000000  0.5296240000000  0.4610360000000 1.0
C      1  0.4558770000000  0.5467810000000  0.5161790000000 1.0
C      1  0.4615600000000  0.4999180000000  0.4635150000000 1.0
C      1  0.4572600000000  0.4452130000000  0.4884510000000 1.0
C      1  0.4611650000000  0.4717110000000  0.5365890000000 1.0
C      1  0.4561030000000  0.5318130000000  0.5376710000000 1.0
C      1  0.4671630000000  0.5458980000000  0.4847710000000 1.0
C      1  0.5160420000000  0.4742200000000  0.4887320000000 1.0
C      1  0.4923890000000  0.5069530000000  0.4527250000000 1.0
C      1  0.5002570000000  0.5470150000000  0.4852580000000 1.0
C      1  0.5109250000000  0.5116760000000  0.5302660000000 1.0
C      1  0.4946700000000  0.4702360000000  0.5362990000000 1.0
C      1  0.5164630000000  0.4726970000000  0.5157480000000 1.0
C      1  0.4872840000000  0.4996550000000  0.5479100000000 1.0
C      1  0.5116100000000  0.5251350000000  0.5070750000000 1.0
C      1  0.5109510000000  0.5304690000000  0.4612090000000 1.0
C      1  0.4947020000000  0.4788920000000  0.4682570000000 1.0
C      1  0.5367830000000  0.5438490000000  0.5025540000000 1.0
C      1  0.5436190000000  0.4955970000000  0.5648860000000 1.0
C      1  0.5415610000000  0.4589230000000  0.5272370000000 1.0
C      1  0.5442240000000  0.4686780000000  0.4488810000000 1.0
C      1  0.5424080000000  0.5221550000000  0.4583020000000 1.0
C      1  0.5442160000000  0.5474610000000  0.4752240000000 1.0
C      1  0.5470510000000  0.4995960000000  0.4429150000000 1.0
C      1  0.5392990000000  0.4601970000000  0.4754500000000 1.0
C      1  0.5490200000000  0.4666110000000  0.5535990000000 1.0
C      1  0.5358680000000  0.5166190000000  0.5477370000000 1.0
C      1  0.4995250000000  0.5388930000000  0.5682270000000 1.0
C      1  0.5032840000000  0.4489720000000  0.5597320000000 1.0
C      1  0.5029510000000  0.4292300000000  0.4702150000000 1.0
C      1  0.4999630000000  0.5063980000000  0.4216020000000 1.0
C      1  0.5090170000000  0.5797770000000  0.4825660000000 1.0
C      1  0.4982290000000  0.5409460000000  0.4325350000000 1.0
C      1  0.4964840000000  0.4536010000000  0.4473080000000 1.0
C      1  0.5049660000000  0.4281120000000  0.5328240000000 1.0
C      1  0.4971130000000  0.5064410000000  0.5788070000000 1.0
C      1  0.5014980000000  0.5743060000000  0.5144280000000 1.0
C      1  0.5218020000000  0.5439450000000  0.5510450000000 1.0
C      1  0.5261220000000  0.4612750000000  0.5744920000000 1.0
C      1  0.5250150000000  0.4353190000000  0.4867300000000 1.0
C      1  0.5247240000000  0.4902400000000  0.4218140000000 1.0
C      1  0.5290510000000  0.5679520000000  0.4628040000000 1.0
C      1  0.5198410000000  0.5636150000000  0.4374660000000 1.0
C      1  0.5207980000000  0.4606700000000  0.4299940000000 1.0
C      1  0.5265990000000  0.4341000000000  0.5154890000000 1.0
C      1  0.5213190000000  0.4901410000000  0.5858370000000 1.0
C      1  0.5219470000000  0.5586090000000  0.5262630000000 1.0
C      1  0.4698760000000  0.4502090000000  0.5618970000000 1.0
C      1  0.4725670000000  0.4290640000000  0.4675820000000 1.0
C      1  0.4717990000000  0.5200230000000  0.4122750000000 1.0
C      1  0.4763320000000  0.5788730000000  0.4838910000000 1.0
C      1  0.4702060000000  0.5319600000000  0.5641430000000 1.0
C      1  0.4645420000000  0.4445340000000  0.4399890000000 1.0
C      1  0.4752900000000  0.4344360000000  0.5353330000000 1.0
C      1  0.4631430000000  0.5052740000000  0.5792840000000 1.0
C      1  0.4709040000000  0.5723590000000  0.5144490000000 1.0
C      1  0.4656320000000  0.5387750000000  0.4355810000000 1.0
END
