TITL C-27130-3996-6 -3.66252559028521e-05 125000 -308.44435006304 0 0 60 (C1) n - 1
REM
REM in /home/nfs/bkarasulu/CARBON/AIRSS/Generating-Clusters/AIREBO/Higher-Symm/Only-C60
REM
REM
REM
REM
REM
REM ./C.cell (28575a23ae977d3b5fae324c64b13b57)
REM
REM compiler GCC version 9.2.1 20190827 (Red Hat 9.2.1-1)
REM options -cpp -mtune=generic -march=x86-64 -g -O0 -fpre-include=/usr/include/finclude/math-vector-fortran.h
REM seed 1606516786 618788015 1979484673 -1343327534 -47723597 129614716 674132559 1766369905 1984037766 -1243602748 1861622336 -1078497772 -145465718 -52724808 -839506187 1433405923 1105439250 -789193919 167702053 1750213474 570600230 1895403024 1470045207 -1647287724 -43325383 711446022 1729683888 710628391 846639288 114702106 -1773783660 594871460 -775765091
REM
CELL 1.54180   50.00000   50.00000   50.00000   90.00000   90.00000   90.00000
LATT -1
SFAC C  
C      1  0.4695520000000  0.5819730000000  0.4759220000000 1.0
C      1  0.5806810000000  0.4818970000000  0.4825840000000 1.0
C      1  0.4235310000000  0.4504620000000  0.4879830000000 1.0
C      1  0.4766850000000  0.5837630000000  0.5038700000000 1.0
C      1  0.5870830000000  0.4877680000000  0.5105680000000 1.0
C      1  0.4333710000000  0.4477700000000  0.5152960000000 1.0
C      1  0.5121050000000  0.4676260000000  0.4471440000000 1.0
C      1  0.4634460000000  0.5131020000000  0.4502560000000 1.0
C      1  0.5297120000000  0.5238490000000  0.4480930000000 1.0
C      1  0.5159000000000  0.4647570000000  0.5548870000000 1.0
C      1  0.4589240000000  0.5039940000000  0.5476570000000 1.0
C      1  0.5182340000000  0.5305820000000  0.5543150000000 1.0
C      1  0.5077590000000  0.4447830000000  0.4719520000000 1.0
C      1  0.4496510000000  0.5230850000000  0.4783470000000 1.0
C      1  0.5450230000000  0.5323020000000  0.4762180000000 1.0
C      1  0.5131930000000  0.4429620000000  0.5289320000000 1.0
C      1  0.4369030000000  0.5077820000000  0.5303310000000 1.0
C      1  0.5392750000000  0.5387150000000  0.5297270000000 1.0
C      1  0.5147340000000  0.5211290000000  0.4868960000000 1.0
C      1  0.5110070000000  0.4746740000000  0.4878290000000 1.0
C      1  0.4764940000000  0.5040700000000  0.4869540000000 1.0
C      1  0.5113490000000  0.5247410000000  0.5159430000000 1.0
C      1  0.5146800000000  0.4745690000000  0.5164820000000 1.0
C      1  0.4812600000000  0.4987460000000  0.5149430000000 1.0
C      1  0.4954410000000  0.4218720000000  0.5133060000000 1.0
C      1  0.4270700000000  0.5327050000000  0.5211960000000 1.0
C      1  0.5654050000000  0.5259920000000  0.5193290000000 1.0
C      1  0.4929930000000  0.4227100000000  0.4879440000000 1.0
C      1  0.4361500000000  0.5428610000000  0.4970990000000 1.0
C      1  0.5688420000000  0.5249120000000  0.4940870000000 1.0
C      1  0.4382990000000  0.4559710000000  0.5466540000000 1.0
C      1  0.4854070000000  0.5708880000000  0.5342970000000 1.0
C      1  0.5652880000000  0.4781660000000  0.5330370000000 1.0
C      1  0.4364580000000  0.4614040000000  0.4606630000000 1.0
C      1  0.4888390000000  0.5674160000000  0.4539050000000 1.0
C      1  0.5724340000000  0.4782550000000  0.4501780000000 1.0
C      1  0.4594370000000  0.4743610000000  0.5560660000000 1.0
C      1  0.4918450000000  0.5486890000000  0.5500740000000 1.0
C      1  0.5427240000000  0.4819830000000  0.5497900000000 1.0
C      1  0.4586010000000  0.4830860000000  0.4466410000000 1.0
C      1  0.5057460000000  0.5403960000000  0.4420640000000 1.0
C      1  0.5429910000000  0.4776930000000  0.4439500000000 1.0
C      1  0.4376500000000  0.4940070000000  0.4826800000000 1.0
C      1  0.5334510000000  0.5595310000000  0.4853350000000 1.0
C      1  0.5371700000000  0.4436300000000  0.4827410000000 1.0
C      1  0.4379460000000  0.4870610000000  0.5116300000000 1.0
C      1  0.5368970000000  0.5672680000000  0.5171070000000 1.0
C      1  0.5399430000000  0.4365020000000  0.5135240000000 1.0
C      1  0.4840480000000  0.5218320000000  0.5361230000000 1.0
C      1  0.5193130000000  0.5007900000000  0.5378940000000 1.0
C      1  0.4874040000000  0.4734210000000  0.5367530000000 1.0
C      1  0.4877140000000  0.5302220000000  0.4683490000000 1.0
C      1  0.5294500000000  0.4962070000000  0.4690520000000 1.0
C      1  0.4856410000000  0.4783250000000  0.4667010000000 1.0
C      1  0.5007350000000  0.5584100000000  0.4833610000000 1.0
C      1  0.5504970000000  0.4733780000000  0.4829350000000 1.0
C      1  0.4593070000000  0.4678340000000  0.4841220000000 1.0
C      1  0.5070310000000  0.5739440000000  0.5108940000000 1.0
C      1  0.5589550000000  0.4594450000000  0.5114600000000 1.0
C      1  0.4623260000000  0.4637310000000  0.5159300000000 1.0
END
