TITL C-27141-4733-137 0.000737951212924824 125000 -342.181126395108 0 0 60 (C1) n - 1
REM
REM in /home/nfs/bkarasulu/CARBON/AIRSS/Generating-Clusters/AIREBO/Higher-Symm/Only-C60
REM
REM
REM
REM
REM
REM ./C.cell (28575a23ae977d3b5fae324c64b13b57)
REM
REM compiler GCC version 9.2.1 20190827 (Red Hat 9.2.1-1)
REM options -cpp -mtune=generic -march=x86-64 -g -O0 -fpre-include=/usr/include/finclude/math-vector-fortran.h
REM seed 1985587404 -104938686 -962416940 -142831529 1306560313 293508404 -1133567116 -666686078 -2045788262 1100808223 332264553 -889193243 -1577629946 1727942096 -1036916791 861930251 -2001218582 2024154958 761691141 -1048972172 -1513853343 1376952928 708429551 -1134611273 -1657318072 -561553387 202651626 1858598556 -1765049940 -1042561307 -339401584 -1193478300 -1584154551
REM
CELL 1.54180   50.00000   50.00000   50.00000   90.00000   90.00000   90.00000
LATT -1
SFAC C  
C      1  0.4770120000000  0.5345830000000  0.5443090000000 1.0
C      1  0.5576550000000  0.4811850000000  0.4849750000000 1.0
C      1  0.5442340000000  0.4601400000000  0.5065480000000 1.0
C      1  0.5067700000000  0.5320800000000  0.5002040000000 1.0
C      1  0.5289140000000  0.4420080000000  0.4871370000000 1.0
C      1  0.4290100000000  0.5156930000000  0.4800350000000 1.0
C      1  0.5069510000000  0.4991370000000  0.5772770000000 1.0
C      1  0.5540060000000  0.5146840000000  0.5231870000000 1.0
C      1  0.5243720000000  0.5419710000000  0.5275850000000 1.0
C      1  0.5383950000000  0.5308020000000  0.5562420000000 1.0
C      1  0.4937880000000  0.4612990000000  0.5465150000000 1.0
C      1  0.5013450000000  0.5056730000000  0.4394800000000 1.0
C      1  0.5440440000000  0.4882930000000  0.4403260000000 1.0
C      1  0.4452750000000  0.5497260000000  0.5121190000000 1.0
C      1  0.4308820000000  0.4673330000000  0.4720920000000 1.0
C      1  0.5567960000000  0.5496530000000  0.5667260000000 1.0
C      1  0.4985180000000  0.4665330000000  0.5136200000000 1.0
C      1  0.4754630000000  0.5455960000000  0.4970220000000 1.0
C      1  0.4970450000000  0.5555680000000  0.5331910000000 1.0
C      1  0.4303010000000  0.4943010000000  0.4610530000000 1.0
C      1  0.5538600000000  0.4742310000000  0.5520220000000 1.0
C      1  0.4538740000000  0.4563530000000  0.4854540000000 1.0
C      1  0.4478050000000  0.5369800000000  0.5371500000000 1.0
C      1  0.4749720000000  0.5621910000000  0.4673440000000 1.0
C      1  0.5187190000000  0.4406970000000  0.5427400000000 1.0
C      1  0.5055780000000  0.4984600000000  0.5051580000000 1.0
C      1  0.5306590000000  0.5084130000000  0.4249730000000 1.0
C      1  0.5168950000000  0.5354610000000  0.4391300000000 1.0
C      1  0.5534520000000  0.5255770000000  0.4726560000000 1.0
C      1  0.5663730000000  0.5313740000000  0.4964630000000 1.0
C      1  0.4999120000000  0.4657960000000  0.4408980000000 1.0
C      1  0.5279610000000  0.4644020000000  0.4439510000000 1.0
C      1  0.4992550000000  0.4404510000000  0.4950950000000 1.0
C      1  0.5553280000000  0.5486130000000  0.5205210000000 1.0
C      1  0.4375980000000  0.5108090000000  0.5369400000000 1.0
C      1  0.4933980000000  0.4883790000000  0.5567940000000 1.0
C      1  0.4684810000000  0.4467800000000  0.5308000000000 1.0
C      1  0.4933180000000  0.5423840000000  0.5707270000000 1.0
C      1  0.4750900000000  0.4805930000000  0.4588240000000 1.0
C      1  0.4581950000000  0.4944110000000  0.5180480000000 1.0
C      1  0.4919380000000  0.5382350000000  0.4613570000000 1.0
C      1  0.5525880000000  0.5011740000000  0.5514710000000 1.0
C      1  0.5573390000000  0.4985640000000  0.4633710000000 1.0
C      1  0.4852130000000  0.5735100000000  0.5138220000000 1.0
C      1  0.4860760000000  0.5056540000000  0.5320920000000 1.0
C      1  0.5362640000000  0.4433730000000  0.4610690000000 1.0
C      1  0.5146620000000  0.5259070000000  0.5748090000000 1.0
C      1  0.4743700000000  0.5023490000000  0.4253310000000 1.0
C      1  0.4522860000000  0.4978810000000  0.4429430000000 1.0
C      1  0.4242970000000  0.5411740000000  0.4947090000000 1.0
C      1  0.4579790000000  0.5165900000000  0.4937180000000 1.0
C      1  0.5425820000000  0.4532640000000  0.5360020000000 1.0
C      1  0.4756360000000  0.4411400000000  0.4761480000000 1.0
C      1  0.4771780000000  0.5133650000000  0.4701480000000 1.0
C      1  0.4563960000000  0.4643140000000  0.5126000000000 1.0
C      1  0.4952210000000  0.4283870000000  0.5247150000000 1.0
C      1  0.5378140000000  0.4931870000000  0.5082720000000 1.0
C      1  0.5247210000000  0.5366490000000  0.4716890000000 1.0
C      1  0.4825980000000  0.4425880000000  0.4489360000000 1.0
C      1  0.5033440000000  0.4940830000000  0.4714680000000 1.0
END
