TITL C-27144-3922-10 -42.3957458265184 125000 -349.023672172941 0 0 60 (C2) n - 1
REM
REM in /home/nfs/bkarasulu/CARBON/AIRSS/Generating-Clusters/AIREBO/Higher-Symm/Only-C60
REM
REM
REM
REM
REM
REM ./C.cell (28575a23ae977d3b5fae324c64b13b57)
REM
REM compiler GCC version 9.2.1 20190827 (Red Hat 9.2.1-1)
REM options -cpp -mtune=generic -march=x86-64 -g -O0 -fpre-include=/usr/include/finclude/math-vector-fortran.h
REM seed -1877136376 1289287871 -834562609 541772610 1683547184 -1570362644 278450784 -1439398429 1029507594 499545332 1437091450 205514892 -1492933466 1154567204 -1188871279 -809967589 949299863 955914009 -404190697 1211187930 557090919 -588987853 1522893731 1457227379 1312170272 -1326560781 -337140426 1780441626 -1060694271 1723776483 -1677271733 1500469205 -1320805370
REM
CELL 1.54180   50.00000   50.00000   50.00000   90.00000   90.00000   90.00000
LATT -1
SFAC C  
C      1  0.5757310000000  0.5362590000000  0.5182740000000 1.0
C      1  0.5054310000000  0.5378730000000  0.5758440000000 1.0
C      1  0.4303970000000  0.5381980000000  0.5289620000000 1.0
C      1  0.4491770000000  0.5375100000000  0.4429360000000 1.0
C      1  0.5404790000000  0.5377420000000  0.4340080000000 1.0
C      1  0.4247380000000  0.4622480000000  0.5181210000000 1.0
C      1  0.4939910000000  0.4637620000000  0.5776820000000 1.0
C      1  0.5704630000000  0.4621500000000  0.5286080000000 1.0
C      1  0.5490570000000  0.4617960000000  0.4427610000000 1.0
C      1  0.4614370000000  0.4624630000000  0.4340440000000 1.0
C      1  0.4808030000000  0.5313440000000  0.5202430000000 1.0
C      1  0.4746920000000  0.5318970000000  0.4878380000000 1.0
C      1  0.5042910000000  0.5319520000000  0.4717580000000 1.0
C      1  0.5287810000000  0.5311970000000  0.4950350000000 1.0
C      1  0.5138280000000  0.5303730000000  0.5251550000000 1.0
C      1  0.5196580000000  0.4696370000000  0.5209320000000 1.0
C      1  0.5251900000000  0.4686580000000  0.4880050000000 1.0
C      1  0.4962580000000  0.4680940000000  0.4721810000000 1.0
C      1  0.4718210000000  0.4680400000000  0.4953650000000 1.0
C      1  0.4863920000000  0.4688070000000  0.5258480000000 1.0
C      1  0.5375070000000  0.5062860000000  0.5250440000000 1.0
C      1  0.4861860000000  0.5075730000000  0.5428900000000 1.0
C      1  0.4554020000000  0.5074460000000  0.5004400000000 1.0
C      1  0.4851950000000  0.5074480000000  0.4580300000000 1.0
C      1  0.5354380000000  0.5069220000000  0.4721780000000 1.0
C      1  0.4625920000000  0.4930780000000  0.5251110000000 1.0
C      1  0.5122320000000  0.4937290000000  0.5434110000000 1.0
C      1  0.5450610000000  0.4924360000000  0.5001150000000 1.0
C      1  0.5141980000000  0.4925450000000  0.4577220000000 1.0
C      1  0.4646580000000  0.4925370000000  0.4729550000000 1.0
C      1  0.4548530000000  0.5323540000000  0.5422050000000 1.0
C      1  0.4453670000000  0.5319680000000  0.4705570000000 1.0
C      1  0.5130750000000  0.5337790000000  0.4389470000000 1.0
C      1  0.5627530000000  0.5323030000000  0.4936260000000 1.0
C      1  0.5254800000000  0.5316000000000  0.5570790000000 1.0
C      1  0.5464210000000  0.4684210000000  0.5418770000000 1.0
C      1  0.5540950000000  0.4676490000000  0.4701100000000 1.0
C      1  0.4888830000000  0.4680120000000  0.4389530000000 1.0
C      1  0.4379010000000  0.4662060000000  0.4935830000000 1.0
C      1  0.4745560000000  0.4677080000000  0.5577230000000 1.0
C      1  0.5558430000000  0.5213710000000  0.4501830000000 1.0
C      1  0.5645620000000  0.5202830000000  0.5379440000000 1.0
C      1  0.4821770000000  0.5238180000000  0.5706430000000 1.0
C      1  0.4278210000000  0.5236400000000  0.5054820000000 1.0
C      1  0.4701810000000  0.5225170000000  0.4326390000000 1.0
C      1  0.4451520000000  0.4774570000000  0.4508350000000 1.0
C      1  0.4353720000000  0.4786260000000  0.5377260000000 1.0
C      1  0.5161460000000  0.4797410000000  0.5731320000000 1.0
C      1  0.5726990000000  0.4761980000000  0.5048810000000 1.0
C      1  0.5275190000000  0.4763470000000  0.4330530000000 1.0
C      1  0.5742920000000  0.5157420000000  0.4727340000000 1.0
C      1  0.5486960000000  0.5143500000000  0.5624290000000 1.0
C      1  0.4540690000000  0.5126910000000  0.5660260000000 1.0
C      1  0.4230170000000  0.5115570000000  0.4774960000000 1.0
C      1  0.4972410000000  0.5167580000000  0.4212090000000 1.0
C      1  0.4259190000000  0.4832190000000  0.4730380000000 1.0
C      1  0.4511190000000  0.4842660000000  0.5622390000000 1.0
C      1  0.5443330000000  0.4856780000000  0.5656060000000 1.0
C      1  0.5769890000000  0.4873180000000  0.4767180000000 1.0
C      1  0.5023830000000  0.4884200000000  0.4198340000000 1.0
END
