TITL C-27134-4977-99 -0.00449439814532652 125000 -370.16918161439 0 0 60 (C1) n - 1
REM
REM in /home/nfs/bkarasulu/CARBON/AIRSS/Generating-Clusters/AIREBO/Higher-Symm/Only-C60
REM
REM
REM
REM
REM
REM ./C.cell (28575a23ae977d3b5fae324c64b13b57)
REM
REM compiler GCC version 9.2.1 20190827 (Red Hat 9.2.1-1)
REM options -cpp -mtune=generic -march=x86-64 -g -O0 -fpre-include=/usr/include/finclude/math-vector-fortran.h
REM seed -2141235434 -499590974 1142953916 444175124 -744379488 -1308085866 -522920606 -1290512784 433180222 421332180 705054829 1710588337 -378279250 -1990268764 1332391691 549259588 4237443 -671978582 -442381397 1195322766 2073698512 -9858053 296255907 -410144632 -1884831371 1760858049 253295813 -685354412 -1668546653 -1614629160 -763641148 -534100539 -2034870502
REM
CELL 1.54180   50.00000   50.00000   50.00000   90.00000   90.00000   90.00000
LATT -1
SFAC C  
C      1  0.5134430000000  0.5588840000000  0.4561550000000 1.0
C      1  0.4628870000000  0.5386370000000  0.4590340000000 1.0
C      1  0.4454870000000  0.4842840000000  0.4585040000000 1.0
C      1  0.4858850000000  0.4439460000000  0.4648310000000 1.0
C      1  0.5397280000000  0.4621240000000  0.4570950000000 1.0
C      1  0.5526200000000  0.5182960000000  0.4585380000000 1.0
C      1  0.5135660000000  0.4443940000000  0.4632060000000 1.0
C      1  0.4597010000000  0.4605060000000  0.4590490000000 1.0
C      1  0.4480760000000  0.5158280000000  0.4547880000000 1.0
C      1  0.4858010000000  0.5597210000000  0.4584470000000 1.0
C      1  0.5407270000000  0.5432820000000  0.4597650000000 1.0
C      1  0.5527210000000  0.4864560000000  0.4619350000000 1.0
C      1  0.4253640000000  0.5135280000000  0.5206600000000 1.0
C      1  0.4382690000000  0.4398940000000  0.5268310000000 1.0
C      1  0.5248640000000  0.4299960000000  0.5290510000000 1.0
C      1  0.5671150000000  0.4705230000000  0.5258980000000 1.0
C      1  0.5545410000000  0.5618540000000  0.5243410000000 1.0
C      1  0.4785980000000  0.5859150000000  0.5274850000000 1.0
C      1  0.4187480000000  0.4847090000000  0.5212040000000 1.0
C      1  0.4379530000000  0.5614200000000  0.5246150000000 1.0
C      1  0.5266810000000  0.5724350000000  0.5239510000000 1.0
C      1  0.5801050000000  0.5188310000000  0.5269900000000 1.0
C      1  0.5900770000000  0.4169200000000  0.4942350000000 1.0
C      1  0.4780880000000  0.4174340000000  0.5323860000000 1.0
C      1  0.5741800000000  0.4378290000000  0.4886150000000 1.0
C      1  0.5807340000000  0.5305380000000  0.5009750000000 1.0
C      1  0.5165660000000  0.5842880000000  0.5002990000000 1.0
C      1  0.4325480000000  0.5539810000000  0.4977310000000 1.0
C      1  0.4167780000000  0.4691810000000  0.4975930000000 1.0
C      1  0.4881990000000  0.4122840000000  0.5062260000000 1.0
C      1  0.5687030000000  0.5560520000000  0.5005300000000 1.0
C      1  0.5768200000000  0.4635490000000  0.5004610000000 1.0
C      1  0.5161480000000  0.4167390000000  0.5054300000000 1.0
C      1  0.4308620000000  0.4448310000000  0.4997550000000 1.0
C      1  0.4218600000000  0.5279510000000  0.4965530000000 1.0
C      1  0.4888770000000  0.5892540000000  0.5011760000000 1.0
C      1  0.4818340000000  0.4445980000000  0.5424500000000 1.0
C      1  0.5253810000000  0.4730550000000  0.5496480000000 1.0
C      1  0.5543100000000  0.5139450000000  0.5391200000000 1.0
C      1  0.5093620000000  0.5529360000000  0.5414010000000 1.0
C      1  0.4577180000000  0.5455300000000  0.5385670000000 1.0
C      1  0.4472910000000  0.4847930000000  0.5372020000000 1.0
C      1  0.4819560000000  0.5598500000000  0.5397410000000 1.0
C      1  0.5384190000000  0.5373140000000  0.5383350000000 1.0
C      1  0.5478570000000  0.4864960000000  0.5394890000000 1.0
C      1  0.5097670000000  0.4511070000000  0.5418200000000 1.0
C      1  0.4570560000000  0.4582580000000  0.5394980000000 1.0
C      1  0.4495540000000  0.5183240000000  0.5398940000000 1.0
C      1  0.4174120000000  0.4830880000000  0.4730530000000 1.0
C      1  0.4738020000000  0.4207430000000  0.4835310000000 1.0
C      1  0.5517360000000  0.4367510000000  0.4714060000000 1.0
C      1  0.5761110000000  0.5139480000000  0.4787080000000 1.0
C      1  0.5289920000000  0.5777160000000  0.4757540000000 1.0
C      1  0.4511690000000  0.5607280000000  0.4778770000000 1.0
C      1  0.4222900000000  0.5134800000000  0.4722470000000 1.0
C      1  0.4737920000000  0.5817470000000  0.4784770000000 1.0
C      1  0.5570300000000  0.5648320000000  0.4763540000000 1.0
C      1  0.5773880000000  0.4841040000000  0.4815190000000 1.0
C      1  0.5272110000000  0.4217260000000  0.4803250000000 1.0
C      1  0.4492440000000  0.4386340000000  0.4792450000000 1.0
END
