TITL C-27138-9601-100 0.00614573663754126 125000 -325.951347290862 0 0 60 (C1) n - 1
REM
REM in /home/nfs/bkarasulu/CARBON/AIRSS/Generating-Clusters/AIREBO/Higher-Symm/Only-C60
REM
REM
REM
REM
REM
REM ./C.cell (28575a23ae977d3b5fae324c64b13b57)
REM
REM compiler GCC version 9.2.1 20190827 (Red Hat 9.2.1-1)
REM options -cpp -mtune=generic -march=x86-64 -g -O0 -fpre-include=/usr/include/finclude/math-vector-fortran.h
REM seed -117085478 -1562605602 -99131768 156929264 64576540 -1563092974 1427087026 958998960 1632545266 1323801432 1508882930 982826672 -233552943 1931544972 351706707 -248884560 336252996 -1504417944 723632738 -801140530 1345479348 151718823 243588760 1543430999 -1162198822 2075586582 1730755605 -1678509327 -129579373 -1843951995 520312216 -1083223910 -111074522
REM
CELL 1.54180   50.00000   50.00000   50.00000   90.00000   90.00000   90.00000
LATT -1
SFAC C  
C      1  0.5512620000000  0.4447890000000  0.4747410000000 1.0
C      1  0.5722870000000  0.4800540000000  0.5264700000000 1.0
C      1  0.5784510000000  0.5296450000000  0.4756750000000 1.0
C      1  0.5424200000000  0.5622310000000  0.5296250000000 1.0
C      1  0.4938290000000  0.5608750000000  0.4700360000000 1.0
C      1  0.4563690000000  0.5489810000000  0.5347050000000 1.0
C      1  0.4205790000000  0.5157460000000  0.4754270000000 1.0
C      1  0.4251490000000  0.4712210000000  0.5265090000000 1.0
C      1  0.4619270000000  0.4393270000000  0.4693190000000 1.0
C      1  0.4984260000000  0.4316230000000  0.5247280000000 1.0
C      1  0.5521040000000  0.4650050000000  0.5092310000000 1.0
C      1  0.5653800000000  0.5062470000000  0.4915850000000 1.0
C      1  0.5510710000000  0.5366330000000  0.5131140000000 1.0
C      1  0.5169820000000  0.5546510000000  0.4882310000000 1.0
C      1  0.4784450000000  0.5548040000000  0.5143380000000 1.0
C      1  0.4406450000000  0.5316410000000  0.4893850000000 1.0
C      1  0.4360150000000  0.4938110000000  0.5073020000000 1.0
C      1  0.4501160000000  0.4626950000000  0.4866100000000 1.0
C      1  0.4789940000000  0.4434690000000  0.5064560000000 1.0
C      1  0.5250620000000  0.4452610000000  0.4857350000000 1.0
C      1  0.4978190000000  0.4731140000000  0.4284930000000 1.0
C      1  0.5170200000000  0.4828350000000  0.5689450000000 1.0
C      1  0.5220380000000  0.4876830000000  0.4335240000000 1.0
C      1  0.5268440000000  0.5097400000000  0.5676060000000 1.0
C      1  0.5152940000000  0.5160510000000  0.4358840000000 1.0
C      1  0.5029910000000  0.5284700000000  0.5679620000000 1.0
C      1  0.4867400000000  0.5191610000000  0.4362290000000 1.0
C      1  0.4795630000000  0.5126680000000  0.5665700000000 1.0
C      1  0.4746640000000  0.4930420000000  0.4320090000000 1.0
C      1  0.4865310000000  0.4849750000000  0.5664890000000 1.0
C      1  0.5154490000000  0.5242650000000  0.4999580000000 1.0
C      1  0.4861930000000  0.5248990000000  0.5054210000000 1.0
C      1  0.4682680000000  0.5181900000000  0.4816150000000 1.0
C      1  0.4685250000000  0.4984640000000  0.5174810000000 1.0
C      1  0.4683390000000  0.4899230000000  0.4775180000000 1.0
C      1  0.4857900000000  0.4755820000000  0.4991670000000 1.0
C      1  0.5156550000000  0.4757510000000  0.4943150000000 1.0
C      1  0.5284610000000  0.4840350000000  0.5221170000000 1.0
C      1  0.5332020000000  0.5019120000000  0.4814800000000 1.0
C      1  0.5302040000000  0.5125200000000  0.5249160000000 1.0
C      1  0.4613930000000  0.5179680000000  0.5444140000000 1.0
C      1  0.4523030000000  0.4801290000000  0.4507400000000 1.0
C      1  0.4773240000000  0.4729290000000  0.5381640000000 1.0
C      1  0.4812640000000  0.4576480000000  0.4492960000000 1.0
C      1  0.5104970000000  0.4659390000000  0.5411140000000 1.0
C      1  0.5402540000000  0.4820200000000  0.4539100000000 1.0
C      1  0.5505830000000  0.5224090000000  0.5501560000000 1.0
C      1  0.5296630000000  0.5260030000000  0.4577340000000 1.0
C      1  0.5211580000000  0.5439410000000  0.5478550000000 1.0
C      1  0.4774850000000  0.5355640000000  0.4582070000000 1.0
C      1  0.5261730000000  0.4445450000000  0.5197100000000 1.0
C      1  0.5626060000000  0.4750930000000  0.4784950000000 1.0
C      1  0.5698060000000  0.5100730000000  0.5249520000000 1.0
C      1  0.5472590000000  0.5405270000000  0.4819000000000 1.0
C      1  0.5096070000000  0.5614110000000  0.5207510000000 1.0
C      1  0.4630730000000  0.5573190000000  0.4840900000000 1.0
C      1  0.4378170000000  0.5246290000000  0.5208150000000 1.0
C      1  0.4288610000000  0.4864750000000  0.4747980000000 1.0
C      1  0.4529320000000  0.4596460000000  0.5190090000000 1.0
C      1  0.4948370000000  0.4437420000000  0.4769670000000 1.0
END
