TITL C-27144-3922-158 0.00112930485720369 125000 -324.956522322943 0 0 60 (C1) n - 1
REM
REM in /home/nfs/bkarasulu/CARBON/AIRSS/Generating-Clusters/AIREBO/Higher-Symm/Only-C60
REM
REM
REM
REM
REM
REM ./C.cell (28575a23ae977d3b5fae324c64b13b57)
REM
REM compiler GCC version 9.2.1 20190827 (Red Hat 9.2.1-1)
REM options -cpp -mtune=generic -march=x86-64 -g -O0 -fpre-include=/usr/include/finclude/math-vector-fortran.h
REM seed -263289426 -850515433 1490430230 -387725137 411410237 16885609 1093003813 936069688 -1618228737 2128164666 -715169970 -506930448 1677331710 -1618164059 2126983762 2031857008 -2012416991 -1715756866 1232244479 -1097990677 564149554 1532179708 435439009 1809887457 980676324 1141104617 -1361101097 2070864564 320376057 833655048 -900956140 1248121299 1255601917
REM
CELL 1.54180   50.00000   50.00000   50.00000   90.00000   90.00000   90.00000
LATT -1
SFAC C  
C      1  0.4927240000000  0.4749950000000  0.4927490000000 1.0
C      1  0.4728450000000  0.4973980000000  0.4907430000000 1.0
C      1  0.4854830000000  0.5193640000000  0.4763480000000 1.0
C      1  0.5082250000000  0.5285820000000  0.4888710000000 1.0
C      1  0.5285150000000  0.5067820000000  0.4883780000000 1.0
C      1  0.5150790000000  0.4840720000000  0.4773190000000 1.0
C      1  0.4867700000000  0.5190230000000  0.4446540000000 1.0
C      1  0.5108020000000  0.5332710000000  0.4277370000000 1.0
C      1  0.5245420000000  0.5034800000000  0.4278660000000 1.0
C      1  0.5093510000000  0.4817480000000  0.4453340000000 1.0
C      1  0.4839790000000  0.4658700000000  0.4312630000000 1.0
C      1  0.4700370000000  0.4955850000000  0.4306340000000 1.0
C      1  0.5139480000000  0.5426850000000  0.5476670000000 1.0
C      1  0.5482200000000  0.5031400000000  0.5492760000000 1.0
C      1  0.5370460000000  0.4592890000000  0.5541030000000 1.0
C      1  0.4813190000000  0.4545200000000  0.5404260000000 1.0
C      1  0.4514500000000  0.4919380000000  0.5403050000000 1.0
C      1  0.4723470000000  0.5442450000000  0.5524040000000 1.0
C      1  0.5137840000000  0.5268560000000  0.5198720000000 1.0
C      1  0.5356340000000  0.5015210000000  0.5202780000000 1.0
C      1  0.5250690000000  0.4730400000000  0.5275890000000 1.0
C      1  0.4997810000000  0.4658000000000  0.5182780000000 1.0
C      1  0.4659780000000  0.5066170000000  0.5171950000000 1.0
C      1  0.4824930000000  0.5271440000000  0.5273230000000 1.0
C      1  0.4515520000000  0.4084050000000  0.5353370000000 1.0
C      1  0.3990430000000  0.4752070000000  0.5361770000000 1.0
C      1  0.4506270000000  0.5944290000000  0.5566430000000 1.0
C      1  0.5304870000000  0.5955610000000  0.5474010000000 1.0
C      1  0.6033870000000  0.5019460000000  0.5539840000000 1.0
C      1  0.5753310000000  0.4207570000000  0.5615820000000 1.0
C      1  0.4844110000000  0.4415440000000  0.4707040000000 1.0
C      1  0.4444380000000  0.4886180000000  0.4640790000000 1.0
C      1  0.4609530000000  0.5475950000000  0.4547260000000 1.0
C      1  0.5153220000000  0.5627660000000  0.4617830000000 1.0
C      1  0.5534170000000  0.5130370000000  0.4578810000000 1.0
C      1  0.5356480000000  0.4535880000000  0.4549590000000 1.0
C      1  0.4581460000000  0.5268900000000  0.4278940000000 1.0
C      1  0.4992650000000  0.5618150000000  0.4251670000000 1.0
C      1  0.5447180000000  0.5304470000000  0.4300020000000 1.0
C      1  0.5359380000000  0.4719900000000  0.4263590000000 1.0
C      1  0.4957500000000  0.4370950000000  0.4292830000000 1.0
C      1  0.4504410000000  0.4685950000000  0.4369890000000 1.0
C      1  0.4491190000000  0.5156670000000  0.4581490000000 1.0
C      1  0.4841130000000  0.5654020000000  0.4516300000000 1.0
C      1  0.5331260000000  0.5405330000000  0.4600210000000 1.0
C      1  0.5482820000000  0.4854270000000  0.4545200000000 1.0
C      1  0.5114940000000  0.4358450000000  0.4551740000000 1.0
C      1  0.4654770000000  0.4621270000000  0.4665100000000 1.0
C      1  0.4950300000000  0.5283070000000  0.5720310000000 1.0
C      1  0.5259200000000  0.5191650000000  0.5678080000000 1.0
C      1  0.5280890000000  0.4870330000000  0.5715160000000 1.0
C      1  0.5045440000000  0.4664220000000  0.5612370000000 1.0
C      1  0.4742740000000  0.4793910000000  0.5616550000000 1.0
C      1  0.4687530000000  0.5116170000000  0.5614820000000 1.0
C      1  0.4642100000000  0.4304230000000  0.5378370000000 1.0
C      1  0.4228510000000  0.4840140000000  0.5388110000000 1.0
C      1  0.4618030000000  0.5715220000000  0.5553450000000 1.0
C      1  0.5241080000000  0.5708560000000  0.5479770000000 1.0
C      1  0.5779330000000  0.5012200000000  0.5522890000000 1.0
C      1  0.5565760000000  0.4377800000000  0.5584460000000 1.0
END
