TITL C-27141-4733-22 -0.0031577300344264 125000 -347.40088806969 0 0 60 (C1) n - 1
REM
REM in /home/nfs/bkarasulu/CARBON/AIRSS/Generating-Clusters/AIREBO/Higher-Symm/Only-C60
REM
REM
REM
REM
REM
REM ./C.cell (28575a23ae977d3b5fae324c64b13b57)
REM
REM compiler GCC version 9.2.1 20190827 (Red Hat 9.2.1-1)
REM options -cpp -mtune=generic -march=x86-64 -g -O0 -fpre-include=/usr/include/finclude/math-vector-fortran.h
REM seed -471995740 1068254492 1525770365 -2018162910 261427299 1320118406 -1405325109 -1730916674 445547223 -233120692 1417033611 -2127302551 1427270949 -479722229 305945482 1182119781 728155878 -214117156 -567376529 764068149 523224324 1389229101 867775759 205167478 1701943901 -1496497815 -1072296757 -872934753 1788058034 -1786938966 1766754241 658864210 1893163200
REM
CELL 1.54180   50.00000   50.00000   50.00000   90.00000   90.00000   90.00000
LATT -1
SFAC C  
C      1  0.5656520000000  0.4709450000000  0.4879370000000 1.0
C      1  0.4754920000000  0.4139750000000  0.4887220000000 1.0
C      1  0.4303110000000  0.5305700000000  0.4914780000000 1.0
C      1  0.5283120000000  0.5714490000000  0.4860030000000 1.0
C      1  0.5662010000000  0.4713390000000  0.5160740000000 1.0
C      1  0.4738300000000  0.4215990000000  0.5183490000000 1.0
C      1  0.4325460000000  0.5276710000000  0.5193520000000 1.0
C      1  0.5310790000000  0.5739420000000  0.5141860000000 1.0
C      1  0.5465770000000  0.4478610000000  0.4731160000000 1.0
C      1  0.4483290000000  0.4569300000000  0.4721750000000 1.0
C      1  0.4489060000000  0.5564520000000  0.4810280000000 1.0
C      1  0.5468740000000  0.5516660000000  0.4757120000000 1.0
C      1  0.5439010000000  0.4525570000000  0.5334180000000 1.0
C      1  0.4483460000000  0.4446470000000  0.5194840000000 1.0
C      1  0.4500620000000  0.5471480000000  0.5308430000000 1.0
C      1  0.5477530000000  0.5520850000000  0.5227000000000 1.0
C      1  0.5234790000000  0.4796840000000  0.5314970000000 1.0
C      1  0.4698300000000  0.4692550000000  0.5263450000000 1.0
C      1  0.4778080000000  0.5340400000000  0.5396060000000 1.0
C      1  0.5295810000000  0.5310500000000  0.5363670000000 1.0
C      1  0.5299770000000  0.4772990000000  0.4710350000000 1.0
C      1  0.4787510000000  0.4640740000000  0.4647340000000 1.0
C      1  0.4720580000000  0.5374170000000  0.4657390000000 1.0
C      1  0.5300680000000  0.5297070000000  0.4616330000000 1.0
C      1  0.5020080000000  0.5423180000000  0.4501080000000 1.0
C      1  0.5471000000000  0.5016430000000  0.4543660000000 1.0
C      1  0.4921050000000  0.4386660000000  0.4528880000000 1.0
C      1  0.4574090000000  0.5117520000000  0.4594300000000 1.0
C      1  0.5039220000000  0.5494320000000  0.5436770000000 1.0
C      1  0.5446550000000  0.5031760000000  0.5423200000000 1.0
C      1  0.4901650000000  0.4530570000000  0.5457910000000 1.0
C      1  0.4551460000000  0.5142100000000  0.5529280000000 1.0
C      1  0.4992500000000  0.4728520000000  0.5114910000000 1.0
C      1  0.4665800000000  0.4953990000000  0.5072370000000 1.0
C      1  0.4857700000000  0.5173250000000  0.5148990000000 1.0
C      1  0.5161140000000  0.5088260000000  0.5155630000000 1.0
C      1  0.5023920000000  0.4720600000000  0.4853580000000 1.0
C      1  0.4684320000000  0.4910120000000  0.4771620000000 1.0
C      1  0.4971610000000  0.5297790000000  0.4873810000000 1.0
C      1  0.5221790000000  0.5069130000000  0.4844640000000 1.0
C      1  0.4325150000000  0.4732460000000  0.5126500000000 1.0
C      1  0.4833950000000  0.5858500000000  0.5177300000000 1.0
C      1  0.5830040000000  0.5172120000000  0.5158250000000 1.0
C      1  0.5235400000000  0.4274610000000  0.5217890000000 1.0
C      1  0.4314330000000  0.4778440000000  0.4842810000000 1.0
C      1  0.4764540000000  0.5757450000000  0.4860380000000 1.0
C      1  0.5833530000000  0.5160040000000  0.4847130000000 1.0
C      1  0.5245210000000  0.4251580000000  0.4865410000000 1.0
C      1  0.4318000000000  0.5064940000000  0.4752180000000 1.0
C      1  0.5012900000000  0.5615610000000  0.4780410000000 1.0
C      1  0.5692930000000  0.4946670000000  0.4730350000000 1.0
C      1  0.4981190000000  0.4207130000000  0.4729140000000 1.0
C      1  0.4402270000000  0.4983860000000  0.5284970000000 1.0
C      1  0.5063110000000  0.5741900000000  0.5292270000000 1.0
C      1  0.5688550000000  0.4968150000000  0.5287910000000 1.0
C      1  0.4960400000000  0.4290640000000  0.5333930000000 1.0
C      1  0.5330340000000  0.4534020000000  0.5027910000000 1.0
C      1  0.4504020000000  0.4335100000000  0.4886950000000 1.0
C      1  0.4548110000000  0.5699420000000  0.5120180000000 1.0
C      1  0.5654900000000  0.5409520000000  0.4988990000000 1.0
END
