TITL C-27137-4574-39 -0.000238882112064811 125000 -329.554163616039 0 0 60 (C1) n - 1
REM
REM in /home/nfs/bkarasulu/CARBON/AIRSS/Generating-Clusters/AIREBO/Higher-Symm/Only-C60
REM
REM
REM
REM
REM
REM ./C.cell (28575a23ae977d3b5fae324c64b13b57)
REM
REM compiler GCC version 9.2.1 20190827 (Red Hat 9.2.1-1)
REM options -cpp -mtune=generic -march=x86-64 -g -O0 -fpre-include=/usr/include/finclude/math-vector-fortran.h
REM seed -1524195434 1588168567 1976194942 -927708042 -2111720178 655183588 -1951021517 2012927053 -12916039 -335135551 -1442459946 -1121289727 -693338073 446071836 620062736 -1163104410 -2020524636 -583919688 -1395739303 -1942010452 1456340210 314649057 -1038303891 -963443672 -1246507617 51870183 1654534815 1983107028 -314730300 1170368173 1985922164 1738395 261718376
REM
CELL 1.54180   50.00000   50.00000   50.00000   90.00000   90.00000   90.00000
LATT -1
SFAC C  
C      1  0.4320250000000  0.4722700000000  0.5069030000000 1.0
C      1  0.4372360000000  0.4963620000000  0.5259200000000 1.0
C      1  0.4309530000000  0.5202370000000  0.5120860000000 1.0
C      1  0.4168090000000  0.5123590000000  0.4871000000000 1.0
C      1  0.4322430000000  0.4872730000000  0.4819980000000 1.0
C      1  0.4674510000000  0.4912770000000  0.5365330000000 1.0
C      1  0.4551470000000  0.5363810000000  0.5066550000000 1.0
C      1  0.4657950000000  0.5222620000000  0.4788300000000 1.0
C      1  0.4612930000000  0.4934090000000  0.4739770000000 1.0
C      1  0.4620860000000  0.4664680000000  0.5170960000000 1.0
C      1  0.4795900000000  0.4565660000000  0.5520890000000 1.0
C      1  0.4779180000000  0.5425930000000  0.5527860000000 1.0
C      1  0.4629860000000  0.5707970000000  0.4758910000000 1.0
C      1  0.4721440000000  0.5069990000000  0.4307090000000 1.0
C      1  0.4648910000000  0.4387170000000  0.4712610000000 1.0
C      1  0.4629050000000  0.5485290000000  0.4598660000000 1.0
C      1  0.4683240000000  0.4823410000000  0.4455730000000 1.0
C      1  0.4638830000000  0.4380620000000  0.4984910000000 1.0
C      1  0.4677810000000  0.4841030000000  0.5677580000000 1.0
C      1  0.4604530000000  0.5601210000000  0.5382990000000 1.0
C      1  0.4955010000000  0.5343460000000  0.4780350000000 1.0
C      1  0.4908840000000  0.4770110000000  0.4780990000000 1.0
C      1  0.4935760000000  0.4633390000000  0.5064720000000 1.0
C      1  0.4935730000000  0.5067920000000  0.5292240000000 1.0
C      1  0.4881980000000  0.5298160000000  0.5109650000000 1.0
C      1  0.5251570000000  0.4247040000000  0.4936700000000 1.0
C      1  0.5058610000000  0.4697130000000  0.5560010000000 1.0
C      1  0.5045820000000  0.5476710000000  0.5431860000000 1.0
C      1  0.5239070000000  0.5602240000000  0.4670590000000 1.0
C      1  0.5194070000000  0.4835550000000  0.4355760000000 1.0
C      1  0.5220210000000  0.5206300000000  0.4861680000000 1.0
C      1  0.5202310000000  0.4913990000000  0.4747470000000 1.0
C      1  0.5258590000000  0.4662120000000  0.4941590000000 1.0
C      1  0.5243070000000  0.4916100000000  0.5281540000000 1.0
C      1  0.5273280000000  0.5234540000000  0.5162160000000 1.0
C      1  0.5509720000000  0.4656220000000  0.5142520000000 1.0
C      1  0.5516470000000  0.5061030000000  0.5422660000000 1.0
C      1  0.5517780000000  0.5403560000000  0.5040150000000 1.0
C      1  0.5505570000000  0.5165170000000  0.4688670000000 1.0
C      1  0.5584940000000  0.4620890000000  0.4706360000000 1.0
C      1  0.5036920000000  0.5003450000000  0.5610460000000 1.0
C      1  0.5048060000000  0.5589990000000  0.5124280000000 1.0
C      1  0.5104350000000  0.5364360000000  0.4484340000000 1.0
C      1  0.5075640000000  0.4599990000000  0.4538200000000 1.0
C      1  0.5111490000000  0.4363430000000  0.5162930000000 1.0
C      1  0.5766700000000  0.5234280000000  0.4880730000000 1.0
C      1  0.5724530000000  0.4930100000000  0.4732850000000 1.0
C      1  0.5786550000000  0.4703190000000  0.4967490000000 1.0
C      1  0.5735860000000  0.4872860000000  0.5252510000000 1.0
C      1  0.5737540000000  0.5210240000000  0.5213190000000 1.0
C      1  0.4761280000000  0.4539510000000  0.4492670000000 1.0
C      1  0.4803490000000  0.4350050000000  0.5281620000000 1.0
C      1  0.4757700000000  0.5171290000000  0.5656860000000 1.0
C      1  0.4718270000000  0.5660080000000  0.5070230000000 1.0
C      1  0.4799060000000  0.5327100000000  0.4412400000000 1.0
C      1  0.5240720000000  0.5244060000000  0.5500520000000 1.0
C      1  0.5294500000000  0.5602820000000  0.4945020000000 1.0
C      1  0.5267970000000  0.5108090000000  0.4476200000000 1.0
C      1  0.5316720000000  0.4450660000000  0.4687270000000 1.0
C      1  0.5255150000000  0.4591530000000  0.5334350000000 1.0
END
