TITL C-27140-5627-154 -0.00244726260585974 125000 -327.914976120557 0 0 60 (C1) n - 1
REM
REM in /home/nfs/bkarasulu/CARBON/AIRSS/Generating-Clusters/AIREBO/Higher-Symm/Only-C60
REM
REM
REM
REM
REM
REM ./C.cell (28575a23ae977d3b5fae324c64b13b57)
REM
REM compiler GCC version 9.2.1 20190827 (Red Hat 9.2.1-1)
REM options -cpp -mtune=generic -march=x86-64 -g -O0 -fpre-include=/usr/include/finclude/math-vector-fortran.h
REM seed 1591145941 -1374130519 -1807663535 469387323 1595148772 1162585495 -1887126572 -1990984457 1586197700 1766393042 394489581 -183918910 290465159 -1483815696 590269515 535499139 -1458161472 325015543 1980437245 711301744 644152446 -311299699 -1512260186 1090474712 -903859268 148133150 -2105281497 -1983449949 897314207 -840275278 -612440747 -2117098110 1012200218
REM
CELL 1.54180   50.00000   50.00000   50.00000   90.00000   90.00000   90.00000
LATT -1
SFAC C  
C      1  0.5343240000000  0.4586680000000  0.5452200000000 1.0
C      1  0.4489860000000  0.4964940000000  0.5429650000000 1.0
C      1  0.5220870000000  0.5469110000000  0.5449080000000 1.0
C      1  0.5605020000000  0.4662470000000  0.4888990000000 1.0
C      1  0.4305490000000  0.4632500000000  0.4885560000000 1.0
C      1  0.5092650000000  0.5744820000000  0.4877480000000 1.0
C      1  0.5343960000000  0.5202300000000  0.5050120000000 1.0
C      1  0.5055380000000  0.4689590000000  0.4994300000000 1.0
C      1  0.4700920000000  0.5070520000000  0.5008940000000 1.0
C      1  0.4469480000000  0.4168240000000  0.4964300000000 1.0
C      1  0.4602970000000  0.5818030000000  0.4896570000000 1.0
C      1  0.6006550000000  0.4913460000000  0.4985890000000 1.0
C      1  0.5168730000000  0.5105770000000  0.5292340000000 1.0
C      1  0.5062210000000  0.4806640000000  0.5273290000000 1.0
C      1  0.4852030000000  0.5039440000000  0.5279380000000 1.0
C      1  0.4759690000000  0.5378540000000  0.5596670000000 1.0
C      1  0.5436110000000  0.5033730000000  0.5681300000000 1.0
C      1  0.4794160000000  0.4578380000000  0.5587990000000 1.0
C      1  0.4483580000000  0.4440120000000  0.4965530000000 1.0
C      1  0.4832500000000  0.5674180000000  0.4930460000000 1.0
C      1  0.5739400000000  0.4859870000000  0.5010420000000 1.0
C      1  0.5576120000000  0.5013890000000  0.5212480000000 1.0
C      1  0.4742900000000  0.4595760000000  0.5090390000000 1.0
C      1  0.4819980000000  0.5381860000000  0.5076720000000 1.0
C      1  0.4322690000000  0.4846040000000  0.4659220000000 1.0
C      1  0.5253900000000  0.5582230000000  0.4665180000000 1.0
C      1  0.5410460000000  0.4582200000000  0.4652640000000 1.0
C      1  0.4590720000000  0.4892100000000  0.4512230000000 1.0
C      1  0.5086560000000  0.5350760000000  0.4557070000000 1.0
C      1  0.5199810000000  0.4755970000000  0.4530570000000 1.0
C      1  0.5430900000000  0.5520370000000  0.5273470000000 1.0
C      1  0.5226430000000  0.4419650000000  0.5233620000000 1.0
C      1  0.4370390000000  0.5117150000000  0.5225360000000 1.0
C      1  0.4951120000000  0.4363930000000  0.5226760000000 1.0
C      1  0.4495830000000  0.5368400000000  0.5179000000000 1.0
C      1  0.5635520000000  0.5334100000000  0.5290060000000 1.0
C      1  0.4963400000000  0.5241250000000  0.4193350000000 1.0
C      1  0.5117070000000  0.4777640000000  0.4141040000000 1.0
C      1  0.4874740000000  0.4982340000000  0.4085560000000 1.0
C      1  0.5035900000000  0.4919060000000  0.4767170000000 1.0
C      1  0.4718410000000  0.4807580000000  0.4815860000000 1.0
C      1  0.5056890000000  0.5240120000000  0.4877260000000 1.0
C      1  0.4971260000000  0.4587310000000  0.4357610000000 1.0
C      1  0.4577540000000  0.5206530000000  0.4475420000000 1.0
C      1  0.5244320000000  0.5212920000000  0.4303850000000 1.0
C      1  0.5320930000000  0.4947150000000  0.4298040000000 1.0
C      1  0.4746070000000  0.4777690000000  0.4284490000000 1.0
C      1  0.4792380000000  0.5351750000000  0.4409140000000 1.0
C      1  0.4378340000000  0.4956320000000  0.4963270000000 1.0
C      1  0.5335860000000  0.5537570000000  0.4980710000000 1.0
C      1  0.5315350000000  0.4513790000000  0.4954720000000 1.0
C      1  0.4343490000000  0.4492640000000  0.5413410000000 1.0
C      1  0.4863680000000  0.5803580000000  0.5377350000000 1.0
C      1  0.5805070000000  0.4718520000000  0.5559610000000 1.0
C      1  0.5046720000000  0.4630830000000  0.5521630000000 1.0
C      1  0.4708210000000  0.5121800000000  0.5540070000000 1.0
C      1  0.5261170000000  0.5204300000000  0.5570790000000 1.0
C      1  0.4925810000000  0.5524840000000  0.5369070000000 1.0
C      1  0.5550800000000  0.4815210000000  0.5479070000000 1.0
C      1  0.4568470000000  0.4665510000000  0.5376320000000 1.0
END
