TITL C-27135-6010-113 -0.16167350678878 125000 -315.208297085088 0 0 60 (C1) n - 1
REM
REM in /home/nfs/bkarasulu/CARBON/AIRSS/Generating-Clusters/AIREBO/Higher-Symm/Only-C60
REM
REM
REM
REM
REM
REM ./C.cell (28575a23ae977d3b5fae324c64b13b57)
REM
REM compiler GCC version 9.2.1 20190827 (Red Hat 9.2.1-1)
REM options -cpp -mtune=generic -march=x86-64 -g -O0 -fpre-include=/usr/include/finclude/math-vector-fortran.h
REM seed -971092433 -1252986262 1851543481 -1317085056 -715418892 287823075 2016241516 1346677536 1549957901 2071194014 617387028 -1135880699 1730194092 -389601012 -216037455 1166385333 1904996663 -252523390 601848463 -1143292041 -584335472 -199806152 1451970873 -1746341898 943705485 1435044126 -1486550121 856218499 -1202914165 601654882 1947366269 -1142185217 -298113603
REM
CELL 1.54180   50.00000   50.00000   50.00000   90.00000   90.00000   90.00000
LATT -1
SFAC C  
C      1  0.4448380000000  0.5180520000000  0.4649230000000 1.0
C      1  0.4969320000000  0.5145420000000  0.4300800000000 1.0
C      1  0.5567290000000  0.5282280000000  0.4502880000000 1.0
C      1  0.5711990000000  0.5265180000000  0.5118690000000 1.0
C      1  0.5322710000000  0.5082540000000  0.5597090000000 1.0
C      1  0.4678850000000  0.5233760000000  0.5617100000000 1.0
C      1  0.4269870000000  0.5401870000000  0.5155020000000 1.0
C      1  0.5654260000000  0.4529540000000  0.5064960000000 1.0
C      1  0.5218640000000  0.4585100000000  0.5438600000000 1.0
C      1  0.4724060000000  0.4626310000000  0.5582820000000 1.0
C      1  0.4382690000000  0.4610290000000  0.5376080000000 1.0
C      1  0.4461030000000  0.4588810000000  0.4648510000000 1.0
C      1  0.5019170000000  0.4609000000000  0.4406130000000 1.0
C      1  0.5489300000000  0.4692570000000  0.4379390000000 1.0
C      1  0.5199690000000  0.4982910000000  0.4623710000000 1.0
C      1  0.5458660000000  0.4906470000000  0.4830470000000 1.0
C      1  0.5339300000000  0.4940080000000  0.5142570000000 1.0
C      1  0.4870380000000  0.5024530000000  0.5336530000000 1.0
C      1  0.4561160000000  0.5046520000000  0.5270090000000 1.0
C      1  0.4588340000000  0.4949350000000  0.4957640000000 1.0
C      1  0.4899870000000  0.4919160000000  0.4621140000000 1.0
C      1  0.4365130000000  0.4758870000000  0.4811410000000 1.0
C      1  0.4992330000000  0.4831270000000  0.4236070000000 1.0
C      1  0.5486050000000  0.4963900000000  0.4436530000000 1.0
C      1  0.5723030000000  0.4699250000000  0.4882200000000 1.0
C      1  0.5311590000000  0.4769030000000  0.5621450000000 1.0
C      1  0.4731010000000  0.4901260000000  0.5601400000000 1.0
C      1  0.4356340000000  0.4860390000000  0.5406870000000 1.0
C      1  0.4717520000000  0.4633550000000  0.4951970000000 1.0
C      1  0.4776330000000  0.4606790000000  0.4617970000000 1.0
C      1  0.5273900000000  0.4558130000000  0.4517990000000 1.0
C      1  0.5308180000000  0.4601500000000  0.4828480000000 1.0
C      1  0.5358380000000  0.4602820000000  0.5169900000000 1.0
C      1  0.4963440000000  0.4483100000000  0.5435740000000 1.0
C      1  0.4668430000000  0.4513770000000  0.5266770000000 1.0
C      1  0.4766520000000  0.5561090000000  0.5589320000000 1.0
C      1  0.4045920000000  0.5523870000000  0.5161950000000 1.0
C      1  0.4234230000000  0.5079460000000  0.4541810000000 1.0
C      1  0.4882720000000  0.5474170000000  0.4336650000000 1.0
C      1  0.5671270000000  0.5553630000000  0.4679790000000 1.0
C      1  0.5716740000000  0.5564360000000  0.5171170000000 1.0
C      1  0.5335150000000  0.5424010000000  0.5607920000000 1.0
C      1  0.4864830000000  0.5460560000000  0.4650760000000 1.0
C      1  0.5183770000000  0.5412900000000  0.4758550000000 1.0
C      1  0.5447000000000  0.5462000000000  0.4893240000000 1.0
C      1  0.5385410000000  0.5469410000000  0.5215530000000 1.0
C      1  0.5099260000000  0.5485930000000  0.5381420000000 1.0
C      1  0.4801380000000  0.5571320000000  0.5263980000000 1.0
C      1  0.4734100000000  0.5444230000000  0.4967400000000 1.0
C      1  0.4538370000000  0.5360720000000  0.5334500000000 1.0
C      1  0.4473650000000  0.5269540000000  0.4951430000000 1.0
C      1  0.4727790000000  0.5170200000000  0.4538880000000 1.0
C      1  0.5238230000000  0.5271890000000  0.4463560000000 1.0
C      1  0.5629690000000  0.5184120000000  0.4822380000000 1.0
C      1  0.5474440000000  0.5156800000000  0.5315410000000 1.0
C      1  0.5013300000000  0.5204460000000  0.5551700000000 1.0
C      1  0.4973700000000  0.4410070000000  0.4942030000000 1.0
C      1  0.5043540000000  0.5019990000000  0.5106680000000 1.0
C      1  0.5006430000000  0.5278000000000  0.4972440000000 1.0
C      1  0.5038550000000  0.4744570000000  0.4967390000000 1.0
END
