TITL C-27140-5627-184 0.00116571918791902 125000 -351.343832437563 0 0 60 (C1) n - 1
REM
REM in /home/nfs/bkarasulu/CARBON/AIRSS/Generating-Clusters/AIREBO/Higher-Symm/Only-C60
REM
REM
REM
REM
REM
REM ./C.cell (28575a23ae977d3b5fae324c64b13b57)
REM
REM compiler GCC version 9.2.1 20190827 (Red Hat 9.2.1-1)
REM options -cpp -mtune=generic -march=x86-64 -g -O0 -fpre-include=/usr/include/finclude/math-vector-fortran.h
REM seed -2114760558 1113747923 -233433228 -512099393 481761951 700257673 1703989693 -548944499 2109828246 1465596079 -380255610 -575448567 904669402 -889852462 1898402194 249518448 -408733016 1055172404 -1733840207 1774144530 1226512378 -2053940550 -980007019 681977716 732713771 -471503612 -894302840 543601183 -613109808 -638192522 2061638258 -208329076 -764233611
REM
CELL 1.54180   50.00000   50.00000   50.00000   90.00000   90.00000   90.00000
LATT -1
SFAC C  
C      1  0.5580100000000  0.4754680000000  0.4746710000000 1.0
C      1  0.4629880000000  0.5578470000000  0.4690860000000 1.0
C      1  0.4914200000000  0.4703400000000  0.5554010000000 1.0
C      1  0.4462770000000  0.5124290000000  0.4691620000000 1.0
C      1  0.4481910000000  0.4858090000000  0.5292340000000 1.0
C      1  0.5594780000000  0.5265160000000  0.5368290000000 1.0
C      1  0.5292490000000  0.4358790000000  0.4809540000000 1.0
C      1  0.5270420000000  0.5572670000000  0.5190860000000 1.0
C      1  0.4664690000000  0.4405670000000  0.5187130000000 1.0
C      1  0.5213750000000  0.5282800000000  0.5596390000000 1.0
C      1  0.5228590000000  0.4693960000000  0.4448970000000 1.0
C      1  0.4796810000000  0.5289490000000  0.4325100000000 1.0
C      1  0.5596760000000  0.4746730000000  0.5333370000000 1.0
C      1  0.4662220000000  0.5583240000000  0.5200540000000 1.0
C      1  0.4722330000000  0.4675150000000  0.4425300000000 1.0
C      1  0.4409680000000  0.5183620000000  0.5322830000000 1.0
C      1  0.4330330000000  0.4824600000000  0.4671410000000 1.0
C      1  0.5533960000000  0.5226910000000  0.4773420000000 1.0
C      1  0.5276950000000  0.4433920000000  0.5139630000000 1.0
C      1  0.5255670000000  0.5605090000000  0.4794170000000 1.0
C      1  0.4692140000000  0.4504310000000  0.4873950000000 1.0
C      1  0.5106740000000  0.5274770000000  0.4466480000000 1.0
C      1  0.5232340000000  0.4632940000000  0.5628630000000 1.0
C      1  0.4889410000000  0.5264720000000  0.5494430000000 1.0
C      1  0.4421030000000  0.4589450000000  0.5151540000000 1.0
C      1  0.5122620000000  0.4456510000000  0.4604870000000 1.0
C      1  0.4574130000000  0.5135660000000  0.4373630000000 1.0
C      1  0.5565030000000  0.5494790000000  0.5201980000000 1.0
C      1  0.5561930000000  0.4504300000000  0.4870700000000 1.0
C      1  0.4385600000000  0.5397380000000  0.4844210000000 1.0
C      1  0.4819820000000  0.5551770000000  0.4475350000000 1.0
C      1  0.4844500000000  0.4414090000000  0.5389390000000 1.0
C      1  0.5135360000000  0.5570370000000  0.5434230000000 1.0
C      1  0.5450300000000  0.4852110000000  0.4498500000000 1.0
C      1  0.5473200000000  0.5103790000000  0.5641760000000 1.0
C      1  0.4644380000000  0.4842050000000  0.5595870000000 1.0
C      1  0.4375630000000  0.4626990000000  0.4853560000000 1.0
C      1  0.5143390000000  0.4409090000000  0.5416210000000 1.0
C      1  0.4629010000000  0.5135350000000  0.5535320000000 1.0
C      1  0.5518330000000  0.5479840000000  0.4891920000000 1.0
C      1  0.5589470000000  0.4527710000000  0.5172140000000 1.0
C      1  0.4423560000000  0.5397910000000  0.5138280000000 1.0
C      1  0.4833400000000  0.5573960000000  0.5418410000000 1.0
C      1  0.4836670000000  0.4456180000000  0.4602360000000 1.0
C      1  0.5117380000000  0.5596930000000  0.4549060000000 1.0
C      1  0.5451910000000  0.4812630000000  0.5594050000000 1.0
C      1  0.5405380000000  0.5133810000000  0.4513790000000 1.0
C      1  0.4498750000000  0.4840500000000  0.4414970000000 1.0
C      1  0.5256700000000  0.4760370000000  0.5123300000000 1.0
C      1  0.5056380000000  0.5098670000000  0.4752930000000 1.0
C      1  0.4748550000000  0.4816300000000  0.5117260000000 1.0
C      1  0.4763790000000  0.5470160000000  0.4942960000000 1.0
C      1  0.4767050000000  0.4829340000000  0.4807710000000 1.0
C      1  0.5155990000000  0.5335410000000  0.4975870000000 1.0
C      1  0.4976660000000  0.4827680000000  0.4558590000000 1.0
C      1  0.5142050000000  0.5203770000000  0.5273500000000 1.0
C      1  0.4969640000000  0.4766460000000  0.5247370000000 1.0
C      1  0.5415960000000  0.5021490000000  0.5256380000000 1.0
C      1  0.5344750000000  0.4960500000000  0.4868660000000 1.0
C      1  0.4742790000000  0.5163200000000  0.4867420000000 1.0
END
