TITL C-27133-8107-192 0.00209286172603631 125000 -342.567819376305 0 0 60 (C1) n - 1
REM
REM in /home/nfs/bkarasulu/CARBON/AIRSS/Generating-Clusters/AIREBO/Higher-Symm/Only-C60
REM
REM
REM
REM
REM
REM ./C.cell (28575a23ae977d3b5fae324c64b13b57)
REM
REM compiler GCC version 9.2.1 20190827 (Red Hat 9.2.1-1)
REM options -cpp -mtune=generic -march=x86-64 -g -O0 -fpre-include=/usr/include/finclude/math-vector-fortran.h
REM seed -60084264 122241831 878204044 592606066 -1861242917 -1321782849 -601960228 679949150 -328257711 -1480746392 1535871268 -2051885144 1109056659 -371405888 395891348 1444264322 191453042 -1473730436 -46030273 -82803112 -193376684 807064923 658463458 -1515746582 -1442071948 -1164264857 1012819925 -1156389396 -1789241156 63106052 919814628 -1976961112 -602802228
REM
CELL 1.54180   50.00000   50.00000   50.00000   90.00000   90.00000   90.00000
LATT -1
SFAC C  
C      1  0.4793010000000  0.4534030000000  0.4485090000000 1.0
C      1  0.5216500000000  0.5141960000000  0.4265410000000 1.0
C      1  0.4806760000000  0.5679330000000  0.4905730000000 1.0
C      1  0.5191190000000  0.5429560000000  0.5563010000000 1.0
C      1  0.4791600000000  0.4727430000000  0.5637070000000 1.0
C      1  0.5198450000000  0.4353700000000  0.5136070000000 1.0
C      1  0.4752070000000  0.5229720000000  0.5719720000000 1.0
C      1  0.5262570000000  0.4533930000000  0.5588260000000 1.0
C      1  0.4741250000000  0.4239540000000  0.4900610000000 1.0
C      1  0.5229150000000  0.4636840000000  0.4276170000000 1.0
C      1  0.4799560000000  0.5474920000000  0.4437020000000 1.0
C      1  0.5234840000000  0.5781300000000  0.5202110000000 1.0
C      1  0.4483990000000  0.4688760000000  0.5178250000000 1.0
C      1  0.5508310000000  0.4673930000000  0.4799810000000 1.0
C      1  0.4488400000000  0.5007270000000  0.4590960000000 1.0
C      1  0.5501060000000  0.5371560000000  0.4766220000000 1.0
C      1  0.4463230000000  0.5348880000000  0.5180070000000 1.0
C      1  0.5565420000000  0.5027860000000  0.5354380000000 1.0
C      1  0.5287580000000  0.4345720000000  0.5419330000000 1.0
C      1  0.4694790000000  0.4290270000000  0.4657600000000 1.0
C      1  0.5270940000000  0.4892430000000  0.4171350000000 1.0
C      1  0.4784050000000  0.5671610000000  0.4591980000000 1.0
C      1  0.5252460000000  0.5707420000000  0.5441790000000 1.0
C      1  0.4739290000000  0.4992170000000  0.5799920000000 1.0
C      1  0.5409220000000  0.4832560000000  0.5252810000000 1.0
C      1  0.4634670000000  0.4706460000000  0.4957150000000 1.0
C      1  0.5382440000000  0.4897080000000  0.4715600000000 1.0
C      1  0.4605870000000  0.5212200000000  0.4720390000000 1.0
C      1  0.5388390000000  0.5349590000000  0.5013500000000 1.0
C      1  0.4611950000000  0.5152710000000  0.5291050000000 1.0
C      1  0.5074350000000  0.4905480000000  0.4749810000000 1.0
C      1  0.4929830000000  0.5210740000000  0.4707320000000 1.0
C      1  0.5062600000000  0.5305350000000  0.5007750000000 1.0
C      1  0.4935790000000  0.5150840000000  0.5227420000000 1.0
C      1  0.5084430000000  0.4875940000000  0.5243620000000 1.0
C      1  0.4969550000000  0.4689360000000  0.4989900000000 1.0
C      1  0.4854900000000  0.4874260000000  0.4502280000000 1.0
C      1  0.5132520000000  0.5479420000000  0.4658570000000 1.0
C      1  0.4807430000000  0.5546280000000  0.5223970000000 1.0
C      1  0.5175710000000  0.5095650000000  0.5640500000000 1.0
C      1  0.4787070000000  0.4462830000000  0.5418250000000 1.0
C      1  0.5156780000000  0.4483430000000  0.4794390000000 1.0
C      1  0.5089660000000  0.4792750000000  0.5556600000000 1.0
C      1  0.4887130000000  0.4394760000000  0.5138410000000 1.0
C      1  0.5103730000000  0.4521660000000  0.4491640000000 1.0
C      1  0.4932420000000  0.5177030000000  0.4368980000000 1.0
C      1  0.5117720000000  0.5637350000000  0.4959360000000 1.0
C      1  0.4900330000000  0.5355630000000  0.5479690000000 1.0
C      1  0.4486230000000  0.5397580000000  0.4874780000000 1.0
C      1  0.5519270000000  0.5314030000000  0.5248030000000 1.0
C      1  0.4490910000000  0.4925400000000  0.5372020000000 1.0
C      1  0.5517130000000  0.4633530000000  0.5104450000000 1.0
C      1  0.4528540000000  0.4728720000000  0.4713070000000 1.0
C      1  0.5510740000000  0.5108080000000  0.4605400000000 1.0
C      1  0.4521890000000  0.5665500000000  0.5083040000000 1.0
C      1  0.5464650000000  0.5244220000000  0.5577250000000 1.0
C      1  0.4505040000000  0.4613230000000  0.5504010000000 1.0
C      1  0.5439640000000  0.4361750000000  0.4914890000000 1.0
C      1  0.4562830000000  0.4755180000000  0.4375270000000 1.0
C      1  0.5362170000000  0.5363280000000  0.4450910000000 1.0
END
