TITL C-27139-4854-76 0.00256973352088878 125000 -321.079432011655 0 0 60 (C1) n - 1
REM
REM in /home/nfs/bkarasulu/CARBON/AIRSS/Generating-Clusters/AIREBO/Higher-Symm/Only-C60
REM
REM
REM
REM
REM
REM ./C.cell (28575a23ae977d3b5fae324c64b13b57)
REM
REM compiler GCC version 9.2.1 20190827 (Red Hat 9.2.1-1)
REM options -cpp -mtune=generic -march=x86-64 -g -O0 -fpre-include=/usr/include/finclude/math-vector-fortran.h
REM seed -1409509616 -1506625154 -625469643 1194225713 -823550841 644395009 -1874237523 -893216108 -10029944 -1736737676 1812248051 -1566133211 -714837415 858937466 -1472656703 1317063388 2053786529 -939291314 1291571995 -676833948 1329780305 -1587029820 510372719 2090929796 514499139 -216058741 -1396109129 592040596 1647151850 -1617415490 -1211133443 -1009447121 -1986916283
REM
CELL 1.54180   50.00000   50.00000   50.00000   90.00000   90.00000   90.00000
LATT -1
SFAC C  
C      1  0.4986960000000  0.5028280000000  0.4321030000000 1.0
C      1  0.4907020000000  0.5168790000000  0.5582790000000 1.0
C      1  0.5205720000000  0.5186850000000  0.4409380000000 1.0
C      1  0.5100360000000  0.4896500000000  0.5518600000000 1.0
C      1  0.5727400000000  0.5114370000000  0.5056910000000 1.0
C      1  0.5125130000000  0.4311200000000  0.4973710000000 1.0
C      1  0.4314020000000  0.4901220000000  0.5025140000000 1.0
C      1  0.4957280000000  0.5655280000000  0.4932420000000 1.0
C      1  0.5282830000000  0.4915890000000  0.5232270000000 1.0
C      1  0.4931410000000  0.4687890000000  0.4787730000000 1.0
C      1  0.4675280000000  0.4962740000000  0.5193610000000 1.0
C      1  0.4971070000000  0.5229220000000  0.4851110000000 1.0
C      1  0.4746830000000  0.5024480000000  0.4891600000000 1.0
C      1  0.5088110000000  0.5327580000000  0.5118490000000 1.0
C      1  0.5316480000000  0.4869370000000  0.4894290000000 1.0
C      1  0.4861980000000  0.4705760000000  0.5104020000000 1.0
C      1  0.4388080000000  0.5171930000000  0.4988350000000 1.0
C      1  0.5275030000000  0.5577360000000  0.4997100000000 1.0
C      1  0.5618380000000  0.4854040000000  0.5026900000000 1.0
C      1  0.4812520000000  0.4383090000000  0.5008710000000 1.0
C      1  0.5021570000000  0.4621740000000  0.5343950000000 1.0
C      1  0.4550310000000  0.4938770000000  0.4705150000000 1.0
C      1  0.4936100000000  0.5401600000000  0.5392920000000 1.0
C      1  0.5231140000000  0.5123940000000  0.4726310000000 1.0
C      1  0.4435140000000  0.5130710000000  0.4453730000000 1.0
C      1  0.5166320000000  0.5751450000000  0.5470280000000 1.0
C      1  0.5613210000000  0.4933280000000  0.4424410000000 1.0
C      1  0.4853990000000  0.4428130000000  0.5565690000000 1.0
C      1  0.5682550000000  0.5283960000000  0.4828280000000 1.0
C      1  0.5298980000000  0.4378660000000  0.5193050000000 1.0
C      1  0.4373170000000  0.4674850000000  0.4785250000000 1.0
C      1  0.4768340000000  0.5573310000000  0.5160960000000 1.0
C      1  0.4319920000000  0.4803870000000  0.5281420000000 1.0
C      1  0.4858670000000  0.5614970000000  0.4679720000000 1.0
C      1  0.5658430000000  0.5232620000000  0.5304130000000 1.0
C      1  0.5229210000000  0.4354660000000  0.4725090000000 1.0
C      1  0.4879700000000  0.5727580000000  0.5442970000000 1.0
C      1  0.5545540000000  0.5129070000000  0.4610080000000 1.0
C      1  0.5162980000000  0.4331970000000  0.5461370000000 1.0
C      1  0.4328800000000  0.4809930000000  0.4475850000000 1.0
C      1  0.5334130000000  0.5237480000000  0.5340200000000 1.0
C      1  0.5231080000000  0.4671470000000  0.4631220000000 1.0
C      1  0.4606190000000  0.4710060000000  0.5410680000000 1.0
C      1  0.4728430000000  0.5330810000000  0.4635080000000 1.0
C      1  0.4823180000000  0.4753450000000  0.5659700000000 1.0
C      1  0.4746980000000  0.5161410000000  0.4360100000000 1.0
C      1  0.5241780000000  0.5171230000000  0.5660660000000 1.0
C      1  0.4996460000000  0.4752100000000  0.4398670000000 1.0
C      1  0.4415090000000  0.5310910000000  0.4741400000000 1.0
C      1  0.5318030000000  0.5576970000000  0.5328420000000 1.0
C      1  0.5494950000000  0.4686900000000  0.4445490000000 1.0
C      1  0.4669760000000  0.4408620000000  0.5290060000000 1.0
C      1  0.5445490000000  0.4622200000000  0.5177930000000 1.0
C      1  0.4649610000000  0.4515140000000  0.4739650000000 1.0
C      1  0.4585270000000  0.5290350000000  0.5208030000000 1.0
C      1  0.5452980000000  0.5482900000000  0.4771020000000 1.0
C      1  0.4618230000000  0.5195610000000  0.5519270000000 1.0
C      1  0.5327120000000  0.5448560000000  0.4513370000000 1.0
C      1  0.5327410000000  0.4877760000000  0.5790240000000 1.0
C      1  0.4781850000000  0.4579170000000  0.4434030000000 1.0
END
