TITL C-27130-3996-166 -0.00125358860933215 125000 -323.508285505723 0 0 60 (C1) n - 1
REM
REM in /home/nfs/bkarasulu/CARBON/AIRSS/Generating-Clusters/AIREBO/Higher-Symm/Only-C60
REM
REM
REM
REM
REM
REM ./C.cell (28575a23ae977d3b5fae324c64b13b57)
REM
REM compiler GCC version 9.2.1 20190827 (Red Hat 9.2.1-1)
REM options -cpp -mtune=generic -march=x86-64 -g -O0 -fpre-include=/usr/include/finclude/math-vector-fortran.h
REM seed -564126025 -1155842485 -859870163 1291732830 -53133653 -1843209038 -1527042439 1530455121 -345559961 1748154235 1825987463 -1811290596 766156356 -111675878 1724181768 -972123208 192183915 1704695079 -344781406 1207449887 2120078479 79615613 257142603 -1926392646 -1906365526 45943070 -1496674482 1506546482 -1965398037 1053815233 235440497 -1631058901 1384186487
REM
CELL 1.54180   50.00000   50.00000   50.00000   90.00000   90.00000   90.00000
LATT -1
SFAC C  
C      1  0.5772620000000  0.5052340000000  0.4835030000000 1.0
C      1  0.5087900000000  0.4217370000000  0.4862820000000 1.0
C      1  0.4173880000000  0.4851150000000  0.4794650000000 1.0
C      1  0.4854210000000  0.5742530000000  0.4770040000000 1.0
C      1  0.5811680000000  0.5148290000000  0.5119350000000 1.0
C      1  0.5062010000000  0.4259530000000  0.5151730000000 1.0
C      1  0.4244900000000  0.4828150000000  0.5126060000000 1.0
C      1  0.4833470000000  0.5735500000000  0.5112080000000 1.0
C      1  0.5040610000000  0.5322540000000  0.4699920000000 1.0
C      1  0.5232310000000  0.4952110000000  0.4695780000000 1.0
C      1  0.4937960000000  0.4782110000000  0.4709780000000 1.0
C      1  0.4600230000000  0.5083040000000  0.4863500000000 1.0
C      1  0.5099870000000  0.5380840000000  0.5230230000000 1.0
C      1  0.5394850000000  0.4922160000000  0.5273920000000 1.0
C      1  0.4956990000000  0.4742600000000  0.5310330000000 1.0
C      1  0.4722610000000  0.4986230000000  0.5344240000000 1.0
C      1  0.5287710000000  0.4736030000000  0.5524570000000 1.0
C      1  0.4722630000000  0.4621920000000  0.5499530000000 1.0
C      1  0.4719680000000  0.5238070000000  0.5471850000000 1.0
C      1  0.5288110000000  0.5251450000000  0.5473210000000 1.0
C      1  0.5285380000000  0.4657430000000  0.4555850000000 1.0
C      1  0.4726240000000  0.4939570000000  0.4513730000000 1.0
C      1  0.4759640000000  0.5207350000000  0.4440620000000 1.0
C      1  0.5271590000000  0.5320170000000  0.4548390000000 1.0
C      1  0.5956670000000  0.4879540000000  0.5144990000000 1.0
C      1  0.4795200000000  0.4190720000000  0.5241360000000 1.0
C      1  0.4139140000000  0.5129180000000  0.5223090000000 1.0
C      1  0.5101900000000  0.5926680000000  0.5168490000000 1.0
C      1  0.5867890000000  0.4773960000000  0.4806360000000 1.0
C      1  0.4843750000000  0.4130010000000  0.4738090000000 1.0
C      1  0.4077160000000  0.5115920000000  0.4906380000000 1.0
C      1  0.5129230000000  0.5821880000000  0.4859490000000 1.0
C      1  0.4774400000000  0.5475850000000  0.4647040000000 1.0
C      1  0.5524210000000  0.5121350000000  0.4652920000000 1.0
C      1  0.5192310000000  0.4432380000000  0.4716450000000 1.0
C      1  0.4449020000000  0.4878340000000  0.4682650000000 1.0
C      1  0.4810280000000  0.5458640000000  0.5310580000000 1.0
C      1  0.5570890000000  0.5204970000000  0.5289070000000 1.0
C      1  0.5179590000000  0.4498650000000  0.5306330000000 1.0
C      1  0.4500110000000  0.4744270000000  0.5315840000000 1.0
C      1  0.5339000000000  0.4600290000000  0.4945770000000 1.0
C      1  0.4641190000000  0.4617390000000  0.4734080000000 1.0
C      1  0.4538420000000  0.5376440000000  0.4826060000000 1.0
C      1  0.5477310000000  0.5362510000000  0.4888000000000 1.0
C      1  0.5500500000000  0.4601250000000  0.5235610000000 1.0
C      1  0.4474370000000  0.4590010000000  0.5031240000000 1.0
C      1  0.4556070000000  0.5546830000000  0.5113960000000 1.0
C      1  0.5415950000000  0.5493060000000  0.5196190000000 1.0
C      1  0.5388330000000  0.5810330000000  0.5159290000000 1.0
C      1  0.5813720000000  0.4618610000000  0.5167830000000 1.0
C      1  0.4569680000000  0.4283470000000  0.5095330000000 1.0
C      1  0.4270130000000  0.5391370000000  0.5118930000000 1.0
C      1  0.5413020000000  0.5686520000000  0.4850870000000 1.0
C      1  0.5670160000000  0.4553460000000  0.4883030000000 1.0
C      1  0.4626230000000  0.4301210000000  0.4802590000000 1.0
C      1  0.4205690000000  0.5379500000000  0.4798300000000 1.0
C      1  0.5337720000000  0.5066460000000  0.4998120000000 1.0
C      1  0.5078320000000  0.4763290000000  0.5011060000000 1.0
C      1  0.4829590000000  0.4995310000000  0.5030390000000 1.0
C      1  0.5055760000000  0.5201880000000  0.4978510000000 1.0
END
