TITL C-27144-3922-164 -0.000170183215539014 125000 -325.769560974041 0 0 60 (C1) n - 1
REM
REM in /home/nfs/bkarasulu/CARBON/AIRSS/Generating-Clusters/AIREBO/Higher-Symm/Only-C60
REM
REM
REM
REM
REM
REM ./C.cell (28575a23ae977d3b5fae324c64b13b57)
REM
REM compiler GCC version 9.2.1 20190827 (Red Hat 9.2.1-1)
REM options -cpp -mtune=generic -march=x86-64 -g -O0 -fpre-include=/usr/include/finclude/math-vector-fortran.h
REM seed -1201060019 742273880 -2069384859 976651646 326171883 695483304 866916567 177870572 -1962522279 1820555392 -2078146188 760844189 1094823426 1569214485 2015897604 1188952233 1635165762 280794509 1741274077 -1988729513 -2085010641 -127141681 -1119449593 346383172 181182942 1767614904 -1117764565 1388057592 -1911213194 1493219566 -310499104 -682391957 1495259292
REM
CELL 1.54180   50.00000   50.00000   50.00000   90.00000   90.00000   90.00000
LATT -1
SFAC C  
C      1  0.4788120000000  0.4849810000000  0.4837880000000 1.0
C      1  0.4996930000000  0.5197970000000  0.4846080000000 1.0
C      1  0.5190820000000  0.4933280000000  0.4850650000000 1.0
C      1  0.4953390000000  0.5298860000000  0.4334900000000 1.0
C      1  0.5281530000000  0.4892640000000  0.4331280000000 1.0
C      1  0.4757520000000  0.4806850000000  0.4323710000000 1.0
C      1  0.4444890000000  0.5417320000000  0.5167960000000 1.0
C      1  0.5646660000000  0.5271620000000  0.5169990000000 1.0
C      1  0.4923060000000  0.4307670000000  0.5167720000000 1.0
C      1  0.5378420000000  0.5694130000000  0.5117810000000 1.0
C      1  0.5422520000000  0.4340070000000  0.5124600000000 1.0
C      1  0.4206430000000  0.4977990000000  0.5116460000000 1.0
C      1  0.4685080000000  0.5284540000000  0.5289360000000 1.0
C      1  0.5415530000000  0.5129930000000  0.5296170000000 1.0
C      1  0.4903670000000  0.4577850000000  0.5296920000000 1.0
C      1  0.5656640000000  0.4723480000000  0.5382500000000 1.0
C      1  0.4424660000000  0.4567730000000  0.5386900000000 1.0
C      1  0.4914470000000  0.5701270000000  0.5376320000000 1.0
C      1  0.5050310000000  0.5668100000000  0.5077420000000 1.0
C      1  0.5564230000000  0.4632310000000  0.5078360000000 1.0
C      1  0.4380630000000  0.4694330000000  0.5082460000000 1.0
C      1  0.5581390000000  0.5544450000000  0.5005070000000 1.0
C      1  0.5195320000000  0.4245810000000  0.5001230000000 1.0
C      1  0.4238650000000  0.5228740000000  0.5002950000000 1.0
C      1  0.4829600000000  0.4902220000000  0.5614160000000 1.0
C      1  0.5003410000000  0.5195390000000  0.5615830000000 1.0
C      1  0.5169520000000  0.4898770000000  0.5622080000000 1.0
C      1  0.4668550000000  0.4626220000000  0.5507330000000 1.0
C      1  0.4843120000000  0.5461940000000  0.5497420000000 1.0
C      1  0.5481930000000  0.4902710000000  0.5503690000000 1.0
C      1  0.4893200000000  0.4658550000000  0.4576930000000 1.0
C      1  0.4767740000000  0.5244090000000  0.4597890000000 1.0
C      1  0.5347450000000  0.5091380000000  0.4582340000000 1.0
C      1  0.4645190000000  0.4458220000000  0.4699850000000 1.0
C      1  0.4717760000000  0.5566120000000  0.4701690000000 1.0
C      1  0.5643820000000  0.4964400000000  0.4696060000000 1.0
C      1  0.4701430000000  0.4774960000000  0.5138230000000 1.0
C      1  0.4963410000000  0.5346080000000  0.5134220000000 1.0
C      1  0.5325590000000  0.4861170000000  0.5138140000000 1.0
C      1  0.4969970000000  0.5687320000000  0.4775760000000 1.0
C      1  0.5611340000000  0.4687170000000  0.4775530000000 1.0
C      1  0.4417090000000  0.4621530000000  0.4776460000000 1.0
C      1  0.5134870000000  0.4613240000000  0.4811790000000 1.0
C      1  0.4557160000000  0.5083040000000  0.4810810000000 1.0
C      1  0.5299860000000  0.5346120000000  0.4802490000000 1.0
C      1  0.5170180000000  0.4693850000000  0.5367800000000 1.0
C      1  0.4643220000000  0.4998050000000  0.5364220000000 1.0
C      1  0.5186560000000  0.5307210000000  0.5366080000000 1.0
C      1  0.4915540000000  0.4370150000000  0.4851130000000 1.0
C      1  0.4497480000000  0.5393090000000  0.4851270000000 1.0
C      1  0.5600790000000  0.5239440000000  0.4852810000000 1.0
C      1  0.5207230000000  0.5359490000000  0.4417080000000 1.0
C      1  0.5200650000000  0.4647330000000  0.4422080000000 1.0
C      1  0.4591820000000  0.5001070000000  0.4424820000000 1.0
C      1  0.5198670000000  0.5595620000000  0.4620800000000 1.0
C      1  0.5401750000000  0.4545910000000  0.4635030000000 1.0
C      1  0.4394680000000  0.4868400000000  0.4628160000000 1.0
C      1  0.5300140000000  0.5600110000000  0.5383760000000 1.0
C      1  0.5368390000000  0.4447810000000  0.5390070000000 1.0
C      1  0.4330050000000  0.4955070000000  0.5381490000000 1.0
END
