TITL C-27131-4585-45 -0.00171812871417576 125000 -295.05566344442 0 0 60 (C1) n - 1
REM
REM in /home/nfs/bkarasulu/CARBON/AIRSS/Generating-Clusters/AIREBO/Higher-Symm/Only-C60
REM
REM
REM
REM
REM
REM ./C.cell (28575a23ae977d3b5fae324c64b13b57)
REM
REM compiler GCC version 9.2.1 20190827 (Red Hat 9.2.1-1)
REM options -cpp -mtune=generic -march=x86-64 -g -O0 -fpre-include=/usr/include/finclude/math-vector-fortran.h
REM seed 778442508 -406715330 -807198900 940949889 788035392 -1455016726 -214786123 276548339 -1100478134 1392016407 687228847 2125555841 524538392 -474079803 -1716444348 2144989682 -1868869087 1409281796 -1602146954 -1992817809 344748965 -147101334 -1778577289 -440755333 -1562554073 -2109870145 -516608945 -1356242012 1080384024 1522290048 1718963353 1496185186 573978470
REM
CELL 1.54180   50.00000   50.00000   50.00000   90.00000   90.00000   90.00000
LATT -1
SFAC C  
C      1  0.5111390000000  0.5334160000000  0.5176710000000 1.0
C      1  0.4668360000000  0.4885930000000  0.5242440000000 1.0
C      1  0.5364340000000  0.4720350000000  0.5212760000000 1.0
C      1  0.4984200000000  0.5368140000000  0.4799730000000 1.0
C      1  0.4642160000000  0.4777700000000  0.4764010000000 1.0
C      1  0.5499750000000  0.4780580000000  0.4842040000000 1.0
C      1  0.4958000000000  0.4748850000000  0.4645850000000 1.0
C      1  0.5205700000000  0.5115480000000  0.4746730000000 1.0
C      1  0.4731050000000  0.5090560000000  0.4664230000000 1.0
C      1  0.4940040000000  0.4762250000000  0.5161410000000 1.0
C      1  0.5239880000000  0.5023650000000  0.5185630000000 1.0
C      1  0.4780880000000  0.5199140000000  0.5312050000000 1.0
C      1  0.5523150000000  0.5326610000000  0.4734070000000 1.0
C      1  0.4455060000000  0.5262910000000  0.4734280000000 1.0
C      1  0.5042360000000  0.4426300000000  0.4684560000000 1.0
C      1  0.5494740000000  0.5243480000000  0.5228420000000 1.0
C      1  0.4484120000000  0.5308690000000  0.5221710000000 1.0
C      1  0.4952270000000  0.4443600000000  0.5176810000000 1.0
C      1  0.5040820000000  0.5270070000000  0.4416920000000 1.0
C      1  0.4688810000000  0.4869200000000  0.4377580000000 1.0
C      1  0.5234000000000  0.4828010000000  0.4372470000000 1.0
C      1  0.5047740000000  0.5273500000000  0.5591600000000 1.0
C      1  0.4679130000000  0.4915000000000  0.5636970000000 1.0
C      1  0.5188500000000  0.4821060000000  0.5555650000000 1.0
C      1  0.4257090000000  0.5082130000000  0.5138240000000 1.0
C      1  0.5268720000000  0.4342790000000  0.5123790000000 1.0
C      1  0.5437030000000  0.5564230000000  0.5151030000000 1.0
C      1  0.4258150000000  0.5060410000000  0.4849090000000 1.0
C      1  0.5320900000000  0.4351450000000  0.4841480000000 1.0
C      1  0.5429110000000  0.5594900000000  0.4866540000000 1.0
C      1  0.4403070000000  0.4924680000000  0.4571930000000 1.0
C      1  0.5323610000000  0.4602990000000  0.4611740000000 1.0
C      1  0.5246330000000  0.5468520000000  0.4607670000000 1.0
C      1  0.4431750000000  0.5044370000000  0.5429090000000 1.0
C      1  0.5179630000000  0.4525270000000  0.5397480000000 1.0
C      1  0.5305830000000  0.5433950000000  0.5437350000000 1.0
C      1  0.4706590000000  0.4557750000000  0.4512810000000 1.0
C      1  0.5456780000000  0.4973970000000  0.4565720000000 1.0
C      1  0.4771300000000  0.5403560000000  0.4536960000000 1.0
C      1  0.4570840000000  0.4647820000000  0.5456250000000 1.0
C      1  0.5503340000000  0.4900440000000  0.5459980000000 1.0
C      1  0.4905080000000  0.5504360000000  0.5386720000000 1.0
C      1  0.5787110000000  0.4976850000000  0.4651430000000 1.0
C      1  0.4673110000000  0.5673070000000  0.4697530000000 1.0
C      1  0.4468640000000  0.4398100000000  0.4696420000000 1.0
C      1  0.5724470000000  0.4891700000000  0.5235180000000 1.0
C      1  0.4761830000000  0.5739680000000  0.5243710000000 1.0
C      1  0.4477600000000  0.4424920000000  0.5293830000000 1.0
C      1  0.4678460000000  0.5362950000000  0.4948750000000 1.0
C      1  0.5547770000000  0.5101300000000  0.4944660000000 1.0
C      1  0.4790590000000  0.4500370000000  0.4900770000000 1.0
C      1  0.5840920000000  0.4957550000000  0.4951790000000 1.0
C      1  0.4508970000000  0.4377590000000  0.5007950000000 1.0
C      1  0.4673000000000  0.5684370000000  0.4992490000000 1.0
C      1  0.5063330000000  0.5606620000000  0.5017540000000 1.0
C      1  0.5589950000000  0.4571390000000  0.5039560000000 1.0
C      1  0.4478380000000  0.4775540000000  0.5018840000000 1.0
C      1  0.4972030000000  0.5001160000000  0.5631750000000 1.0
C      1  0.5001160000000  0.4999500000000  0.4340380000000 1.0
C      1  0.5076960000000  0.4888570000000  0.4919270000000 1.0
END
