TITL C-27133-8107-197 0.00211650953715049 125000 -336.037978417641 0 0 60 (C1) n - 1
REM
REM in /home/nfs/bkarasulu/CARBON/AIRSS/Generating-Clusters/AIREBO/Higher-Symm/Only-C60
REM
REM
REM
REM
REM
REM ./C.cell (28575a23ae977d3b5fae324c64b13b57)
REM
REM compiler GCC version 9.2.1 20190827 (Red Hat 9.2.1-1)
REM options -cpp -mtune=generic -march=x86-64 -g -O0 -fpre-include=/usr/include/finclude/math-vector-fortran.h
REM seed -1766845172 289456371 1027363133 890824010 1418323030 -1719440273 1210094079 186241134 -213944787 216374600 -793265981 1164183863 1255954396 -1102180957 1667427351 -1283878620 373496377 -869890252 -1968414285 -96397481 -915249084 -1941670106 1914872358 384495058 -785675667 -154712637 -1780240304 -2008104916 -1945944648 -437148724 1021728151 1779738750 -2135834994
REM
CELL 1.54180   50.00000   50.00000   50.00000   90.00000   90.00000   90.00000
LATT -1
SFAC C  
C      1  0.5099630000000  0.4634040000000  0.4779470000000 1.0
C      1  0.4764080000000  0.5089890000000  0.4563950000000 1.0
C      1  0.4524810000000  0.4748380000000  0.5106390000000 1.0
C      1  0.4851400000000  0.5570180000000  0.4893570000000 1.0
C      1  0.4821260000000  0.4656050000000  0.5062850000000 1.0
C      1  0.5116930000000  0.5561430000000  0.5204840000000 1.0
C      1  0.5077040000000  0.4853600000000  0.4639950000000 1.0
C      1  0.5253340000000  0.5131180000000  0.5584480000000 1.0
C      1  0.4861910000000  0.4892950000000  0.5606630000000 1.0
C      1  0.5561830000000  0.5190300000000  0.5164490000000 1.0
C      1  0.5559800000000  0.4851240000000  0.4948890000000 1.0
C      1  0.4634680000000  0.5025780000000  0.4841100000000 1.0
C      1  0.5057690000000  0.4704380000000  0.5170350000000 1.0
C      1  0.4779520000000  0.5180400000000  0.5645210000000 1.0
C      1  0.4396560000000  0.4795320000000  0.4813800000000 1.0
C      1  0.4863000000000  0.5343000000000  0.5134220000000 1.0
C      1  0.4843540000000  0.4444140000000  0.4795480000000 1.0
C      1  0.5132380000000  0.5594410000000  0.4750180000000 1.0
C      1  0.5118570000000  0.4875200000000  0.5405780000000 1.0
C      1  0.5241780000000  0.5105400000000  0.4631990000000 1.0
C      1  0.4853050000000  0.4825190000000  0.4403170000000 1.0
C      1  0.5452010000000  0.5136320000000  0.4872940000000 1.0
C      1  0.5547390000000  0.4780670000000  0.5220890000000 1.0
C      1  0.4672120000000  0.5121840000000  0.5079620000000 1.0
C      1  0.5420770000000  0.5168150000000  0.4365810000000 1.0
C      1  0.4558500000000  0.5517060000000  0.5324570000000 1.0
C      1  0.5221520000000  0.4522230000000  0.5558610000000 1.0
C      1  0.4532790000000  0.4729420000000  0.4445630000000 1.0
C      1  0.4569410000000  0.5251140000000  0.5464050000000 1.0
C      1  0.5385110000000  0.4816140000000  0.5608520000000 1.0
C      1  0.5395310000000  0.4546420000000  0.5314520000000 1.0
C      1  0.5432100000000  0.5430010000000  0.4767340000000 1.0
C      1  0.4464320000000  0.4491220000000  0.4685900000000 1.0
C      1  0.4875410000000  0.5505360000000  0.5432710000000 1.0
C      1  0.4737440000000  0.4453270000000  0.4480970000000 1.0
C      1  0.5291800000000  0.5465830000000  0.4470810000000 1.0
C      1  0.5534400000000  0.5315760000000  0.5540150000000 1.0
C      1  0.4474130000000  0.5540370000000  0.4767050000000 1.0
C      1  0.5311910000000  0.4537450000000  0.4454890000000 1.0
C      1  0.4604670000000  0.4746550000000  0.5498290000000 1.0
C      1  0.4485810000000  0.5284200000000  0.4543520000000 1.0
C      1  0.5570910000000  0.4712330000000  0.4409220000000 1.0
C      1  0.5494560000000  0.4624730000000  0.4728800000000 1.0
C      1  0.5506540000000  0.5497540000000  0.5252530000000 1.0
C      1  0.4523080000000  0.4443830000000  0.5222080000000 1.0
C      1  0.4757380000000  0.5487050000000  0.4586680000000 1.0
C      1  0.4659380000000  0.4444420000000  0.5485040000000 1.0
C      1  0.5267920000000  0.5520790000000  0.5503450000000 1.0
C      1  0.5573240000000  0.4963640000000  0.4286120000000 1.0
C      1  0.4484630000000  0.4987790000000  0.5318270000000 1.0
C      1  0.5308010000000  0.4546950000000  0.5002490000000 1.0
C      1  0.4551640000000  0.5581050000000  0.5055900000000 1.0
C      1  0.4943630000000  0.4561490000000  0.5593150000000 1.0
C      1  0.5002840000000  0.5309260000000  0.4501700000000 1.0
C      1  0.4373290000000  0.4994620000000  0.4541080000000 1.0
C      1  0.4570280000000  0.4331700000000  0.4958460000000 1.0
C      1  0.5045130000000  0.4544900000000  0.4389390000000 1.0
C      1  0.5602650000000  0.5004840000000  0.5437430000000 1.0
C      1  0.5354110000000  0.5647070000000  0.5002500000000 1.0
C      1  0.5031050000000  0.5364160000000  0.5682100000000 1.0
END
