TITL C-27145-253-169 -0.00156589241834868 125000 -369.670652990213 0 0 60 (C1) n - 1
REM
REM in /home/nfs/bkarasulu/CARBON/AIRSS/Generating-Clusters/AIREBO/Higher-Symm/Only-C60
REM
REM
REM
REM
REM
REM ./C.cell (28575a23ae977d3b5fae324c64b13b57)
REM
REM compiler GCC version 9.2.1 20190827 (Red Hat 9.2.1-1)
REM options -cpp -mtune=generic -march=x86-64 -g -O0 -fpre-include=/usr/include/finclude/math-vector-fortran.h
REM seed 1153798408 -1424879026 -1066108376 -372113133 -1792695297 768619381 418824052 1596913845 -196799280 183236427 292714923 -934721871 -1372233247 -1674507 427356843 -2115863408 250265665 -2100962812 99280996 -1272944160 2029118715 -26307204 -2073457223 836894496 678761382 159305982 -1096497106 1348618013 461101273 43463308 1257123985 -1198474119 -1104043343
REM
CELL 1.54180   50.00000   50.00000   50.00000   90.00000   90.00000   90.00000
LATT -1
SFAC C  
C      1  0.4640510000000  0.5847180000000  0.5179940000000 1.0
C      1  0.5680430000000  0.5169200000000  0.4648900000000 1.0
C      1  0.5134850000000  0.4642630000000  0.5643010000000 1.0
C      1  0.5332310000000  0.5620680000000  0.4860140000000 1.0
C      1  0.5366690000000  0.4354090000000  0.5127480000000 1.0
C      1  0.4633210000000  0.4353820000000  0.4781160000000 1.0
C      1  0.4394440000000  0.5124130000000  0.5357290000000 1.0
C      1  0.4225330000000  0.4930100000000  0.4649110000000 1.0
C      1  0.5650160000000  0.4888500000000  0.5360920000000 1.0
C      1  0.4873890000000  0.4645010000000  0.4387040000000 1.0
C      1  0.4789620000000  0.5346730000000  0.5662280000000 1.0
C      1  0.5167020000000  0.5296930000000  0.4309200000000 1.0
C      1  0.5144270000000  0.5618870000000  0.4648800000000 1.0
C      1  0.4587030000000  0.5197300000000  0.5790070000000 1.0
C      1  0.5686140000000  0.4701860000000  0.5149870000000 1.0
C      1  0.4873440000000  0.5695140000000  0.5327340000000 1.0
C      1  0.5151400000000  0.4311490000000  0.5308000000000 1.0
C      1  0.4773640000000  0.4216020000000  0.4578570000000 1.0
C      1  0.5380480000000  0.5090450000000  0.4301480000000 1.0
C      1  0.4640680000000  0.4806830000000  0.4393760000000 1.0
C      1  0.5310580000000  0.4861950000000  0.5685650000000 1.0
C      1  0.4314980000000  0.4715220000000  0.4862500000000 1.0
C      1  0.5762940000000  0.5418890000000  0.4745580000000 1.0
C      1  0.4416190000000  0.5360290000000  0.5199360000000 1.0
C      1  0.5252670000000  0.5094830000000  0.5515650000000 1.0
C      1  0.4984730000000  0.5436120000000  0.5198770000000 1.0
C      1  0.5388140000000  0.5198290000000  0.5061580000000 1.0
C      1  0.4679340000000  0.5052980000000  0.4526780000000 1.0
C      1  0.4822260000000  0.4936770000000  0.5390790000000 1.0
C      1  0.5204400000000  0.5000200000000  0.4572360000000 1.0
C      1  0.4929120000000  0.5442390000000  0.4705820000000 1.0
C      1  0.4919240000000  0.4481640000000  0.5249890000000 1.0
C      1  0.5064340000000  0.4607010000000  0.4815870000000 1.0
C      1  0.4549960000000  0.5310410000000  0.4955530000000 1.0
C      1  0.4584300000000  0.4805470000000  0.5001730000000 1.0
C      1  0.5513450000000  0.4751940000000  0.4920500000000 1.0
C      1  0.5447960000000  0.5089390000000  0.5306550000000 1.0
C      1  0.5261630000000  0.5442390000000  0.5066660000000 1.0
C      1  0.4970020000000  0.5203030000000  0.5447690000000 1.0
C      1  0.4508980000000  0.5056540000000  0.4791880000000 1.0
C      1  0.5448880000000  0.5031740000000  0.4807730000000 1.0
C      1  0.4577270000000  0.4928540000000  0.5271730000000 1.0
C      1  0.4807760000000  0.5404620000000  0.4946850000000 1.0
C      1  0.5308720000000  0.4554220000000  0.4926910000000 1.0
C      1  0.4798490000000  0.4548970000000  0.4967390000000 1.0
C      1  0.4938460000000  0.5197770000000  0.4522890000000 1.0
C      1  0.5068830000000  0.4729900000000  0.4571290000000 1.0
C      1  0.4933850000000  0.4693770000000  0.5442340000000 1.0
C      1  0.5639940000000  0.4417500000000  0.5212590000000 1.0
C      1  0.4360600000000  0.5138110000000  0.5638850000000 1.0
C      1  0.4485290000000  0.5606340000000  0.5330550000000 1.0
C      1  0.5652350000000  0.5112510000000  0.4372290000000 1.0
C      1  0.5596280000000  0.4808310000000  0.5637190000000 1.0
C      1  0.4383610000000  0.4696960000000  0.4471880000000 1.0
C      1  0.5212320000000  0.4365140000000  0.5591640000000 1.0
C      1  0.4851500000000  0.4363610000000  0.4355680000000 1.0
C      1  0.5221410000000  0.5572400000000  0.4375170000000 1.0
C      1  0.4708100000000  0.5598410000000  0.5567330000000 1.0
C      1  0.5608680000000  0.5640370000000  0.4803120000000 1.0
C      1  0.4386880000000  0.4468060000000  0.4701080000000 1.0
END
