TITL C-27140-5627-176 0.000449013630068773 125000 -312.156063147446 0 0 60 (C1) n - 1
REM
REM in /home/nfs/bkarasulu/CARBON/AIRSS/Generating-Clusters/AIREBO/Higher-Symm/Only-C60
REM
REM
REM
REM
REM
REM ./C.cell (28575a23ae977d3b5fae324c64b13b57)
REM
REM compiler GCC version 9.2.1 20190827 (Red Hat 9.2.1-1)
REM options -cpp -mtune=generic -march=x86-64 -g -O0 -fpre-include=/usr/include/finclude/math-vector-fortran.h
REM seed 2115773085 -1041213602 1481239901 2065924211 1287732009 -1812110304 -2023519989 618592292 -537849198 37443984 1792196094 -1721463888 -166715815 -710095099 1039609792 -2096094224 -1496956510 -1949788465 905507686 2079419918 981101215 -820880845 -1520566831 -712041512 -313906037 737239009 1461435545 -1059468827 1533027518 -370505886 1221306052 1933167578 -1933863104
REM
CELL 1.54180   50.00000   50.00000   50.00000   90.00000   90.00000   90.00000
LATT -1
SFAC C  
C      1  0.4552140000000  0.4842460000000  0.4522410000000 1.0
C      1  0.4530280000000  0.5127040000000  0.5467970000000 1.0
C      1  0.4546930000000  0.5120290000000  0.4520470000000 1.0
C      1  0.4528410000000  0.4847780000000  0.5478080000000 1.0
C      1  0.5138910000000  0.5564240000000  0.5141870000000 1.0
C      1  0.5157480000000  0.4462510000000  0.4865230000000 1.0
C      1  0.5128450000000  0.4452260000000  0.5117250000000 1.0
C      1  0.5102790000000  0.5561770000000  0.4889580000000 1.0
C      1  0.5611960000000  0.4556050000000  0.4858260000000 1.0
C      1  0.5711950000000  0.5434270000000  0.5135280000000 1.0
C      1  0.5722830000000  0.5378550000000  0.4891410000000 1.0
C      1  0.5656700000000  0.4607150000000  0.5098490000000 1.0
C      1  0.4707710000000  0.4752710000000  0.5678180000000 1.0
C      1  0.4709300000000  0.5230700000000  0.4316270000000 1.0
C      1  0.4692760000000  0.5236570000000  0.5674340000000 1.0
C      1  0.4746860000000  0.4735850000000  0.4346040000000 1.0
C      1  0.4848810000000  0.4393530000000  0.5466990000000 1.0
C      1  0.4833030000000  0.5602540000000  0.4537320000000 1.0
C      1  0.4805770000000  0.5603690000000  0.5464830000000 1.0
C      1  0.4798140000000  0.4386990000000  0.4534430000000 1.0
C      1  0.4940330000000  0.5153000000000  0.4780750000000 1.0
C      1  0.4910820000000  0.4835080000000  0.5221330000000 1.0
C      1  0.4881420000000  0.4824940000000  0.4767970000000 1.0
C      1  0.4948980000000  0.5166350000000  0.5221790000000 1.0
C      1  0.4619790000000  0.5262600000000  0.4820600000000 1.0
C      1  0.4600010000000  0.4703560000000  0.5178610000000 1.0
C      1  0.4568740000000  0.4708890000000  0.4834640000000 1.0
C      1  0.4623040000000  0.5258060000000  0.5168210000000 1.0
C      1  0.4624790000000  0.5562350000000  0.5288760000000 1.0
C      1  0.4605080000000  0.4408980000000  0.4701390000000 1.0
C      1  0.4649940000000  0.4408750000000  0.5306300000000 1.0
C      1  0.4638370000000  0.5565670000000  0.4699110000000 1.0
C      1  0.5067820000000  0.5404480000000  0.5433690000000 1.0
C      1  0.5045020000000  0.4598270000000  0.4574190000000 1.0
C      1  0.5095110000000  0.4620970000000  0.5410770000000 1.0
C      1  0.5090310000000  0.5394320000000  0.4593680000000 1.0
C      1  0.5379290000000  0.4603470000000  0.5586920000000 1.0
C      1  0.5384740000000  0.5414260000000  0.4435110000000 1.0
C      1  0.5360410000000  0.5420710000000  0.5606180000000 1.0
C      1  0.5323280000000  0.4587840000000  0.4378970000000 1.0
C      1  0.5239240000000  0.4885680000000  0.5149330000000 1.0
C      1  0.5270770000000  0.5163670000000  0.4864310000000 1.0
C      1  0.5285350000000  0.5194040000000  0.5175730000000 1.0
C      1  0.5209170000000  0.4858120000000  0.4826800000000 1.0
C      1  0.4982820000000  0.5161480000000  0.4370270000000 1.0
C      1  0.4976060000000  0.4855540000000  0.5626450000000 1.0
C      1  0.5013730000000  0.4874390000000  0.4377840000000 1.0
C      1  0.4969750000000  0.5147850000000  0.5634280000000 1.0
C      1  0.5540330000000  0.4882490000000  0.5580370000000 1.0
C      1  0.5537470000000  0.5126320000000  0.4415310000000 1.0
C      1  0.5545460000000  0.5149820000000  0.5603430000000 1.0
C      1  0.5506400000000  0.4859450000000  0.4402560000000 1.0
C      1  0.5417590000000  0.4703040000000  0.4679680000000 1.0
C      1  0.5505940000000  0.5321570000000  0.5324530000000 1.0
C      1  0.5501530000000  0.5275470000000  0.4711900000000 1.0
C      1  0.5459300000000  0.4734370000000  0.5288880000000 1.0
C      1  0.4266300000000  0.4864110000000  0.4842570000000 1.0
C      1  0.4308200000000  0.5135520000000  0.5129820000000 1.0
C      1  0.4290780000000  0.5176540000000  0.4821150000000 1.0
C      1  0.4285280000000  0.4831040000000  0.5161110000000 1.0
END
