TITL C-27142-7278-152 0.000277230423445979 125000 -328.526205167942 0 0 60 (C1) n - 1
REM
REM in /home/nfs/bkarasulu/CARBON/AIRSS/Generating-Clusters/AIREBO/Higher-Symm/Only-C60
REM
REM
REM
REM
REM
REM ./C.cell (28575a23ae977d3b5fae324c64b13b57)
REM
REM compiler GCC version 9.2.1 20190827 (Red Hat 9.2.1-1)
REM options -cpp -mtune=generic -march=x86-64 -g -O0 -fpre-include=/usr/include/finclude/math-vector-fortran.h
REM seed -1465698243 1946181745 -426046518 -1880562318 -892979891 -1981602086 -1830508082 642854666 -1292329989 -1972357459 929898821 -761772844 1493740959 -729836532 -501444591 -523501117 -311733648 -2105796581 -196200613 1047782559 -1204103022 -2036563676 1772561160 -1120769209 -870047154 845904867 -1241458516 843619065 1974350085 -382109899 -1144248809 165219634 -190881308
REM
CELL 1.54180   50.00000   50.00000   50.00000   90.00000   90.00000   90.00000
LATT -1
SFAC C  
C      1  0.5032370000000  0.5123720000000  0.5201610000000 1.0
C      1  0.5069370000000  0.4785410000000  0.5169760000000 1.0
C      1  0.5072580000000  0.4729080000000  0.4859030000000 1.0
C      1  0.5059920000000  0.5010310000000  0.4717360000000 1.0
C      1  0.5011290000000  0.5241610000000  0.4899520000000 1.0
C      1  0.4928960000000  0.5354560000000  0.5606120000000 1.0
C      1  0.4970920000000  0.4615890000000  0.5685310000000 1.0
C      1  0.5154150000000  0.4268360000000  0.4934210000000 1.0
C      1  0.5164290000000  0.4759690000000  0.4428410000000 1.0
C      1  0.5082850000000  0.5590640000000  0.4607010000000 1.0
C      1  0.5369420000000  0.4362380000000  0.4726040000000 1.0
C      1  0.5358460000000  0.5251600000000  0.4321930000000 1.0
C      1  0.5262180000000  0.5689910000000  0.4837290000000 1.0
C      1  0.5169170000000  0.5177200000000  0.5715440000000 1.0
C      1  0.5393890000000  0.4384430000000  0.5329320000000 1.0
C      1  0.5274560000000  0.4517480000000  0.4460890000000 1.0
C      1  0.5214140000000  0.5484340000000  0.4382990000000 1.0
C      1  0.5269300000000  0.5960670000000  0.4895470000000 1.0
C      1  0.5092700000000  0.4867560000000  0.5837070000000 1.0
C      1  0.5271050000000  0.4180680000000  0.5175960000000 1.0
C      1  0.4302150000000  0.5493010000000  0.4873100000000 1.0
C      1  0.4468100000000  0.5365010000000  0.5461550000000 1.0
C      1  0.4482830000000  0.4628490000000  0.5445840000000 1.0
C      1  0.4364240000000  0.4573610000000  0.4784270000000 1.0
C      1  0.4406040000000  0.5576340000000  0.4440670000000 1.0
C      1  0.5388410000000  0.4680440000000  0.4807660000000 1.0
C      1  0.5330760000000  0.5027820000000  0.4515690000000 1.0
C      1  0.5210180000000  0.5456750000000  0.5079190000000 1.0
C      1  0.5234950000000  0.5021880000000  0.5439580000000 1.0
C      1  0.5344960000000  0.4641660000000  0.5227420000000 1.0
C      1  0.4522460000000  0.4696830000000  0.5054580000000 1.0
C      1  0.4463520000000  0.4898790000000  0.4783840000000 1.0
C      1  0.4420550000000  0.5180030000000  0.4837810000000 1.0
C      1  0.4454040000000  0.5223620000000  0.5148390000000 1.0
C      1  0.4467510000000  0.4928960000000  0.5287420000000 1.0
C      1  0.4669660000000  0.5226170000000  0.5617390000000 1.0
C      1  0.4754890000000  0.4494800000000  0.5463570000000 1.0
C      1  0.4451910000000  0.4490450000000  0.4509690000000 1.0
C      1  0.4510310000000  0.5326790000000  0.4305860000000 1.0
C      1  0.4436020000000  0.5646730000000  0.5025630000000 1.0
C      1  0.5525420000000  0.5227740000000  0.4106230000000 1.0
C      1  0.5537190000000  0.5525650000000  0.4819480000000 1.0
C      1  0.5432700000000  0.5339500000000  0.5574580000000 1.0
C      1  0.5552760000000  0.4333840000000  0.5540350000000 1.0
C      1  0.5585380000000  0.4190060000000  0.4692650000000 1.0
C      1  0.4946640000000  0.4843770000000  0.5468250000000 1.0
C      1  0.4951390000000  0.4460680000000  0.4970810000000 1.0
C      1  0.4881050000000  0.4802770000000  0.4515830000000 1.0
C      1  0.4868770000000  0.5433990000000  0.4711020000000 1.0
C      1  0.4935450000000  0.5438460000000  0.5278770000000 1.0
C      1  0.4593500000000  0.5365310000000  0.4633280000000 1.0
C      1  0.4641450000000  0.5498880000000  0.5217170000000 1.0
C      1  0.4685160000000  0.4971360000000  0.5503710000000 1.0
C      1  0.4747120000000  0.4510110000000  0.5155360000000 1.0
C      1  0.4621350000000  0.4751450000000  0.4538090000000 1.0
C      1  0.5522880000000  0.4984200000000  0.5321790000000 1.0
C      1  0.5573200000000  0.4802830000000  0.5064170000000 1.0
C      1  0.5502450000000  0.5005020000000  0.4802420000000 1.0
C      1  0.5539500000000  0.5279170000000  0.4938650000000 1.0
C      1  0.5451600000000  0.5301500000000  0.5247500000000 1.0
END
