TITL C-27137-4574-85 0.000112138615292345 125000 -318.187405443562 0 0 60 (C1) n - 1
REM
REM in /home/nfs/bkarasulu/CARBON/AIRSS/Generating-Clusters/AIREBO/Higher-Symm/Only-C60
REM
REM
REM
REM
REM
REM ./C.cell (28575a23ae977d3b5fae324c64b13b57)
REM
REM compiler GCC version 9.2.1 20190827 (Red Hat 9.2.1-1)
REM options -cpp -mtune=generic -march=x86-64 -g -O0 -fpre-include=/usr/include/finclude/math-vector-fortran.h
REM seed -872979926 -951592348 -1918994227 -270472732 961545631 782956308 -1672165299 -1429726989 -1606674143 312781973 1022245433 -641128159 1399885293 522317144 -1075607044 -48240957 -2146164531 1875647704 2055795560 -1271021253 -2116354100 1048571831 -732006326 96825971 1024909898 -1861735825 1808153511 -1543019087 -486245457 469399723 -1069737205 -1652705907 932919188
REM
CELL 1.54180   50.00000   50.00000   50.00000   90.00000   90.00000   90.00000
LATT -1
SFAC C  
C      1  0.5181920000000  0.5515950000000  0.4952770000000 1.0
C      1  0.5507220000000  0.4957130000000  0.5123820000000 1.0
C      1  0.5154660000000  0.4489720000000  0.5061780000000 1.0
C      1  0.4571500000000  0.4682280000000  0.4997490000000 1.0
C      1  0.4601150000000  0.5309680000000  0.5092070000000 1.0
C      1  0.4485690000000  0.5255630000000  0.4545960000000 1.0
C      1  0.4910520000000  0.5597660000000  0.4605900000000 1.0
C      1  0.5566900000000  0.5199170000000  0.4391900000000 1.0
C      1  0.5449910000000  0.4749310000000  0.4492080000000 1.0
C      1  0.4694610000000  0.4458630000000  0.4555220000000 1.0
C      1  0.4680560000000  0.5479620000000  0.5351500000000 1.0
C      1  0.5259930000000  0.5426380000000  0.5223640000000 1.0
C      1  0.5567880000000  0.4855560000000  0.5446640000000 1.0
C      1  0.4956140000000  0.4471850000000  0.5307610000000 1.0
C      1  0.4500420000000  0.4832820000000  0.5266490000000 1.0
C      1  0.4369900000000  0.5124770000000  0.5243390000000 1.0
C      1  0.4956390000000  0.5655060000000  0.5348390000000 1.0
C      1  0.5619650000000  0.5169190000000  0.5364650000000 1.0
C      1  0.5365390000000  0.4436020000000  0.5323150000000 1.0
C      1  0.4641090000000  0.4460080000000  0.5247120000000 1.0
C      1  0.4764420000000  0.5045850000000  0.5713570000000 1.0
C      1  0.4971580000000  0.5311410000000  0.5761080000000 1.0
C      1  0.5242690000000  0.5252530000000  0.5697110000000 1.0
C      1  0.5164350000000  0.4682530000000  0.5712240000000 1.0
C      1  0.4859700000000  0.4748740000000  0.5749510000000 1.0
C      1  0.5436650000000  0.5357450000000  0.5467090000000 1.0
C      1  0.5398800000000  0.4611460000000  0.5526320000000 1.0
C      1  0.4741000000000  0.4564750000000  0.5554800000000 1.0
C      1  0.4478330000000  0.5027330000000  0.5548690000000 1.0
C      1  0.4861140000000  0.5545090000000  0.5635420000000 1.0
C      1  0.5431220000000  0.5321400000000  0.4596820000000 1.0
C      1  0.5524600000000  0.4834810000000  0.4745900000000 1.0
C      1  0.4864780000000  0.4417870000000  0.4742870000000 1.0
C      1  0.4472270000000  0.5013920000000  0.4673940000000 1.0
C      1  0.4781120000000  0.5513900000000  0.4806870000000 1.0
C      1  0.5051650000000  0.4692770000000  0.4814830000000 1.0
C      1  0.4758340000000  0.4861100000000  0.4776350000000 1.0
C      1  0.4824220000000  0.5182610000000  0.4868940000000 1.0
C      1  0.5134660000000  0.5249550000000  0.4746980000000 1.0
C      1  0.5254960000000  0.4962140000000  0.4887950000000 1.0
C      1  0.4690830000000  0.5347140000000  0.4385020000000 1.0
C      1  0.5026760000000  0.5349270000000  0.4440110000000 1.0
C      1  0.5471330000000  0.4951470000000  0.4290730000000 1.0
C      1  0.5182150000000  0.4654970000000  0.4502980000000 1.0
C      1  0.4712970000000  0.4743070000000  0.4460570000000 1.0
C      1  0.4811200000000  0.5200100000000  0.5414120000000 1.0
C      1  0.5097870000000  0.5202420000000  0.5328910000000 1.0
C      1  0.5275920000000  0.4989640000000  0.5483610000000 1.0
C      1  0.5051790000000  0.4763980000000  0.5401820000000 1.0
C      1  0.4793380000000  0.4901200000000  0.5343320000000 1.0
C      1  0.4285450000000  0.5342880000000  0.5000980000000 1.0
C      1  0.5046340000000  0.5740640000000  0.5099760000000 1.0
C      1  0.5755340000000  0.4861200000000  0.4918300000000 1.0
C      1  0.5392610000000  0.4245730000000  0.5074050000000 1.0
C      1  0.4462990000000  0.4374760000000  0.4971820000000 1.0
C      1  0.5095860000000  0.5216410000000  0.4146860000000 1.0
C      1  0.5224260000000  0.4965220000000  0.4151140000000 1.0
C      1  0.5023750000000  0.4748260000000  0.4261150000000 1.0
C      1  0.4745480000000  0.4900420000000  0.4191710000000 1.0
C      1  0.4795790000000  0.5177500000000  0.4164170000000 1.0
END
