TITL C-27135-6010-185 0.000405872783573716 125000 -310.742274240497 0 0 60 (C1) n - 1
REM
REM in /home/nfs/bkarasulu/CARBON/AIRSS/Generating-Clusters/AIREBO/Higher-Symm/Only-C60
REM
REM
REM
REM
REM
REM ./C.cell (28575a23ae977d3b5fae324c64b13b57)
REM
REM compiler GCC version 9.2.1 20190827 (Red Hat 9.2.1-1)
REM options -cpp -mtune=generic -march=x86-64 -g -O0 -fpre-include=/usr/include/finclude/math-vector-fortran.h
REM seed -1119973512 -1302628252 582840050 -163410986 -300455270 1988374278 -1939148280 -1718276823 20865484 -94427857 1734811580 1373202170 222110976 662817610 1507497623 2135426222 2028433396 -207534703 -845227064 1580856909 1901798494 -2086511072 414789342 -600526268 -2038392120 171833545 1195920304 139770225 1297260053 1445591760 740493265 -489088197 -640411997
REM
CELL 1.54180   50.00000   50.00000   50.00000   90.00000   90.00000   90.00000
LATT -1
SFAC C  
C      1  0.4234670000000  0.5406610000000  0.4754160000000 1.0
C      1  0.5790870000000  0.4722340000000  0.4776370000000 1.0
C      1  0.4284030000000  0.5380300000000  0.5091700000000 1.0
C      1  0.5752910000000  0.4679350000000  0.5100490000000 1.0
C      1  0.5532190000000  0.5001110000000  0.5187050000000 1.0
C      1  0.4557320000000  0.4928770000000  0.5156150000000 1.0
C      1  0.5511440000000  0.5152130000000  0.4888250000000 1.0
C      1  0.4442670000000  0.4922200000000  0.4846880000000 1.0
C      1  0.4858970000000  0.4393020000000  0.5134300000000 1.0
C      1  0.5216630000000  0.5684300000000  0.5208280000000 1.0
C      1  0.4786170000000  0.4272220000000  0.4824890000000 1.0
C      1  0.5156620000000  0.5619690000000  0.4879890000000 1.0
C      1  0.4830100000000  0.4726200000000  0.5142000000000 1.0
C      1  0.5214460000000  0.5118760000000  0.5153420000000 1.0
C      1  0.4771470000000  0.4833790000000  0.4854110000000 1.0
C      1  0.5197120000000  0.5282020000000  0.4884300000000 1.0
C      1  0.4513320000000  0.4450910000000  0.5199520000000 1.0
C      1  0.5449500000000  0.5502780000000  0.5125450000000 1.0
C      1  0.4542290000000  0.4443200000000  0.4895350000000 1.0
C      1  0.5491290000000  0.5541350000000  0.4812560000000 1.0
C      1  0.5163280000000  0.5170710000000  0.4269880000000 1.0
C      1  0.4801350000000  0.4738420000000  0.4332000000000 1.0
C      1  0.5171750000000  0.5232560000000  0.5685420000000 1.0
C      1  0.4796530000000  0.4782930000000  0.5717090000000 1.0
C      1  0.5080830000000  0.5560680000000  0.4553670000000 1.0
C      1  0.5009320000000  0.4337980000000  0.4580240000000 1.0
C      1  0.4984850000000  0.5646900000000  0.5448760000000 1.0
C      1  0.4935990000000  0.4356570000000  0.5463500000000 1.0
C      1  0.4528890000000  0.5308630000000  0.4794030000000 1.0
C      1  0.5481590000000  0.4700980000000  0.4812320000000 1.0
C      1  0.4587340000000  0.5247630000000  0.5120440000000 1.0
C      1  0.5424250000000  0.4681110000000  0.5147640000000 1.0
C      1  0.5054860000000  0.5942330000000  0.5361830000000 1.0
C      1  0.5159150000000  0.4313380000000  0.5076320000000 1.0
C      1  0.4998270000000  0.5886190000000  0.4863400000000 1.0
C      1  0.4970490000000  0.4034120000000  0.4667190000000 1.0
C      1  0.5051820000000  0.4626000000000  0.5592830000000 1.0
C      1  0.4915040000000  0.5386110000000  0.5554590000000 1.0
C      1  0.5056530000000  0.4604830000000  0.4476490000000 1.0
C      1  0.4907970000000  0.5326610000000  0.4400030000000 1.0
C      1  0.5358570000000  0.5089940000000  0.4443690000000 1.0
C      1  0.4609160000000  0.4852940000000  0.4492070000000 1.0
C      1  0.5364210000000  0.5116430000000  0.5528720000000 1.0
C      1  0.4606460000000  0.4886960000000  0.5549370000000 1.0
C      1  0.5807280000000  0.5015820000000  0.4898710000000 1.0
C      1  0.4197660000000  0.5089750000000  0.4835190000000 1.0
C      1  0.5871540000000  0.4956170000000  0.5218730000000 1.0
C      1  0.4047030000000  0.5162620000000  0.5104540000000 1.0
C      1  0.5306920000000  0.4800890000000  0.4588180000000 1.0
C      1  0.4694580000000  0.5147490000000  0.4596860000000 1.0
C      1  0.5311930000000  0.4792530000000  0.5446580000000 1.0
C      1  0.4662700000000  0.5184800000000  0.5443350000000 1.0
C      1  0.5003880000000  0.4839200000000  0.5346010000000 1.0
C      1  0.4981490000000  0.5143940000000  0.5345370000000 1.0
C      1  0.4994620000000  0.4870200000000  0.4675910000000 1.0
C      1  0.5024320000000  0.5175530000000  0.4674950000000 1.0
C      1  0.4476320000000  0.4690180000000  0.5347710000000 1.0
C      1  0.5518640000000  0.5312030000000  0.5324010000000 1.0
C      1  0.4465850000000  0.4637300000000  0.4701860000000 1.0
C      1  0.5482690000000  0.5289550000000  0.4605450000000 1.0
END
