TITL C-27130-3996-132 -0.000596520051968195 125000 -303.788258085827 0 0 60 (C1) n - 1
REM
REM in /home/nfs/bkarasulu/CARBON/AIRSS/Generating-Clusters/AIREBO/Higher-Symm/Only-C60
REM
REM
REM
REM
REM
REM ./C.cell (28575a23ae977d3b5fae324c64b13b57)
REM
REM compiler GCC version 9.2.1 20190827 (Red Hat 9.2.1-1)
REM options -cpp -mtune=generic -march=x86-64 -g -O0 -fpre-include=/usr/include/finclude/math-vector-fortran.h
REM seed 1524773008 268216416 -1928216632 -698352251 -1220899593 -194019063 -527787476 1717273955 -360502357 847013918 1140443706 1490894780 -846384688 -658492975 -2078383488 -438089187 -454131122 -1718606470 -1098775089 -1150081629 -1950412191 -893739269 837495057 -190855667 1550680000 1839100881 -2138414567 1560251085 600060222 682776174 -2054828136 2062199060 -1220359752
REM
CELL 1.54180   50.00000   50.00000   50.00000   90.00000   90.00000   90.00000
LATT -1
SFAC C  
C      1  0.5252230000000  0.4363940000000  0.4354380000000 1.0
C      1  0.5108870000000  0.5433040000000  0.4324980000000 1.0
C      1  0.5140860000000  0.5716970000000  0.5439730000000 1.0
C      1  0.5242420000000  0.4313420000000  0.5527400000000 1.0
C      1  0.5149230000000  0.5482170000000  0.4060180000000 1.0
C      1  0.5180840000000  0.5975740000000  0.5515540000000 1.0
C      1  0.5259900000000  0.4536940000000  0.5698530000000 1.0
C      1  0.5249300000000  0.4225060000000  0.4600700000000 1.0
C      1  0.4764660000000  0.5042760000000  0.5255310000000 1.0
C      1  0.4798020000000  0.4806970000000  0.5020590000000 1.0
C      1  0.4834270000000  0.4985070000000  0.4752540000000 1.0
C      1  0.4826710000000  0.5225690000000  0.4983590000000 1.0
C      1  0.5375270000000  0.4352270000000  0.4860360000000 1.0
C      1  0.5357290000000  0.5128510000000  0.4394420000000 1.0
C      1  0.5480950000000  0.5623940000000  0.5132890000000 1.0
C      1  0.5365600000000  0.4823440000000  0.5618030000000 1.0
C      1  0.4637730000000  0.4561010000000  0.5389370000000 1.0
C      1  0.4679940000000  0.4612440000000  0.4565440000000 1.0
C      1  0.4659590000000  0.5485400000000  0.4638230000000 1.0
C      1  0.4657650000000  0.5278760000000  0.5558890000000 1.0
C      1  0.5126310000000  0.5617290000000  0.4550310000000 1.0
C      1  0.5073850000000  0.5502800000000  0.5591000000000 1.0
C      1  0.5082220000000  0.4351810000000  0.5312620000000 1.0
C      1  0.5143400000000  0.4618710000000  0.4374350000000 1.0
C      1  0.5520700000000  0.5081100000000  0.4625240000000 1.0
C      1  0.5574640000000  0.5355550000000  0.5100790000000 1.0
C      1  0.5513880000000  0.4904770000000  0.5394490000000 1.0
C      1  0.5551350000000  0.4562940000000  0.4919530000000 1.0
C      1  0.4968150000000  0.5358530000000  0.4704150000000 1.0
C      1  0.4944700000000  0.5271410000000  0.5431170000000 1.0
C      1  0.4946690000000  0.4662960000000  0.5290550000000 1.0
C      1  0.4992730000000  0.4695840000000  0.4669500000000 1.0
C      1  0.5150170000000  0.5168370000000  0.5211500000000 1.0
C      1  0.5192550000000  0.4853900000000  0.5162560000000 1.0
C      1  0.5230410000000  0.4791760000000  0.4861230000000 1.0
C      1  0.5205560000000  0.5362070000000  0.4947650000000 1.0
C      1  0.4434200000000  0.5024640000000  0.5525720000000 1.0
C      1  0.4499870000000  0.4350150000000  0.5080190000000 1.0
C      1  0.4480120000000  0.4899690000000  0.4374810000000 1.0
C      1  0.4553240000000  0.5667780000000  0.4975550000000 1.0
C      1  0.5030680000000  0.5137850000000  0.4440940000000 1.0
C      1  0.5156450000000  0.5632690000000  0.5147920000000 1.0
C      1  0.5031700000000  0.4764550000000  0.5603710000000 1.0
C      1  0.5039780000000  0.4387470000000  0.4804890000000 1.0
C      1  0.4341980000000  0.5335660000000  0.5442920000000 1.0
C      1  0.4362790000000  0.4486680000000  0.5299820000000 1.0
C      1  0.4370690000000  0.4659260000000  0.4520670000000 1.0
C      1  0.4377340000000  0.5489530000000  0.4793080000000 1.0
C      1  0.5462900000000  0.5165340000000  0.5290100000000 1.0
C      1  0.5499730000000  0.4707990000000  0.5166520000000 1.0
C      1  0.5500710000000  0.4822340000000  0.4738240000000 1.0
C      1  0.5504840000000  0.5280610000000  0.4817820000000 1.0
C      1  0.4745390000000  0.4889770000000  0.5550570000000 1.0
C      1  0.4754100000000  0.4501780000000  0.4923710000000 1.0
C      1  0.4695150000000  0.5132650000000  0.4495690000000 1.0
C      1  0.4869760000000  0.5559430000000  0.5034290000000 1.0
C      1  0.4808550000000  0.4301980000000  0.5190120000000 1.0
C      1  0.4806850000000  0.4844630000000  0.4351140000000 1.0
C      1  0.4794970000000  0.5761910000000  0.4770010000000 1.0
C      1  0.4639600000000  0.5062260000000  0.5823840000000 1.0
END
