TITL C-27140-5627-11 -0.000438551575371935 125000 -314.229192401254 0 0 60 (C1) n - 1
REM
REM in /home/nfs/bkarasulu/CARBON/AIRSS/Generating-Clusters/AIREBO/Higher-Symm/Only-C60
REM
REM
REM
REM
REM
REM ./C.cell (28575a23ae977d3b5fae324c64b13b57)
REM
REM compiler GCC version 9.2.1 20190827 (Red Hat 9.2.1-1)
REM options -cpp -mtune=generic -march=x86-64 -g -O0 -fpre-include=/usr/include/finclude/math-vector-fortran.h
REM seed 216664921 -961827983 1075743652 1629394758 -1505746005 -1002236709 -279565672 1573420598 -1250454147 -636321978 -866009166 304574396 247449917 709499318 -1775685676 1646911645 -207386169 990506480 31982350 1259637853 -1595157738 345811583 1063446916 575175647 -368931233 -1897779665 1468901280 486227281 1453668101 906594206 -1924983270 2128989081 -1350655271
REM
CELL 1.54180   50.00000   50.00000   50.00000   90.00000   90.00000   90.00000
LATT -1
SFAC C  
C      1  0.4782230000000  0.5445670000000  0.5313030000000 1.0
C      1  0.5491370000000  0.4966070000000  0.5300110000000 1.0
C      1  0.4727240000000  0.4584530000000  0.5312870000000 1.0
C      1  0.5205260000000  0.5306420000000  0.5038690000000 1.0
C      1  0.5135350000000  0.4632890000000  0.5039050000000 1.0
C      1  0.4643260000000  0.5038940000000  0.5027900000000 1.0
C      1  0.4824160000000  0.5167530000000  0.4695510000000 1.0
C      1  0.5050410000000  0.4967760000000  0.4669090000000 1.0
C      1  0.4937360000000  0.4676090000000  0.4692550000000 1.0
C      1  0.5524430000000  0.4546500000000  0.5041680000000 1.0
C      1  0.4333050000000  0.4789770000000  0.5034610000000 1.0
C      1  0.5169470000000  0.5703670000000  0.5041300000000 1.0
C      1  0.5051930000000  0.5435320000000  0.4513080000000 1.0
C      1  0.5317540000000  0.4732500000000  0.4493020000000 1.0
C      1  0.4648570000000  0.4838370000000  0.4476810000000 1.0
C      1  0.5092330000000  0.5404480000000  0.5561510000000 1.0
C      1  0.5304460000000  0.4727670000000  0.5561330000000 1.0
C      1  0.4604530000000  0.4877870000000  0.5554690000000 1.0
C      1  0.5345480000000  0.5731180000000  0.4819890000000 1.0
C      1  0.5449440000000  0.4406520000000  0.4809100000000 1.0
C      1  0.4286430000000  0.4932870000000  0.4792320000000 1.0
C      1  0.4842150000000  0.4618880000000  0.4361850000000 1.0
C      1  0.4800670000000  0.5325270000000  0.4375760000000 1.0
C      1  0.5309070000000  0.5055570000000  0.4480090000000 1.0
C      1  0.5564760000000  0.4867880000000  0.4996210000000 1.0
C      1  0.4572750000000  0.4564520000000  0.5024000000000 1.0
C      1  0.4843180000000  0.5607250000000  0.5038010000000 1.0
C      1  0.4477350000000  0.5531380000000  0.4693870000000 1.0
C      1  0.5762060000000  0.5273480000000  0.4718170000000 1.0
C      1  0.4824930000000  0.4235270000000  0.4718640000000 1.0
C      1  0.4877300000000  0.5149150000000  0.5204870000000 1.0
C      1  0.5193360000000  0.5032260000000  0.5181920000000 1.0
C      1  0.4932490000000  0.4813810000000  0.5194020000000 1.0
C      1  0.4484900000000  0.5191420000000  0.4695140000000 1.0
C      1  0.5509410000000  0.5481740000000  0.4656020000000 1.0
C      1  0.5122740000000  0.4399410000000  0.4715020000000 1.0
C      1  0.5027030000000  0.4545510000000  0.5471130000000 1.0
C      1  0.4594380000000  0.5212760000000  0.5476750000000 1.0
C      1  0.5376840000000  0.5238000000000  0.5469550000000 1.0
C      1  0.5755120000000  0.5056170000000  0.4842180000000 1.0
C      1  0.4632140000000  0.4300720000000  0.4868120000000 1.0
C      1  0.4592750000000  0.5679230000000  0.4863750000000 1.0
C      1  0.4923900000000  0.4816690000000  0.5638490000000 1.0
C      1  0.4877560000000  0.5156610000000  0.5636520000000 1.0
C      1  0.5191590000000  0.5026340000000  0.5641200000000 1.0
C      1  0.5099340000000  0.4302310000000  0.5040140000000 1.0
C      1  0.4399490000000  0.5267790000000  0.5015340000000 1.0
C      1  0.5484600000000  0.5394310000000  0.4976760000000 1.0
C      1  0.5294200000000  0.4791910000000  0.4828010000000 1.0
C      1  0.4665350000000  0.4809180000000  0.4815510000000 1.0
C      1  0.4992310000000  0.5409500000000  0.4838930000000 1.0
C      1  0.5317250000000  0.4514720000000  0.5296550000000 1.0
C      1  0.4428930000000  0.4984840000000  0.5286250000000 1.0
C      1  0.5274560000000  0.5511340000000  0.5295070000000 1.0
C      1  0.4868450000000  0.5624210000000  0.5560180000000 1.0
C      1  0.5611840000000  0.4767740000000  0.5505100000000 1.0
C      1  0.4518040000000  0.4576510000000  0.5547150000000 1.0
C      1  0.5143100000000  0.4511010000000  0.4394440000000 1.0
C      1  0.4577440000000  0.5107790000000  0.4380570000000 1.0
C      1  0.5312370000000  0.5334870000000  0.4470620000000 1.0
END
