TITL C-27143-4867-106 0.000225969330361035 125000 -283.957831537636 0 0 60 (C3i) n - 1
REM
REM in /home/nfs/bkarasulu/CARBON/AIRSS/Generating-Clusters/AIREBO/Higher-Symm/Only-C60
REM
REM
REM
REM
REM
REM ./C.cell (28575a23ae977d3b5fae324c64b13b57)
REM
REM compiler GCC version 9.2.1 20190827 (Red Hat 9.2.1-1)
REM options -cpp -mtune=generic -march=x86-64 -g -O0 -fpre-include=/usr/include/finclude/math-vector-fortran.h
REM seed -20491594 26249834 140782809 -143836848 -1356602979 -815399853 -598260709 1070080924 1511321348 735398436 -1474063181 586504338 -1983416483 -608595776 1396186929 -1001642295 -824486807 438315153 1919524629 602757065 885592929 607652357 -1741542713 -541708220 -45265002 -988803529 -1261758461 777562674 1792317376 426692050 1013285616 -1858641857 -367726810
REM
CELL 1.54180   50.00000   50.00000   50.00000   90.00000   90.00000   90.00000
LATT -1
SFAC C  
C      1  0.5528180000000  0.4775420000000  0.4421490000000 1.0
C      1  0.4775410000000  0.4421490000000  0.5528170000000 1.0
C      1  0.4421490000000  0.5528180000000  0.4775410000000 1.0
C      1  0.5541080000000  0.5040870000000  0.5558040000000 1.0
C      1  0.4559480000000  0.5067480000000  0.5848220000000 1.0
C      1  0.4350050000000  0.5263150000000  0.4481560000000 1.0
C      1  0.5067480000000  0.5848230000000  0.4559480000000 1.0
C      1  0.5263150000000  0.4481560000000  0.4350040000000 1.0
C      1  0.5040870000000  0.5558030000000  0.5541090000000 1.0
C      1  0.4481560000000  0.4350040000000  0.5263150000000 1.0
C      1  0.5558030000000  0.5541080000000  0.5040870000000 1.0
C      1  0.5848220000000  0.4559480000000  0.5067480000000 1.0
C      1  0.4458920000000  0.4959130000000  0.4441960000000 1.0
C      1  0.4932520000000  0.4151770000000  0.5440520000000 1.0
C      1  0.5518440000000  0.5649960000000  0.4736850000000 1.0
C      1  0.4471820000000  0.5224580000000  0.5578510000000 1.0
C      1  0.5649950000000  0.4736850000000  0.5518440000000 1.0
C      1  0.5440520000000  0.4932520000000  0.4151780000000 1.0
C      1  0.5224590000000  0.5578510000000  0.4471830000000 1.0
C      1  0.4959130000000  0.4441970000000  0.4458910000000 1.0
C      1  0.4736850000000  0.5518440000000  0.5649960000000 1.0
C      1  0.5578510000000  0.4471820000000  0.5224590000000 1.0
C      1  0.4151780000000  0.5440520000000  0.4932520000000 1.0
C      1  0.4441970000000  0.4458920000000  0.4959130000000 1.0
C      1  0.4751590000000  0.5494290000000  0.4848860000000 1.0
C      1  0.5494290000000  0.4848860000000  0.4751590000000 1.0
C      1  0.4848860000000  0.4751590000000  0.5494290000000 1.0
C      1  0.4701750000000  0.4609420000000  0.5222570000000 1.0
C      1  0.5299370000000  0.5378810000000  0.5118180000000 1.0
C      1  0.5260790000000  0.4471740000000  0.4856980000000 1.0
C      1  0.5378810000000  0.5118180000000  0.5299380000000 1.0
C      1  0.4471740000000  0.4856980000000  0.5260780000000 1.0
C      1  0.4609420000000  0.5222570000000  0.4701750000000 1.0
C      1  0.4856980000000  0.5260790000000  0.4471740000000 1.0
C      1  0.5222570000000  0.4701750000000  0.4609420000000 1.0
C      1  0.5118180000000  0.5299370000000  0.5378810000000 1.0
C      1  0.5298250000000  0.5390580000000  0.4777430000000 1.0
C      1  0.4621190000000  0.4881820000000  0.4700620000000 1.0
C      1  0.5143020000000  0.4739210000000  0.5528260000000 1.0
C      1  0.5248410000000  0.4505710000000  0.5151140000000 1.0
C      1  0.4739210000000  0.5528260000000  0.5143020000000 1.0
C      1  0.4700630000000  0.4621190000000  0.4881820000000 1.0
C      1  0.4505710000000  0.5151140000000  0.5248410000000 1.0
C      1  0.5390580000000  0.4777430000000  0.5298250000000 1.0
C      1  0.5528260000000  0.5143020000000  0.4739220000000 1.0
C      1  0.5151140000000  0.5248410000000  0.4505710000000 1.0
C      1  0.4881820000000  0.4700630000000  0.4621190000000 1.0
C      1  0.4777430000000  0.5298250000000  0.5390580000000 1.0
C      1  0.4730740000000  0.5004110000000  0.5570710000000 1.0
C      1  0.5269260000000  0.4995890000000  0.4429290000000 1.0
C      1  0.5379720000000  0.4801140000000  0.5696860000000 1.0
C      1  0.4620280000000  0.5198860000000  0.4303140000000 1.0
C      1  0.5004110000000  0.5570720000000  0.4730740000000 1.0
C      1  0.5570720000000  0.4730740000000  0.5004110000000 1.0
C      1  0.4995890000000  0.4429280000000  0.5269260000000 1.0
C      1  0.4801140000000  0.5696860000000  0.5379720000000 1.0
C      1  0.5198860000000  0.4303140000000  0.4620280000000 1.0
C      1  0.5696860000000  0.5379720000000  0.4801140000000 1.0
C      1  0.4303140000000  0.4620280000000  0.5198860000000 1.0
C      1  0.4429280000000  0.5269260000000  0.4995890000000 1.0
END
