TITL C-27130-3996-124 9.59316662795743e-05 125000 -300.050696489671 0 0 60 (C1) n - 1
REM
REM in /home/nfs/bkarasulu/CARBON/AIRSS/Generating-Clusters/AIREBO/Higher-Symm/Only-C60
REM
REM
REM
REM
REM
REM ./C.cell (28575a23ae977d3b5fae324c64b13b57)
REM
REM compiler GCC version 9.2.1 20190827 (Red Hat 9.2.1-1)
REM options -cpp -mtune=generic -march=x86-64 -g -O0 -fpre-include=/usr/include/finclude/math-vector-fortran.h
REM seed -1231634109 1338882814 1834838981 -1279027908 -1456408242 -38699286 -1590385389 -1303292836 1091020859 291704212 1268054592 -1682153172 4494022 196416961 364801714 -1427079688 -1875400529 282434829 -1300933013 79828313 1001711619 -241100696 -1015304193 31494963 1414647626 581104165 1651805519 -650472335 -435883466 1132938457 -1025679466 1676558839 1332568931
REM
CELL 1.54180   50.00000   50.00000   50.00000   90.00000   90.00000   90.00000
LATT -1
SFAC C  
C      1  0.4628830000000  0.4457500000000  0.4790850000000 1.0
C      1  0.4625500000000  0.5062310000000  0.5609550000000 1.0
C      1  0.4614730000000  0.5468430000000  0.4633910000000 1.0
C      1  0.5128560000000  0.5361710000000  0.5271480000000 1.0
C      1  0.5130810000000  0.5064490000000  0.4537850000000 1.0
C      1  0.5129510000000  0.4570070000000  0.5175580000000 1.0
C      1  0.5422100000000  0.5221330000000  0.5170910000000 1.0
C      1  0.5419350000000  0.5032060000000  0.4716060000000 1.0
C      1  0.5424880000000  0.4728780000000  0.5111070000000 1.0
C      1  0.4368300000000  0.5275240000000  0.4766550000000 1.0
C      1  0.4397080000000  0.4681320000000  0.4899880000000 1.0
C      1  0.4406090000000  0.5038880000000  0.5311710000000 1.0
C      1  0.4150150000000  0.5014360000000  0.5177260000000 1.0
C      1  0.4131320000000  0.5139100000000  0.4880090000000 1.0
C      1  0.4137300000000  0.4820890000000  0.4927470000000 1.0
C      1  0.5123210000000  0.5258800000000  0.4287930000000 1.0
C      1  0.5058020000000  0.4249280000000  0.5188220000000 1.0
C      1  0.5111310000000  0.5493980000000  0.5559590000000 1.0
C      1  0.5498770000000  0.4433830000000  0.5241040000000 1.0
C      1  0.5498160000000  0.5477410000000  0.5367660000000 1.0
C      1  0.5504150000000  0.5081370000000  0.4397370000000 1.0
C      1  0.4974470000000  0.5196770000000  0.4941870000000 1.0
C      1  0.5015950000000  0.4874680000000  0.4868370000000 1.0
C      1  0.4972230000000  0.4965500000000  0.5191400000000 1.0
C      1  0.5436490000000  0.5386100000000  0.4532380000000 1.0
C      1  0.5445310000000  0.4386590000000  0.4908430000000 1.0
C      1  0.5432690000000  0.5211370000000  0.5569370000000 1.0
C      1  0.4660400000000  0.4852230000000  0.5184630000000 1.0
C      1  0.4640300000000  0.5253220000000  0.4969510000000 1.0
C      1  0.4622070000000  0.4932670000000  0.4856290000000 1.0
C      1  0.4880860000000  0.5243630000000  0.5561630000000 1.0
C      1  0.4891120000000  0.5381280000000  0.4504470000000 1.0
C      1  0.4926640000000  0.4367030000000  0.4897570000000 1.0
C      1  0.5452290000000  0.5601060000000  0.5054270000000 1.0
C      1  0.5459720000000  0.4753640000000  0.4435050000000 1.0
C      1  0.5443380000000  0.4646810000000  0.5500300000000 1.0
C      1  0.5172130000000  0.5464080000000  0.4626500000000 1.0
C      1  0.5186080000000  0.4447680000000  0.4759880000000 1.0
C      1  0.5165090000000  0.5098610000000  0.5575430000000 1.0
C      1  0.5585470000000  0.4540840000000  0.4646400000000 1.0
C      1  0.5601270000000  0.4931620000000  0.5559690000000 1.0
C      1  0.5610280000000  0.5508990000000  0.4781310000000 1.0
C      1  0.5145970000000  0.4795680000000  0.5429420000000 1.0
C      1  0.5145930000000  0.5490070000000  0.4957090000000 1.0
C      1  0.5161450000000  0.4730990000000  0.4596690000000 1.0
C      1  0.4495980000000  0.5323740000000  0.5336870000000 1.0
C      1  0.4500840000000  0.5105070000000  0.4517330000000 1.0
C      1  0.4485390000000  0.4494610000000  0.5157880000000 1.0
C      1  0.5512130000000  0.4961740000000  0.5268600000000 1.0
C      1  0.5514910000000  0.5242090000000  0.4895330000000 1.0
C      1  0.5511800000000  0.4772110000000  0.4830240000000 1.0
C      1  0.4789930000000  0.4540000000000  0.5147360000000 1.0
C      1  0.4788890000000  0.5353310000000  0.5258770000000 1.0
C      1  0.4797580000000  0.5078640000000  0.4604030000000 1.0
C      1  0.4666850000000  0.4701110000000  0.4609230000000 1.0
C      1  0.4662070000000  0.4785300000000  0.5517990000000 1.0
C      1  0.4663130000000  0.5591820000000  0.4911070000000 1.0
C      1  0.4877590000000  0.4688980000000  0.4439260000000 1.0
C      1  0.4895920000000  0.4665200000000  0.5596370000000 1.0
C      1  0.4901290000000  0.5703970000000  0.4979690000000 1.0
END
