TITL C-27130-3996-111 -0.00108279220039271 125000 -355.229361129835 0 0 60 (C1) n - 1
REM
REM in /home/nfs/bkarasulu/CARBON/AIRSS/Generating-Clusters/AIREBO/Higher-Symm/Only-C60
REM
REM
REM
REM
REM
REM ./C.cell (28575a23ae977d3b5fae324c64b13b57)
REM
REM compiler GCC version 9.2.1 20190827 (Red Hat 9.2.1-1)
REM options -cpp -mtune=generic -march=x86-64 -g -O0 -fpre-include=/usr/include/finclude/math-vector-fortran.h
REM seed 1228663736 -1104928115 -1658116949 1704754533 -1864245103 -953003242 1110600673 1374246435 -1261807778 -780999454 1098762337 1691931363 -2081564084 -1090718547 -1041105914 72338283 1566652983 -1856818992 877522471 127639872 912484072 963364424 -916876598 -1895462361 -1074010926 129538230 -71737001 1071420099 60326554 -1349775370 -128678686 1306330155 293498661
REM
CELL 1.54180   50.00000   50.00000   50.00000   90.00000   90.00000   90.00000
LATT -1
SFAC C  
C      1  0.4440940000000  0.5390050000000  0.4829040000000 1.0
C      1  0.4614730000000  0.5407410000000  0.5326160000000 1.0
C      1  0.5111790000000  0.5316490000000  0.5512500000000 1.0
C      1  0.5579250000000  0.5358120000000  0.5156680000000 1.0
C      1  0.5414160000000  0.5400040000000  0.4661200000000 1.0
C      1  0.4876330000000  0.5544600000000  0.4618930000000 1.0
C      1  0.5530560000000  0.5288600000000  0.4888040000000 1.0
C      1  0.5390070000000  0.5394340000000  0.5413350000000 1.0
C      1  0.4830910000000  0.5402620000000  0.5508660000000 1.0
C      1  0.4410410000000  0.5449330000000  0.5107770000000 1.0
C      1  0.4663110000000  0.5365880000000  0.4665290000000 1.0
C      1  0.5139950000000  0.5419290000000  0.4588150000000 1.0
C      1  0.4840290000000  0.4997720000000  0.5741640000000 1.0
C      1  0.5598780000000  0.5158920000000  0.5537680000000 1.0
C      1  0.5701970000000  0.5016570000000  0.4801990000000 1.0
C      1  0.5090290000000  0.5172550000000  0.4278460000000 1.0
C      1  0.4619670000000  0.5124630000000  0.4467160000000 1.0
C      1  0.4239230000000  0.5057380000000  0.5185450000000 1.0
C      1  0.5143110000000  0.5046990000000  0.5717500000000 1.0
C      1  0.4399810000000  0.5196360000000  0.5435070000000 1.0
C      1  0.4231840000000  0.4978210000000  0.4881530000000 1.0
C      1  0.4874520000000  0.5007030000000  0.4326720000000 1.0
C      1  0.5352710000000  0.5066970000000  0.4320540000000 1.0
C      1  0.5798530000000  0.4960960000000  0.5096380000000 1.0
C      1  0.5509450000000  0.4568340000000  0.5128520000000 1.0
C      1  0.5386480000000  0.4336860000000  0.4712900000000 1.0
C      1  0.4888520000000  0.4307760000000  0.4594310000000 1.0
C      1  0.4485490000000  0.4385530000000  0.4859910000000 1.0
C      1  0.4702830000000  0.4408010000000  0.5329600000000 1.0
C      1  0.5148690000000  0.4605220000000  0.5457490000000 1.0
C      1  0.4514860000000  0.4471300000000  0.5132730000000 1.0
C      1  0.4671080000000  0.4475000000000  0.4656880000000 1.0
C      1  0.5156430000000  0.4385580000000  0.4560000000000 1.0
C      1  0.5501200000000  0.4557070000000  0.4848260000000 1.0
C      1  0.5314450000000  0.4445360000000  0.5293120000000 1.0
C      1  0.4868730000000  0.4589690000000  0.5468450000000 1.0
C      1  0.4506950000000  0.4893620000000  0.5423610000000 1.0
C      1  0.5280190000000  0.4823540000000  0.5568910000000 1.0
C      1  0.5646860000000  0.4782720000000  0.5248380000000 1.0
C      1  0.5370730000000  0.4818690000000  0.4463420000000 1.0
C      1  0.4906560000000  0.4728400000000  0.4381160000000 1.0
C      1  0.4439550000000  0.4747610000000  0.4835750000000 1.0
C      1  0.5536620000000  0.4895580000000  0.5483640000000 1.0
C      1  0.4729150000000  0.4816330000000  0.5563970000000 1.0
C      1  0.4369040000000  0.4740910000000  0.5168530000000 1.0
C      1  0.4651460000000  0.4807830000000  0.4591520000000 1.0
C      1  0.5161400000000  0.4631070000000  0.4424150000000 1.0
C      1  0.5524300000000  0.4793770000000  0.4697780000000 1.0
C      1  0.4251080000000  0.5275600000000  0.5657160000000 1.0
C      1  0.5255610000000  0.5103460000000  0.5971280000000 1.0
C      1  0.5828910000000  0.5221300000000  0.5217550000000 1.0
C      1  0.5527280000000  0.5276250000000  0.4418230000000 1.0
C      1  0.4917250000000  0.5625270000000  0.4328000000000 1.0
C      1  0.4236770000000  0.5209950000000  0.4738110000000 1.0
C      1  0.5618860000000  0.5448880000000  0.5662400000000 1.0
C      1  0.4732100000000  0.5263490000000  0.5750150000000 1.0
C      1  0.4125110000000  0.5376220000000  0.5207270000000 1.0
C      1  0.4397570000000  0.5164230000000  0.4298660000000 1.0
C      1  0.5026910000000  0.5425560000000  0.4163550000000 1.0
C      1  0.5918560000000  0.5072900000000  0.4628760000000 1.0
END
