TITL C-27136-4842-3 0.00147156289463769 125000 -335.811157064729 0 0 60 (C1) n - 1
REM
REM in /home/nfs/bkarasulu/CARBON/AIRSS/Generating-Clusters/AIREBO/Higher-Symm/Only-C60
REM
REM
REM
REM
REM
REM ./C.cell (28575a23ae977d3b5fae324c64b13b57)
REM
REM compiler GCC version 9.2.1 20190827 (Red Hat 9.2.1-1)
REM options -cpp -mtune=generic -march=x86-64 -g -O0 -fpre-include=/usr/include/finclude/math-vector-fortran.h
REM seed 680716459 644472439 181641798 -1804620918 -774489939 -400082462 1959417774 -107034428 -882556168 272677860 -452155270 -1796717941 -1862929078 2064265900 1776248929 1818597104 -1921468059 1112629294 482318621 1535443548 -1282584513 1479767763 1832689874 -976857616 -1734558348 -2124159572 -1730988990 564264107 -414550460 380004727 577716983 -1761523460 -1145787932
REM
CELL 1.54180   50.00000   50.00000   50.00000   90.00000   90.00000   90.00000
LATT -1
SFAC C  
C      1  0.4953030000000  0.4760140000000  0.4983170000000 1.0
C      1  0.4762360000000  0.5008540000000  0.4970180000000 1.0
C      1  0.4943930000000  0.5256670000000  0.4969190000000 1.0
C      1  0.5251130000000  0.5180490000000  0.4974050000000 1.0
C      1  0.5274460000000  0.4846700000000  0.4913140000000 1.0
C      1  0.4520690000000  0.4574870000000  0.5227990000000 1.0
C      1  0.4456540000000  0.5334470000000  0.5243420000000 1.0
C      1  0.5158180000000  0.5635420000000  0.5257100000000 1.0
C      1  0.5678330000000  0.5059140000000  0.5302130000000 1.0
C      1  0.5260570000000  0.4408400000000  0.5275850000000 1.0
C      1  0.5248410000000  0.5454840000000  0.4771640000000 1.0
C      1  0.5581340000000  0.4927530000000  0.4790280000000 1.0
C      1  0.5069660000000  0.4514450000000  0.4805930000000 1.0
C      1  0.4419140000000  0.4648570000000  0.4649120000000 1.0
C      1  0.4440950000000  0.5483590000000  0.4608380000000 1.0
C      1  0.5002430000000  0.4348290000000  0.5192500000000 1.0
C      1  0.4382800000000  0.4811020000000  0.5203170000000 1.0
C      1  0.4635020000000  0.5539710000000  0.5207030000000 1.0
C      1  0.5402660000000  0.5529560000000  0.5186170000000 1.0
C      1  0.5654040000000  0.4787570000000  0.5261940000000 1.0
C      1  0.4901920000000  0.5433090000000  0.5736530000000 1.0
C      1  0.5370740000000  0.5221190000000  0.5760800000000 1.0
C      1  0.5346850000000  0.4702710000000  0.5726610000000 1.0
C      1  0.4842890000000  0.4593530000000  0.5738650000000 1.0
C      1  0.4566430000000  0.5036200000000  0.5733350000000 1.0
C      1  0.4864380000000  0.5379630000000  0.4699250000000 1.0
C      1  0.5400740000000  0.5271560000000  0.4450850000000 1.0
C      1  0.5284350000000  0.4760430000000  0.4584120000000 1.0
C      1  0.4811780000000  0.4491660000000  0.4393020000000 1.0
C      1  0.4587300000000  0.5001700000000  0.4717890000000 1.0
C      1  0.4546640000000  0.4437870000000  0.4552930000000 1.0
C      1  0.4363840000000  0.5232660000000  0.4679910000000 1.0
C      1  0.5031350000000  0.5655130000000  0.4678920000000 1.0
C      1  0.5615420000000  0.5151990000000  0.4649870000000 1.0
C      1  0.5371240000000  0.4499180000000  0.4741200000000 1.0
C      1  0.4881410000000  0.4760910000000  0.4350410000000 1.0
C      1  0.4741930000000  0.4984580000000  0.4464180000000 1.0
C      1  0.4902100000000  0.5215310000000  0.4456270000000 1.0
C      1  0.5166310000000  0.5152820000000  0.4365740000000 1.0
C      1  0.5157140000000  0.4859530000000  0.4366750000000 1.0
C      1  0.5626430000000  0.4630690000000  0.4831530000000 1.0
C      1  0.4835090000000  0.4336330000000  0.4695710000000 1.0
C      1  0.4257130000000  0.4915100000000  0.4738250000000 1.0
C      1  0.4692250000000  0.5658930000000  0.4731790000000 1.0
C      1  0.5553990000000  0.5483900000000  0.4672230000000 1.0
C      1  0.4833760000000  0.4600270000000  0.5234230000000 1.0
C      1  0.4577940000000  0.5041310000000  0.5227690000000 1.0
C      1  0.4915860000000  0.5432740000000  0.5232250000000 1.0
C      1  0.5410620000000  0.5226560000000  0.5256470000000 1.0
C      1  0.5356680000000  0.4719970000000  0.5220190000000 1.0
C      1  0.5558690000000  0.5602370000000  0.4975500000000 1.0
C      1  0.5777590000000  0.4608380000000  0.5073780000000 1.0
C      1  0.4916760000000  0.4191560000000  0.4981710000000 1.0
C      1  0.4175310000000  0.4858030000000  0.5032780000000 1.0
C      1  0.4612340000000  0.5736300000000  0.5020590000000 1.0
C      1  0.4908260000000  0.4756810000000  0.5486300000000 1.0
C      1  0.4748530000000  0.5021930000000  0.5485350000000 1.0
C      1  0.4949420000000  0.5258060000000  0.5486800000000 1.0
C      1  0.5235270000000  0.5139130000000  0.5496330000000 1.0
C      1  0.5207660000000  0.4829990000000  0.5480900000000 1.0
END
