TITL C-27140-5627-109 0.000711692664911015 125000 -323.153721221482 0 0 60 (C1) n - 1
REM
REM in /home/nfs/bkarasulu/CARBON/AIRSS/Generating-Clusters/AIREBO/Higher-Symm/Only-C60
REM
REM
REM
REM
REM
REM ./C.cell (28575a23ae977d3b5fae324c64b13b57)
REM
REM compiler GCC version 9.2.1 20190827 (Red Hat 9.2.1-1)
REM options -cpp -mtune=generic -march=x86-64 -g -O0 -fpre-include=/usr/include/finclude/math-vector-fortran.h
REM seed -701091117 -2079959728 -1596076323 -90326159 -2102633544 1104251855 696685682 -232189660 1672308088 -1532920760 1106646101 743989044 -1165338551 -1261895431 -1545112719 -1139111606 -797718760 -1068844802 1149780645 1929202486 -1995132780 2046638863 -1095160715 1452459183 854358590 1188038786 1139782897 -1640951378 2051753721 1559431380 483290581 -1818391705 35638694
REM
CELL 1.54180   50.00000   50.00000   50.00000   90.00000   90.00000   90.00000
LATT -1
SFAC C  
C      1  0.4647830000000  0.4434870000000  0.4424870000000 1.0
C      1  0.5132160000000  0.4559210000000  0.4446360000000 1.0
C      1  0.5537680000000  0.4871650000000  0.4416930000000 1.0
C      1  0.5551230000000  0.5326250000000  0.4485100000000 1.0
C      1  0.5074130000000  0.5604300000000  0.4477630000000 1.0
C      1  0.4604370000000  0.5385030000000  0.4482730000000 1.0
C      1  0.4288550000000  0.4957190000000  0.4461050000000 1.0
C      1  0.5172880000000  0.5392660000000  0.5569960000000 1.0
C      1  0.4934200000000  0.5428700000000  0.5694950000000 1.0
C      1  0.4709830000000  0.5214580000000  0.5671520000000 1.0
C      1  0.4990330000000  0.4721490000000  0.5665460000000 1.0
C      1  0.5284780000000  0.4779840000000  0.5732890000000 1.0
C      1  0.5400490000000  0.4987520000000  0.5603030000000 1.0
C      1  0.5380260000000  0.5251100000000  0.5705660000000 1.0
C      1  0.5179620000000  0.5259970000000  0.4908790000000 1.0
C      1  0.4886560000000  0.5167700000000  0.4853310000000 1.0
C      1  0.4731790000000  0.5118380000000  0.4623740000000 1.0
C      1  0.4638190000000  0.4820690000000  0.4632860000000 1.0
C      1  0.4848910000000  0.4706500000000  0.4837280000000 1.0
C      1  0.5153220000000  0.4778690000000  0.4820950000000 1.0
C      1  0.5362630000000  0.5036240000000  0.4817710000000 1.0
C      1  0.4995370000000  0.4621630000000  0.5343000000000 1.0
C      1  0.5231230000000  0.4760400000000  0.5154290000000 1.0
C      1  0.5371270000000  0.5006710000000  0.5291060000000 1.0
C      1  0.5196540000000  0.5297080000000  0.5246390000000 1.0
C      1  0.4859690000000  0.5299280000000  0.5163110000000 1.0
C      1  0.4584260000000  0.5260940000000  0.5358950000000 1.0
C      1  0.4762690000000  0.4709660000000  0.5122300000000 1.0
C      1  0.5000480000000  0.4367700000000  0.5116890000000 1.0
C      1  0.5426920000000  0.4520950000000  0.5078510000000 1.0
C      1  0.5675410000000  0.5009200000000  0.5187220000000 1.0
C      1  0.5394660000000  0.5561910000000  0.5167860000000 1.0
C      1  0.4800880000000  0.5612340000000  0.5059900000000 1.0
C      1  0.4360230000000  0.5226670000000  0.5201780000000 1.0
C      1  0.4473670000000  0.4579090000000  0.5173900000000 1.0
C      1  0.5243330000000  0.5336090000000  0.4583150000000 1.0
C      1  0.4910610000000  0.5370450000000  0.4370620000000 1.0
C      1  0.4544870000000  0.5075950000000  0.4342820000000 1.0
C      1  0.4660190000000  0.4754950000000  0.4314720000000 1.0
C      1  0.4912690000000  0.4533990000000  0.4278820000000 1.0
C      1  0.5228360000000  0.4845180000000  0.4494960000000 1.0
C      1  0.5630020000000  0.5113560000000  0.4337270000000 1.0
C      1  0.5740220000000  0.5032800000000  0.4912210000000 1.0
C      1  0.5396050000000  0.5594220000000  0.4883050000000 1.0
C      1  0.4775070000000  0.5663160000000  0.4728300000000 1.0
C      1  0.4374290000000  0.5213100000000  0.4910190000000 1.0
C      1  0.4433140000000  0.4596820000000  0.4885670000000 1.0
C      1  0.4983420000000  0.4332390000000  0.4844680000000 1.0
C      1  0.5452450000000  0.4513650000000  0.4803610000000 1.0
C      1  0.5208550000000  0.4410390000000  0.4675650000000 1.0
C      1  0.5575250000000  0.4793170000000  0.4723470000000 1.0
C      1  0.5567600000000  0.5307550000000  0.4809280000000 1.0
C      1  0.5105280000000  0.5634510000000  0.4805260000000 1.0
C      1  0.4556490000000  0.5418370000000  0.4818150000000 1.0
C      1  0.4348210000000  0.4908960000000  0.4780300000000 1.0
C      1  0.4682660000000  0.4433290000000  0.4721880000000 1.0
C      1  0.4814840000000  0.4948710000000  0.5517410000000 1.0
C      1  0.4833890000000  0.4973350000000  0.5242250000000 1.0
C      1  0.4760930000000  0.4916130000000  0.5835350000000 1.0
C      1  0.5077110000000  0.5104350000000  0.4429590000000 1.0
END
