TITL C-27137-4574-150 0.000257793656830374 125000 -315.734722422367 0 0 60 (C1) n - 1
REM
REM in /home/nfs/bkarasulu/CARBON/AIRSS/Generating-Clusters/AIREBO/Higher-Symm/Only-C60
REM
REM
REM
REM
REM
REM ./C.cell (28575a23ae977d3b5fae324c64b13b57)
REM
REM compiler GCC version 9.2.1 20190827 (Red Hat 9.2.1-1)
REM options -cpp -mtune=generic -march=x86-64 -g -O0 -fpre-include=/usr/include/finclude/math-vector-fortran.h
REM seed -1948022012 -1381505570 -913175377 -1526444 635753720 913353322 -804859209 1276661556 782688484 -259777519 1028920687 -473395243 -2036869647 1564679057 -1444704504 -1177340789 23421125 -663322479 -378310419 242581230 349946937 474008483 -98982051 -840626288 -1292210259 -1234130880 -1919412203 -2070128224 -371894733 -738247177 -2111705632 -682734435 581921356
REM
CELL 1.54180   50.00000   50.00000   50.00000   90.00000   90.00000   90.00000
LATT -1
SFAC C  
C      1  0.4896910000000  0.4771020000000  0.5349510000000 1.0
C      1  0.4700900000000  0.5262630000000  0.5394160000000 1.0
C      1  0.4822710000000  0.5454890000000  0.5141410000000 1.0
C      1  0.4857990000000  0.5428160000000  0.4579270000000 1.0
C      1  0.4826550000000  0.5090780000000  0.4533310000000 1.0
C      1  0.4886080000000  0.4585640000000  0.4856610000000 1.0
C      1  0.5000690000000  0.4527340000000  0.5147730000000 1.0
C      1  0.5416450000000  0.4766800000000  0.4291040000000 1.0
C      1  0.5337050000000  0.4372380000000  0.4727960000000 1.0
C      1  0.5492970000000  0.4280280000000  0.5304860000000 1.0
C      1  0.5461340000000  0.4800810000000  0.5691380000000 1.0
C      1  0.5299200000000  0.5313460000000  0.5635250000000 1.0
C      1  0.5208980000000  0.5647000000000  0.5271560000000 1.0
C      1  0.5534090000000  0.5455680000000  0.4475850000000 1.0
C      1  0.5260950000000  0.5252390000000  0.5302950000000 1.0
C      1  0.5113910000000  0.5419920000000  0.5045760000000 1.0
C      1  0.5119090000000  0.5319630000000  0.4740460000000 1.0
C      1  0.5095600000000  0.4986090000000  0.4678670000000 1.0
C      1  0.5175060000000  0.4671530000000  0.4722900000000 1.0
C      1  0.5283420000000  0.4492200000000  0.5156950000000 1.0
C      1  0.5200950000000  0.4928490000000  0.5325930000000 1.0
C      1  0.4398350000000  0.5110460000000  0.5362090000000 1.0
C      1  0.4400830000000  0.5376920000000  0.5157720000000 1.0
C      1  0.4412290000000  0.5324860000000  0.4826220000000 1.0
C      1  0.4577720000000  0.5038200000000  0.4726280000000 1.0
C      1  0.4615060000000  0.4774130000000  0.4868900000000 1.0
C      1  0.4393180000000  0.4686390000000  0.5050030000000 1.0
C      1  0.4374970000000  0.4836010000000  0.5313230000000 1.0
C      1  0.4810670000000  0.5557500000000  0.5526440000000 1.0
C      1  0.4615110000000  0.5645370000000  0.4953070000000 1.0
C      1  0.4541200000000  0.5445870000000  0.4332280000000 1.0
C      1  0.4691920000000  0.4860950000000  0.4321800000000 1.0
C      1  0.4668570000000  0.4449980000000  0.4645650000000 1.0
C      1  0.4693630000000  0.4460620000000  0.5183860000000 1.0
C      1  0.4877060000000  0.4882430000000  0.5663850000000 1.0
C      1  0.5519840000000  0.5435170000000  0.5405930000000 1.0
C      1  0.5506330000000  0.5702680000000  0.5292220000000 1.0
C      1  0.5344280000000  0.5256720000000  0.4510540000000 1.0
C      1  0.5639470000000  0.4681080000000  0.4478160000000 1.0
C      1  0.5508630000000  0.4732980000000  0.4749690000000 1.0
C      1  0.5445470000000  0.4742450000000  0.5070380000000 1.0
C      1  0.5434540000000  0.5022750000000  0.4886840000000 1.0
C      1  0.4636640000000  0.5194590000000  0.4271020000000 1.0
C      1  0.4640370000000  0.4598260000000  0.4405050000000 1.0
C      1  0.4537580000000  0.4391270000000  0.4928710000000 1.0
C      1  0.4586060000000  0.4636860000000  0.5396920000000 1.0
C      1  0.4772880000000  0.5113180000000  0.5684230000000 1.0
C      1  0.4573620000000  0.5629390000000  0.5293420000000 1.0
C      1  0.4567520000000  0.5538430000000  0.4655240000000 1.0
C      1  0.5343660000000  0.5040360000000  0.4324730000000 1.0
C      1  0.5273390000000  0.4528170000000  0.4430540000000 1.0
C      1  0.5391840000000  0.4249050000000  0.4979950000000 1.0
C      1  0.5454900000000  0.4496110000000  0.5535610000000 1.0
C      1  0.5390850000000  0.5045460000000  0.5786570000000 1.0
C      1  0.5095150000000  0.5564810000000  0.5524960000000 1.0
C      1  0.5696960000000  0.5655050000000  0.4426820000000 1.0
C      1  0.4849020000000  0.5046030000000  0.5177850000000 1.0
C      1  0.4608540000000  0.5140740000000  0.5025180000000 1.0
C      1  0.5468180000000  0.4772460000000  0.5374130000000 1.0
C      1  0.5126090000000  0.5023370000000  0.5008120000000 1.0
END
