TITL C-27132-7279-178 0.000247941467211931 125000 -325.881571043297 0 0 60 (C1) n - 1
REM
REM in /home/nfs/bkarasulu/CARBON/AIRSS/Generating-Clusters/AIREBO/Higher-Symm/Only-C60
REM
REM
REM
REM
REM
REM ./C.cell (28575a23ae977d3b5fae324c64b13b57)
REM
REM compiler GCC version 9.2.1 20190827 (Red Hat 9.2.1-1)
REM options -cpp -mtune=generic -march=x86-64 -g -O0 -fpre-include=/usr/include/finclude/math-vector-fortran.h
REM seed -425081960 -1062764750 -1785467145 -1505865030 537977292 -1553375398 -2005364838 -1692306995 344423480 1167844356 -2111373902 1145268907 135200271 650950736 1940343032 844857612 197432877 12753948 990820253 -413439428 686350446 -1410645632 -841802999 1951790167 -1278700968 -1353887219 1268246664 -1815260307 -1906340638 -370800852 -1064760503 -1378203024 -1832275878
REM
CELL 1.54180   50.00000   50.00000   50.00000   90.00000   90.00000   90.00000
LATT -1
SFAC C  
C      1  0.5111550000000  0.5181270000000  0.5821060000000 1.0
C      1  0.5689160000000  0.5190530000000  0.5258220000000 1.0
C      1  0.5212780000000  0.5663060000000  0.5158630000000 1.0
C      1  0.5084010000000  0.4754380000000  0.4222830000000 1.0
C      1  0.4824060000000  0.4821310000000  0.5706610000000 1.0
C      1  0.4824890000000  0.5163300000000  0.4264820000000 1.0
C      1  0.5811390000000  0.4891100000000  0.4918000000000 1.0
C      1  0.4306020000000  0.4908270000000  0.5109910000000 1.0
C      1  0.4256000000000  0.5223600000000  0.4758050000000 1.0
C      1  0.5174680000000  0.4320690000000  0.4903740000000 1.0
C      1  0.4827090000000  0.4265660000000  0.5144250000000 1.0
C      1  0.4794040000000  0.5794890000000  0.5024780000000 1.0
C      1  0.4841800000000  0.5264620000000  0.5804190000000 1.0
C      1  0.4315760000000  0.5165520000000  0.5227780000000 1.0
C      1  0.4908040000000  0.5668920000000  0.5307480000000 1.0
C      1  0.4773180000000  0.4768040000000  0.4267960000000 1.0
C      1  0.5096980000000  0.4892850000000  0.5737390000000 1.0
C      1  0.5101300000000  0.5078870000000  0.4263710000000 1.0
C      1  0.4229660000000  0.4949090000000  0.4819170000000 1.0
C      1  0.5712680000000  0.4916130000000  0.5192020000000 1.0
C      1  0.5764020000000  0.5144780000000  0.4789810000000 1.0
C      1  0.4897630000000  0.4219060000000  0.4855410000000 1.0
C      1  0.5220650000000  0.4315930000000  0.5182500000000 1.0
C      1  0.5213360000000  0.5683540000000  0.4872610000000 1.0
C      1  0.4732490000000  0.4830310000000  0.5402940000000 1.0
C      1  0.5447810000000  0.4610130000000  0.4930970000000 1.0
C      1  0.4848750000000  0.5421610000000  0.4690650000000 1.0
C      1  0.4728470000000  0.5148640000000  0.4552440000000 1.0
C      1  0.5278210000000  0.5185600000000  0.5536350000000 1.0
C      1  0.5274180000000  0.4805220000000  0.4496190000000 1.0
C      1  0.5423040000000  0.5329240000000  0.5109940000000 1.0
C      1  0.4564830000000  0.5313880000000  0.4790780000000 1.0
C      1  0.4583760000000  0.4755280000000  0.5120700000000 1.0
C      1  0.4846330000000  0.4568160000000  0.5228680000000 1.0
C      1  0.5207250000000  0.4611660000000  0.4730670000000 1.0
C      1  0.5155940000000  0.5357070000000  0.5295560000000 1.0
C      1  0.5259430000000  0.4853690000000  0.5473400000000 1.0
C      1  0.4484230000000  0.4742270000000  0.4795270000000 1.0
C      1  0.5172880000000  0.5405840000000  0.4699420000000 1.0
C      1  0.5265900000000  0.5129590000000  0.4535160000000 1.0
C      1  0.4737930000000  0.5155380000000  0.5507620000000 1.0
C      1  0.4698620000000  0.4827440000000  0.4594350000000 1.0
C      1  0.4573690000000  0.5348200000000  0.5117250000000 1.0
C      1  0.5449690000000  0.5241890000000  0.4782420000000 1.0
C      1  0.5445410000000  0.4768870000000  0.5215780000000 1.0
C      1  0.5171030000000  0.4596840000000  0.5291590000000 1.0
C      1  0.4910220000000  0.4595060000000  0.4597370000000 1.0
C      1  0.4813740000000  0.5355050000000  0.5292620000000 1.0
C      1  0.5404660000000  0.4645270000000  0.4234100000000 1.0
C      1  0.4249280000000  0.5403460000000  0.5016630000000 1.0
C      1  0.5034080000000  0.4109630000000  0.5322820000000 1.0
C      1  0.5565130000000  0.5283460000000  0.5609640000000 1.0
C      1  0.4650300000000  0.4978820000000  0.4091390000000 1.0
C      1  0.4617500000000  0.5033030000000  0.5816260000000 1.0
C      1  0.4372040000000  0.4463020000000  0.4727930000000 1.0
C      1  0.5700330000000  0.4646580000000  0.4818290000000 1.0
C      1  0.5747510000000  0.5381910000000  0.5003240000000 1.0
C      1  0.4925830000000  0.5702980000000  0.4799460000000 1.0
C      1  0.4862810000000  0.5808890000000  0.5542650000000 1.0
C      1  0.4805990000000  0.4340620000000  0.4618580000000 1.0
END
