TITL C-27141-4733-40 -0.00128098627771357 125000 -315.757903018077 0 0 60 (C1) n - 1
REM
REM in /home/nfs/bkarasulu/CARBON/AIRSS/Generating-Clusters/AIREBO/Higher-Symm/Only-C60
REM
REM
REM
REM
REM
REM ./C.cell (28575a23ae977d3b5fae324c64b13b57)
REM
REM compiler GCC version 9.2.1 20190827 (Red Hat 9.2.1-1)
REM options -cpp -mtune=generic -march=x86-64 -g -O0 -fpre-include=/usr/include/finclude/math-vector-fortran.h
REM seed -1342543587 -541358275 715986195 -1344389419 -1376623108 1694325792 -1772869847 -951772842 1590736981 -1017646798 -337928365 465547039 -834634008 1444295009 523313514 -1721466010 -1337336996 -214578930 1435407053 -1814131949 534294633 -454887754 -10197263 2042446393 667192170 -1039064473 -6980469 -314710526 -48445218 1668782614 1511132796 -1342859518 -1640455130
REM
CELL 1.54180   50.00000   50.00000   50.00000   90.00000   90.00000   90.00000
LATT -1
SFAC C  
C      1  0.4581660000000  0.5337470000000  0.5305380000000 1.0
C      1  0.5100670000000  0.5905220000000  0.5242230000000 1.0
C      1  0.5058440000000  0.5016560000000  0.4540970000000 1.0
C      1  0.5544440000000  0.4339510000000  0.4982480000000 1.0
C      1  0.5308370000000  0.5759420000000  0.4572280000000 1.0
C      1  0.4396620000000  0.4989920000000  0.5597000000000 1.0
C      1  0.5711940000000  0.4839030000000  0.4969250000000 1.0
C      1  0.5133570000000  0.4809470000000  0.4327840000000 1.0
C      1  0.5727630000000  0.4161960000000  0.4978680000000 1.0
C      1  0.5328350000000  0.4549380000000  0.4987210000000 1.0
C      1  0.4849280000000  0.4699320000000  0.4837340000000 1.0
C      1  0.5614300000000  0.5284860000000  0.4808610000000 1.0
C      1  0.4943600000000  0.5234330000000  0.4775560000000 1.0
C      1  0.4434890000000  0.5203450000000  0.4963360000000 1.0
C      1  0.5418210000000  0.4843380000000  0.5132450000000 1.0
C      1  0.5406910000000  0.5494910000000  0.5527770000000 1.0
C      1  0.5514110000000  0.5035760000000  0.5395920000000 1.0
C      1  0.4936560000000  0.5244650000000  0.5884030000000 1.0
C      1  0.5033180000000  0.4489340000000  0.5144940000000 1.0
C      1  0.5321470000000  0.5205310000000  0.4651320000000 1.0
C      1  0.4943230000000  0.4189880000000  0.5059350000000 1.0
C      1  0.4893770000000  0.5299260000000  0.5303590000000 1.0
C      1  0.5703490000000  0.4919290000000  0.5564560000000 1.0
C      1  0.4628870000000  0.4945690000000  0.5070800000000 1.0
C      1  0.5260320000000  0.5059940000000  0.4945400000000 1.0
C      1  0.5439450000000  0.5222190000000  0.4346490000000 1.0
C      1  0.4107300000000  0.4799730000000  0.4909610000000 1.0
C      1  0.5032960000000  0.5200720000000  0.5559210000000 1.0
C      1  0.5177970000000  0.4465050000000  0.5697440000000 1.0
C      1  0.4286280000000  0.4950080000000  0.5098350000000 1.0
C      1  0.5295020000000  0.6005930000000  0.4472740000000 1.0
C      1  0.4144880000000  0.4700000000000  0.4649300000000 1.0
C      1  0.5098030000000  0.4809860000000  0.5242030000000 1.0
C      1  0.4666340000000  0.4625640000000  0.5458850000000 1.0
C      1  0.5144590000000  0.4559550000000  0.4439460000000 1.0
C      1  0.4562140000000  0.4996940000000  0.4510580000000 1.0
C      1  0.5182580000000  0.4883190000000  0.4069880000000 1.0
C      1  0.4841780000000  0.5503990000000  0.4955090000000 1.0
C      1  0.5060330000000  0.4286040000000  0.4605180000000 1.0
C      1  0.4839960000000  0.4987980000000  0.5735840000000 1.0
C      1  0.5112850000000  0.4562870000000  0.4761330000000 1.0
C      1  0.4012370000000  0.4484190000000  0.4557380000000 1.0
C      1  0.4786930000000  0.4892660000000  0.4641000000000 1.0
C      1  0.4734300000000  0.4651500000000  0.5148700000000 1.0
C      1  0.4614180000000  0.5450560000000  0.4707380000000 1.0
C      1  0.4555720000000  0.5281360000000  0.4512960000000 1.0
C      1  0.5327450000000  0.5234020000000  0.5526280000000 1.0
C      1  0.4945460000000  0.5070130000000  0.5073490000000 1.0
C      1  0.5149300000000  0.5494410000000  0.4700370000000 1.0
C      1  0.5115060000000  0.4553490000000  0.5468750000000 1.0
C      1  0.4629740000000  0.4838650000000  0.5643230000000 1.0
C      1  0.4514570000000  0.5506630000000  0.5027600000000 1.0
C      1  0.5605030000000  0.5196960000000  0.5126570000000 1.0
C      1  0.5270300000000  0.5682700000000  0.5381870000000 1.0
C      1  0.4934760000000  0.4113660000000  0.4789830000000 1.0
C      1  0.5479670000000  0.5558170000000  0.4749290000000 1.0
C      1  0.4390470000000  0.5130040000000  0.5355090000000 1.0
C      1  0.5017260000000  0.5578160000000  0.5194530000000 1.0
C      1  0.4331300000000  0.4839840000000  0.4492420000000 1.0
C      1  0.5799780000000  0.5025780000000  0.4823580000000 1.0
END
