TITL C-27134-4977-148 0.00248107403161725 125000 -303.937730917254 0 0 60 (C1) n - 1
REM
REM in /home/nfs/bkarasulu/CARBON/AIRSS/Generating-Clusters/AIREBO/Higher-Symm/Only-C60
REM
REM
REM
REM
REM
REM ./C.cell (28575a23ae977d3b5fae324c64b13b57)
REM
REM compiler GCC version 9.2.1 20190827 (Red Hat 9.2.1-1)
REM options -cpp -mtune=generic -march=x86-64 -g -O0 -fpre-include=/usr/include/finclude/math-vector-fortran.h
REM seed 2139054816 -839394452 -367384376 1336103154 -1475907013 -1855228548 823754557 1533900311 -1205315552 114181967 440167839 1091737152 1891161310 1873049390 1392673938 -95341836 1890073626 -1717160881 1654351349 1264019668 1690747848 -1904745452 236574678 -735541059 -810625092 239092267 932406646 -800584353 -158578805 -473226537 1161599870 1882624562 2145188441
REM
CELL 1.54180   50.00000   50.00000   50.00000   90.00000   90.00000   90.00000
LATT -1
SFAC C  
C      1  0.5115790000000  0.4485450000000  0.5139700000000 1.0
C      1  0.5523430000000  0.4951900000000  0.5141020000000 1.0
C      1  0.5207070000000  0.5483310000000  0.5140730000000 1.0
C      1  0.4603550000000  0.5347640000000  0.5140390000000 1.0
C      1  0.4547950000000  0.4730480000000  0.5141200000000 1.0
C      1  0.5037200000000  0.5488320000000  0.4445770000000 1.0
C      1  0.4544070000000  0.5181760000000  0.4444100000000 1.0
C      1  0.4683490000000  0.4626250000000  0.4449550000000 1.0
C      1  0.5264240000000  0.4586460000000  0.4441470000000 1.0
C      1  0.5476210000000  0.5116650000000  0.4450010000000 1.0
C      1  0.5208430000000  0.5148440000000  0.5586620000000 1.0
C      1  0.4923760000000  0.5242840000000  0.5586780000000 1.0
C      1  0.4746040000000  0.5001390000000  0.5587350000000 1.0
C      1  0.4920680000000  0.4757490000000  0.5586480000000 1.0
C      1  0.5206450000000  0.4848480000000  0.5587020000000 1.0
C      1  0.4774470000000  0.4865440000000  0.4976950000000 1.0
C      1  0.5057940000000  0.4744470000000  0.4977770000000 1.0
C      1  0.5261650000000  0.4976040000000  0.4975470000000 1.0
C      1  0.5102770000000  0.5240960000000  0.4976840000000 1.0
C      1  0.4802050000000  0.5172700000000  0.4976720000000 1.0
C      1  0.5213980000000  0.5742010000000  0.4980360000000 1.0
C      1  0.4364890000000  0.5444000000000  0.4978980000000 1.0
C      1  0.4392440000000  0.4522840000000  0.4980900000000 1.0
C      1  0.5252450000000  0.4268790000000  0.4976400000000 1.0
C      1  0.5771510000000  0.5029550000000  0.4981540000000 1.0
C      1  0.4455950000000  0.4860020000000  0.4546300000000 1.0
C      1  0.4958730000000  0.4442920000000  0.4533720000000 1.0
C      1  0.5522510000000  0.4793890000000  0.4547270000000 1.0
C      1  0.5358960000000  0.5430690000000  0.4545470000000 1.0
C      1  0.4700480000000  0.5472240000000  0.4533500000000 1.0
C      1  0.5248920000000  0.5062650000000  0.4653310000000 1.0
C      1  0.5016100000000  0.5259360000000  0.4653310000000 1.0
C      1  0.4757300000000  0.5097580000000  0.4654860000000 1.0
C      1  0.4834620000000  0.4802220000000  0.4654270000000 1.0
C      1  0.5138660000000  0.4777030000000  0.4654190000000 1.0
C      1  0.4461080000000  0.5009970000000  0.5409290000000 1.0
C      1  0.4823240000000  0.4489530000000  0.5407240000000 1.0
C      1  0.5431620000000  0.4673740000000  0.5408740000000 1.0
C      1  0.5443570000000  0.5310040000000  0.5408040000000 1.0
C      1  0.4843930000000  0.5515860000000  0.5407330000000 1.0
C      1  0.5467140000000  0.5321440000000  0.5724610000000 1.0
C      1  0.4841170000000  0.5543350000000  0.5723780000000 1.0
C      1  0.4435230000000  0.5012950000000  0.5725850000000 1.0
C      1  0.4810110000000  0.4466270000000  0.5723790000000 1.0
C      1  0.5451630000000  0.4656870000000  0.5725240000000 1.0
C      1  0.5481320000000  0.5286170000000  0.5093550000000 1.0
C      1  0.4876260000000  0.5546800000000  0.5092700000000 1.0
C      1  0.4442250000000  0.5051420000000  0.5095360000000 1.0
C      1  0.4778050000000  0.4484660000000  0.5092320000000 1.0
C      1  0.5420460000000  0.4630160000000  0.5094730000000 1.0
C      1  0.4396660000000  0.5390990000000  0.4662810000000 1.0
C      1  0.4437960000000  0.4538640000000  0.4659840000000 1.0
C      1  0.5253970000000  0.4331440000000  0.4660350000000 1.0
C      1  0.5726260000000  0.5043260000000  0.4660190000000 1.0
C      1  0.5184300000000  0.5698530000000  0.4661190000000 1.0
C      1  0.4732440000000  0.4425860000000  0.4787180000000 1.0
C      1  0.5456210000000  0.4573530000000  0.4787310000000 1.0
C      1  0.5552720000000  0.5305800000000  0.4789040000000 1.0
C      1  0.4878860000000  0.5615160000000  0.4785260000000 1.0
C      1  0.4378800000000  0.5075330000000  0.4787970000000 1.0
END
