TITL C-27139-4854-175 -0.00316295970625186 125000 -346.668209539667 0 0 60 (C1) n - 1
REM
REM in /home/nfs/bkarasulu/CARBON/AIRSS/Generating-Clusters/AIREBO/Higher-Symm/Only-C60
REM
REM
REM
REM
REM
REM ./C.cell (28575a23ae977d3b5fae324c64b13b57)
REM
REM compiler GCC version 9.2.1 20190827 (Red Hat 9.2.1-1)
REM options -cpp -mtune=generic -march=x86-64 -g -O0 -fpre-include=/usr/include/finclude/math-vector-fortran.h
REM seed 1146191634 -204880977 646786178 -1856079855 -2108564386 -881243456 1091111388 1610240641 -1832440737 -1789423448 -1012198848 -1969577976 -622812491 -2111921995 1100952851 -1313683579 425925126 1142780520 1121361726 1935551076 -337718129 724765792 1195642222 887361595 920546572 -84884451 2003505567 -1995835381 1092343057 -2131324773 -88151416 462810787 551323499
REM
CELL 1.54180   50.00000   50.00000   50.00000   90.00000   90.00000   90.00000
LATT -1
SFAC C  
C      1  0.4741320000000  0.5102890000000  0.5704700000000 1.0
C      1  0.4511860000000  0.5105870000000  0.4422490000000 1.0
C      1  0.5661000000000  0.5026230000000  0.4854000000000 1.0
C      1  0.4753060000000  0.5108830000000  0.4293140000000 1.0
C      1  0.4499750000000  0.5116140000000  0.5573210000000 1.0
C      1  0.5691910000000  0.5038300000000  0.5121370000000 1.0
C      1  0.5400890000000  0.4211210000000  0.4712880000000 1.0
C      1  0.5161380000000  0.4152400000000  0.5474330000000 1.0
C      1  0.4490770000000  0.4211780000000  0.4871400000000 1.0
C      1  0.5387400000000  0.4231280000000  0.5330670000000 1.0
C      1  0.5143620000000  0.4204340000000  0.4607900000000 1.0
C      1  0.4552400000000  0.4237470000000  0.5143040000000 1.0
C      1  0.5242400000000  0.5036460000000  0.4847160000000 1.0
C      1  0.4980760000000  0.5003100000000  0.5314120000000 1.0
C      1  0.4729130000000  0.5052750000000  0.4843480000000 1.0
C      1  0.5247250000000  0.5008340000000  0.5149750000000 1.0
C      1  0.4988270000000  0.5160330000000  0.4731470000000 1.0
C      1  0.4710630000000  0.5052720000000  0.5144850000000 1.0
C      1  0.4504680000000  0.5265990000000  0.4722170000000 1.0
C      1  0.5459950000000  0.5257380000000  0.4706400000000 1.0
C      1  0.5004400000000  0.5247560000000  0.5545120000000 1.0
C      1  0.4496930000000  0.5273140000000  0.5271580000000 1.0
C      1  0.5468410000000  0.5210040000000  0.5301800000000 1.0
C      1  0.5005490000000  0.5281430000000  0.4442710000000 1.0
C      1  0.5282330000000  0.5743220000000  0.4877550000000 1.0
C      1  0.4969330000000  0.5726430000000  0.5284480000000 1.0
C      1  0.4769200000000  0.5736720000000  0.4811310000000 1.0
C      1  0.5255470000000  0.5706010000000  0.5150890000000 1.0
C      1  0.5024340000000  0.5734230000000  0.4699550000000 1.0
C      1  0.4743820000000  0.5715350000000  0.5121180000000 1.0
C      1  0.4968080000000  0.4892330000000  0.5716110000000 1.0
C      1  0.4441380000000  0.4886270000000  0.4623540000000 1.0
C      1  0.5530430000000  0.4875640000000  0.4622590000000 1.0
C      1  0.4983920000000  0.4914730000000  0.4291330000000 1.0
C      1  0.4412820000000  0.4899970000000  0.5375840000000 1.0
C      1  0.5650050000000  0.4870760000000  0.5401990000000 1.0
C      1  0.4990770000000  0.4722360000000  0.4514980000000 1.0
C      1  0.5425450000000  0.4763160000000  0.5233540000000 1.0
C      1  0.4668260000000  0.4755580000000  0.5288060000000 1.0
C      1  0.4941800000000  0.4701660000000  0.5470000000000 1.0
C      1  0.5255930000000  0.4734730000000  0.4704800000000 1.0
C      1  0.4715640000000  0.4744490000000  0.4708710000000 1.0
C      1  0.5480180000000  0.5052300000000  0.5595630000000 1.0
C      1  0.4292840000000  0.5035690000000  0.5133300000000 1.0
C      1  0.5229220000000  0.5086250000000  0.4277020000000 1.0
C      1  0.5470430000000  0.5079670000000  0.4410440000000 1.0
C      1  0.4307420000000  0.5021930000000  0.4862190000000 1.0
C      1  0.5231120000000  0.5048750000000  0.5712470000000 1.0
C      1  0.4767950000000  0.4482400000000  0.5186080000000 1.0
C      1  0.4976620000000  0.4444970000000  0.4682270000000 1.0
C      1  0.5320870000000  0.4500920000000  0.5152310000000 1.0
C      1  0.4720170000000  0.4461030000000  0.4860130000000 1.0
C      1  0.5043920000000  0.4431730000000  0.5325480000000 1.0
C      1  0.5297830000000  0.4471930000000  0.4860790000000 1.0
C      1  0.5380560000000  0.5489270000000  0.5328890000000 1.0
C      1  0.4499670000000  0.5537500000000  0.5150210000000 1.0
C      1  0.5121440000000  0.5553440000000  0.4474230000000 1.0
C      1  0.5368300000000  0.5537750000000  0.4662470000000 1.0
C      1  0.4525940000000  0.5536550000000  0.4840950000000 1.0
C      1  0.5102830000000  0.5508290000000  0.5458920000000 1.0
END
