TITL C-27141-4733-83 -0.000300225227437307 125000 -329.289416203308 0 0 60 (C1) n - 1
REM
REM in /home/nfs/bkarasulu/CARBON/AIRSS/Generating-Clusters/AIREBO/Higher-Symm/Only-C60
REM
REM
REM
REM
REM
REM ./C.cell (28575a23ae977d3b5fae324c64b13b57)
REM
REM compiler GCC version 9.2.1 20190827 (Red Hat 9.2.1-1)
REM options -cpp -mtune=generic -march=x86-64 -g -O0 -fpre-include=/usr/include/finclude/math-vector-fortran.h
REM seed 800811376 -605396282 427994129 1728005435 -1676299257 27874708 784875258 1238440908 741008636 -718906394 2058800014 1625856962 84830754 -1450135703 -372165405 1545896785 398238953 -1295605284 -890710974 1176513422 764123916 -1679007303 1119943358 1577664495 814584418 -802736431 432387839 -1742860057 -164264056 -1884742166 457779608 1158396250 1797145488
REM
CELL 1.54180   50.00000   50.00000   50.00000   90.00000   90.00000   90.00000
LATT -1
SFAC C  
C      1  0.4768420000000  0.4564800000000  0.4744250000000 1.0
C      1  0.4776180000000  0.4560070000000  0.5320510000000 1.0
C      1  0.4742050000000  0.5191140000000  0.5441050000000 1.0
C      1  0.4663920000000  0.5545370000000  0.4981970000000 1.0
C      1  0.4784920000000  0.5166370000000  0.4577050000000 1.0
C      1  0.4844090000000  0.5389850000000  0.4774840000000 1.0
C      1  0.4628400000000  0.5458820000000  0.5283320000000 1.0
C      1  0.4728520000000  0.4873690000000  0.5427200000000 1.0
C      1  0.4697550000000  0.4436580000000  0.5037480000000 1.0
C      1  0.4723870000000  0.4837660000000  0.4596980000000 1.0
C      1  0.5434830000000  0.5675390000000  0.5320120000000 1.0
C      1  0.5591920000000  0.5475100000000  0.4549240000000 1.0
C      1  0.5489100000000  0.4730860000000  0.4275880000000 1.0
C      1  0.5653540000000  0.4439450000000  0.5020010000000 1.0
C      1  0.5559130000000  0.4900080000000  0.5689290000000 1.0
C      1  0.5588440000000  0.4481630000000  0.5309110000000 1.0
C      1  0.5512810000000  0.4549530000000  0.4482230000000 1.0
C      1  0.5618830000000  0.5275420000000  0.4358860000000 1.0
C      1  0.5614390000000  0.5095980000000  0.5005250000000 1.0
C      1  0.5499110000000  0.5170060000000  0.5695530000000 1.0
C      1  0.4928600000000  0.5729870000000  0.4948240000000 1.0
C      1  0.5046610000000  0.5172870000000  0.4369090000000 1.0
C      1  0.5036960000000  0.4417760000000  0.4657190000000 1.0
C      1  0.5062730000000  0.4469790000000  0.5418050000000 1.0
C      1  0.4996470000000  0.5305690000000  0.5602810000000 1.0
C      1  0.4933470000000  0.4250940000000  0.4920630000000 1.0
C      1  0.4932750000000  0.4864340000000  0.4360910000000 1.0
C      1  0.5098010000000  0.5577250000000  0.4715040000000 1.0
C      1  0.4856290000000  0.5569540000000  0.5475530000000 1.0
C      1  0.4998050000000  0.4760080000000  0.5583510000000 1.0
C      1  0.4981710000000  0.5896260000000  0.5153830000000 1.0
C      1  0.5031240000000  0.5463050000000  0.4249520000000 1.0
C      1  0.4989870000000  0.4387700000000  0.4347680000000 1.0
C      1  0.5094100000000  0.4169580000000  0.5357550000000 1.0
C      1  0.4978150000000  0.5145420000000  0.5871910000000 1.0
C      1  0.5043220000000  0.4083180000000  0.5100620000000 1.0
C      1  0.4934580000000  0.4598000000000  0.4213710000000 1.0
C      1  0.5062620000000  0.5655340000000  0.4414150000000 1.0
C      1  0.4944190000000  0.5818380000000  0.5417520000000 1.0
C      1  0.4986860000000  0.4890300000000  0.5858850000000 1.0
C      1  0.4371420000000  0.4845850000000  0.4605300000000 1.0
C      1  0.4346020000000  0.4515590000000  0.5040350000000 1.0
C      1  0.4368900000000  0.4851160000000  0.5443300000000 1.0
C      1  0.4288550000000  0.5339390000000  0.5239480000000 1.0
C      1  0.4307740000000  0.5330560000000  0.4723460000000 1.0
C      1  0.4453800000000  0.5129600000000  0.4593570000000 1.0
C      1  0.4374840000000  0.5432410000000  0.4975440000000 1.0
C      1  0.4425670000000  0.5131380000000  0.5389970000000 1.0
C      1  0.4452440000000  0.4617060000000  0.5294930000000 1.0
C      1  0.4447210000000  0.4624940000000  0.4789150000000 1.0
C      1  0.5265000000000  0.5239640000000  0.5477440000000 1.0
C      1  0.5433590000000  0.5304160000000  0.5015840000000 1.0
C      1  0.5336260000000  0.5170750000000  0.4517140000000 1.0
C      1  0.5281070000000  0.4596800000000  0.4706530000000 1.0
C      1  0.5295190000000  0.4643510000000  0.5305970000000 1.0
C      1  0.5314620000000  0.4902110000000  0.5465250000000 1.0
C      1  0.5390240000000  0.4588780000000  0.4983400000000 1.0
C      1  0.5272420000000  0.4867310000000  0.4494100000000 1.0
C      1  0.5346650000000  0.5411190000000  0.4752740000000 1.0
C      1  0.5371870000000  0.5414590000000  0.5260100000000 1.0
END
