TITL C-27143-4867-12 -0.00951893735593956 125000 -320.580373751596 0 0 60 (C1) n - 1
REM
REM in /home/nfs/bkarasulu/CARBON/AIRSS/Generating-Clusters/AIREBO/Higher-Symm/Only-C60
REM
REM
REM
REM
REM
REM ./C.cell (28575a23ae977d3b5fae324c64b13b57)
REM
REM compiler GCC version 9.2.1 20190827 (Red Hat 9.2.1-1)
REM options -cpp -mtune=generic -march=x86-64 -g -O0 -fpre-include=/usr/include/finclude/math-vector-fortran.h
REM seed -742815457 190590398 -2094742989 -575936298 1356311393 -1780321078 -1661567999 -1234132119 2080739275 1177635605 -993601375 623348505 1157961122 -1397801885 -1995437874 -1170951350 30769637 -715557963 771096400 1236633897 -652814600 -215994487 1418338460 -1642171207 -653739647 -437357071 -1393410184 1555720389 -538543746 -1597486822 678041285 497760769 502169082
REM
CELL 1.54180   50.00000   50.00000   50.00000   90.00000   90.00000   90.00000
LATT -1
SFAC C  
C      1  0.4600670000000  0.4636220000000  0.5474160000000 1.0
C      1  0.5462390000000  0.5380690000000  0.5496220000000 1.0
C      1  0.4527890000000  0.4485410000000  0.4545290000000 1.0
C      1  0.5497060000000  0.5427120000000  0.4562260000000 1.0
C      1  0.4509520000000  0.4504600000000  0.4837520000000 1.0
C      1  0.5508410000000  0.5463360000000  0.4858350000000 1.0
C      1  0.4544870000000  0.4619540000000  0.5155550000000 1.0
C      1  0.5442470000000  0.5363410000000  0.5176580000000 1.0
C      1  0.5354830000000  0.4493730000000  0.4810390000000 1.0
C      1  0.4643890000000  0.5494780000000  0.4864410000000 1.0
C      1  0.5408500000000  0.4455560000000  0.5114610000000 1.0
C      1  0.4604800000000  0.5574500000000  0.5180780000000 1.0
C      1  0.5247310000000  0.5499980000000  0.4406440000000 1.0
C      1  0.4785540000000  0.4401270000000  0.4446350000000 1.0
C      1  0.5256700000000  0.5540500000000  0.5609500000000 1.0
C      1  0.4831400000000  0.4521920000000  0.5568240000000 1.0
C      1  0.5145790000000  0.4361900000000  0.4592020000000 1.0
C      1  0.4877710000000  0.5585640000000  0.4676620000000 1.0
C      1  0.5188560000000  0.4332630000000  0.5283970000000 1.0
C      1  0.4843130000000  0.5655070000000  0.5409610000000 1.0
C      1  0.5117730000000  0.5177830000000  0.5702490000000 1.0
C      1  0.4848060000000  0.5050050000000  0.5617160000000 1.0
C      1  0.5115000000000  0.5129130000000  0.4337390000000 1.0
C      1  0.4921980000000  0.4868620000000  0.4352750000000 1.0
C      1  0.5443960000000  0.5118080000000  0.5627530000000 1.0
C      1  0.4575180000000  0.4903370000000  0.5556290000000 1.0
C      1  0.5433980000000  0.5151520000000  0.4452970000000 1.0
C      1  0.4459990000000  0.4731170000000  0.4413440000000 1.0
C      1  0.4968660000000  0.5443240000000  0.5549270000000 1.0
C      1  0.5115400000000  0.4617160000000  0.5455720000000 1.0
C      1  0.4985190000000  0.5386060000000  0.4518510000000 1.0
C      1  0.5024210000000  0.4627030000000  0.4457700000000 1.0
C      1  0.4667270000000  0.4922820000000  0.4468280000000 1.0
C      1  0.5204670000000  0.4984130000000  0.4632430000000 1.0
C      1  0.4719090000000  0.5105240000000  0.5323800000000 1.0
C      1  0.5211820000000  0.4926130000000  0.5479420000000 1.0
C      1  0.5117530000000  0.4685730000000  0.5122710000000 1.0
C      1  0.4832780000000  0.5332240000000  0.5175950000000 1.0
C      1  0.5144710000000  0.4750560000000  0.4816560000000 1.0
C      1  0.4864250000000  0.5235560000000  0.4868360000000 1.0
C      1  0.5012620000000  0.5774010000000  0.5155770000000 1.0
C      1  0.4972840000000  0.4212690000000  0.5101740000000 1.0
C      1  0.5083520000000  0.5681210000000  0.4863830000000 1.0
C      1  0.4946600000000  0.4344490000000  0.4820880000000 1.0
C      1  0.5648010000000  0.4581520000000  0.5228080000000 1.0
C      1  0.4353590000000  0.5410670000000  0.5275810000000 1.0
C      1  0.5586390000000  0.4663600000000  0.4688940000000 1.0
C      1  0.4393700000000  0.5378600000000  0.4727880000000 1.0
C      1  0.4850770000000  0.4513600000000  0.5169340000000 1.0
C      1  0.5134520000000  0.5460430000000  0.5190670000000 1.0
C      1  0.4814740000000  0.4658590000000  0.4863860000000 1.0
C      1  0.5183990000000  0.5353860000000  0.4871610000000 1.0
C      1  0.5428940000000  0.5029110000000  0.5238190000000 1.0
C      1  0.4531180000000  0.4931870000000  0.5114070000000 1.0
C      1  0.5361230000000  0.5068130000000  0.4922330000000 1.0
C      1  0.4672120000000  0.4961970000000  0.4806040000000 1.0
C      1  0.4384400000000  0.5124350000000  0.4725380000000 1.0
C      1  0.5582440000000  0.4910080000000  0.4740140000000 1.0
C      1  0.4335680000000  0.5164730000000  0.5227170000000 1.0
C      1  0.5669830000000  0.4832990000000  0.5270660000000 1.0
END
