TITL C-27135-6010-111 -4.12869175239567e-05 125000 -341.267414009408 0 0 60 (C1) n - 1
REM
REM in /home/nfs/bkarasulu/CARBON/AIRSS/Generating-Clusters/AIREBO/Higher-Symm/Only-C60
REM
REM
REM
REM
REM
REM ./C.cell (28575a23ae977d3b5fae324c64b13b57)
REM
REM compiler GCC version 9.2.1 20190827 (Red Hat 9.2.1-1)
REM options -cpp -mtune=generic -march=x86-64 -g -O0 -fpre-include=/usr/include/finclude/math-vector-fortran.h
REM seed 58836200 1282490357 440891754 1836339555 29258618 -423830840 -1335976586 446395810 294043947 -959975262 -192770978 -493852504 -1651405865 887992060 -1880387621 1934422752 1278596195 -1027346539 1831756001 -519252999 -487475639 -92176085 -490830422 890125208 1463669686 282388950 -1935386428 -2072755046 -335875284 -1504815262 -53227219 -1366681328 -2044467574
REM
CELL 1.54180   50.00000   50.00000   50.00000   90.00000   90.00000   90.00000
LATT -1
SFAC C  
C      1  0.4512440000000  0.5204260000000  0.5108470000000 1.0
C      1  0.4531720000000  0.4544720000000  0.5440960000000 1.0
C      1  0.4871730000000  0.5386400000000  0.5514060000000 1.0
C      1  0.5177850000000  0.4684330000000  0.5505070000000 1.0
C      1  0.5502460000000  0.5414190000000  0.5326410000000 1.0
C      1  0.5496230000000  0.4827210000000  0.4755400000000 1.0
C      1  0.5447850000000  0.5343260000000  0.4568280000000 1.0
C      1  0.5111780000000  0.4378440000000  0.4704080000000 1.0
C      1  0.4820610000000  0.5355710000000  0.4445350000000 1.0
C      1  0.4422670000000  0.4790230000000  0.4780690000000 1.0
C      1  0.5361810000000  0.4360740000000  0.4597840000000 1.0
C      1  0.5050930000000  0.5519290000000  0.4323910000000 1.0
C      1  0.4684310000000  0.4676960000000  0.4654450000000 1.0
C      1  0.4673810000000  0.5503050000000  0.4897170000000 1.0
C      1  0.4537910000000  0.4505590000000  0.5158550000000 1.0
C      1  0.4606030000000  0.5535860000000  0.5447420000000 1.0
C      1  0.5008000000000  0.4476770000000  0.5575570000000 1.0
C      1  0.5343310000000  0.5538610000000  0.5565260000000 1.0
C      1  0.5410330000000  0.4512390000000  0.5230660000000 1.0
C      1  0.5424770000000  0.5434930000000  0.4820240000000 1.0
C      1  0.5407360000000  0.4954940000000  0.4252460000000 1.0
C      1  0.4906600000000  0.5004860000000  0.4127510000000 1.0
C      1  0.4451370000000  0.5060060000000  0.4331640000000 1.0
C      1  0.4132520000000  0.5060870000000  0.4775870000000 1.0
C      1  0.4229060000000  0.4884750000000  0.5317600000000 1.0
C      1  0.4586500000000  0.4981910000000  0.5650540000000 1.0
C      1  0.5045030000000  0.5026130000000  0.5801880000000 1.0
C      1  0.5501100000000  0.5013370000000  0.5617000000000 1.0
C      1  0.5761920000000  0.5016700000000  0.5201360000000 1.0
C      1  0.5831690000000  0.5014740000000  0.4656890000000 1.0
C      1  0.5152730000000  0.5152290000000  0.4881170000000 1.0
C      1  0.4975960000000  0.4644940000000  0.4791310000000 1.0
C      1  0.4882160000000  0.5267220000000  0.4767050000000 1.0
C      1  0.4766840000000  0.4598840000000  0.5037660000000 1.0
C      1  0.4803080000000  0.5132860000000  0.5068300000000 1.0
C      1  0.4903340000000  0.4848910000000  0.5127110000000 1.0
C      1  0.4991250000000  0.5316680000000  0.5233720000000 1.0
C      1  0.5210290000000  0.4760750000000  0.5196800000000 1.0
C      1  0.5288870000000  0.5357370000000  0.5110080000000 1.0
C      1  0.5216460000000  0.4855690000000  0.4881340000000 1.0
C      1  0.5156710000000  0.4907240000000  0.4166040000000 1.0
C      1  0.4711310000000  0.5140760000000  0.4272550000000 1.0
C      1  0.4290880000000  0.4981760000000  0.4540510000000 1.0
C      1  0.4317310000000  0.4989320000000  0.5037980000000 1.0
C      1  0.4423550000000  0.4799090000000  0.5507670000000 1.0
C      1  0.4816760000000  0.5140230000000  0.5685200000000 1.0
C      1  0.5256580000000  0.4890790000000  0.5676320000000 1.0
C      1  0.5621350000000  0.5146490000000  0.5404350000000 1.0
C      1  0.5755520000000  0.4951550000000  0.4937020000000 1.0
C      1  0.5541260000000  0.5059660000000  0.4509870000000 1.0
C      1  0.5557990000000  0.4536350000000  0.4668330000000 1.0
C      1  0.5316100000000  0.5479900000000  0.4363900000000 1.0
C      1  0.4660510000000  0.4570070000000  0.4413160000000 1.0
C      1  0.4624710000000  0.5537990000000  0.4627390000000 1.0
C      1  0.4316200000000  0.4564740000000  0.4988730000000 1.0
C      1  0.4462140000000  0.5436460000000  0.5235970000000 1.0
C      1  0.4739390000000  0.4430850000000  0.5591960000000 1.0
C      1  0.5102910000000  0.5561740000000  0.5626410000000 1.0
C      1  0.5587520000000  0.4331570000000  0.5263380000000 1.0
C      1  0.5700650000000  0.5596630000000  0.5236140000000 1.0
END
