TITL C-27133-8107-3 -0.000759756366656975 125000 -320.983252105185 0 0 60 (C1) n - 1
REM
REM in /home/nfs/bkarasulu/CARBON/AIRSS/Generating-Clusters/AIREBO/Higher-Symm/Only-C60
REM
REM
REM
REM
REM
REM ./C.cell (28575a23ae977d3b5fae324c64b13b57)
REM
REM compiler GCC version 9.2.1 20190827 (Red Hat 9.2.1-1)
REM options -cpp -mtune=generic -march=x86-64 -g -O0 -fpre-include=/usr/include/finclude/math-vector-fortran.h
REM seed -632591063 2108681756 -539483598 2124322939 -110355347 -947565853 -631010678 -352955557 1885721564 -707792529 -1078441099 1060993856 605155765 -1150864512 505953089 -391201059 536029380 1472215103 1300092337 280889250 1374994674 53398590 -1253842657 1236030610 2041448747 -1464401283 -2122102145 -1507617520 1134528673 1229347233 -990532382 -1001123254 135512514
REM
CELL 1.54180   50.00000   50.00000   50.00000   90.00000   90.00000   90.00000
LATT -1
SFAC C  
C      1  0.4902990000000  0.4831200000000  0.4531520000000 1.0
C      1  0.4934280000000  0.4374030000000  0.5340010000000 1.0
C      1  0.4927320000000  0.5194050000000  0.5004190000000 1.0
C      1  0.5747320000000  0.4693840000000  0.4310900000000 1.0
C      1  0.4522810000000  0.4567520000000  0.4562630000000 1.0
C      1  0.5065730000000  0.4997200000000  0.5643940000000 1.0
C      1  0.4589760000000  0.4646040000000  0.5354910000000 1.0
C      1  0.5436430000000  0.5925450000000  0.4867440000000 1.0
C      1  0.4727340000000  0.5623630000000  0.4767760000000 1.0
C      1  0.4809260000000  0.5532520000000  0.4447200000000 1.0
C      1  0.5143750000000  0.5004700000000  0.4365400000000 1.0
C      1  0.4841550000000  0.6031490000000  0.5136590000000 1.0
C      1  0.4780120000000  0.5373930000000  0.5491650000000 1.0
C      1  0.5387680000000  0.5587680000000  0.5521620000000 1.0
C      1  0.5278460000000  0.4768250000000  0.5509690000000 1.0
C      1  0.5565910000000  0.5392190000000  0.5373890000000 1.0
C      1  0.4510490000000  0.4966710000000  0.5577760000000 1.0
C      1  0.5031380000000  0.4459830000000  0.4461700000000 1.0
C      1  0.4970880000000  0.4759550000000  0.4205300000000 1.0
C      1  0.4999190000000  0.5284650000000  0.5647070000000 1.0
C      1  0.5464150000000  0.4245020000000  0.4843680000000 1.0
C      1  0.4307170000000  0.4879720000000  0.5007020000000 1.0
C      1  0.4547190000000  0.4300940000000  0.4971840000000 1.0
C      1  0.5231500000000  0.4236480000000  0.4987420000000 1.0
C      1  0.5315030000000  0.4659700000000  0.5286590000000 1.0
C      1  0.4769080000000  0.4464230000000  0.4383010000000 1.0
C      1  0.4936180000000  0.4820360000000  0.5137280000000 1.0
C      1  0.4813680000000  0.5598140000000  0.5332280000000 1.0
C      1  0.5203590000000  0.5470820000000  0.5703690000000 1.0
C      1  0.5286550000000  0.5783140000000  0.5327960000000 1.0
C      1  0.5547370000000  0.4589210000000  0.4466030000000 1.0
C      1  0.5050310000000  0.5279350000000  0.4637850000000 1.0
C      1  0.4547370000000  0.4602110000000  0.4849200000000 1.0
C      1  0.5010570000000  0.5843650000000  0.5327510000000 1.0
C      1  0.5437150000000  0.6093260000000  0.4666100000000 1.0
C      1  0.4417890000000  0.4631130000000  0.5154540000000 1.0
C      1  0.4976660000000  0.4685080000000  0.5745210000000 1.0
C      1  0.5034890000000  0.5515980000000  0.4775120000000 1.0
C      1  0.4973520000000  0.4158160000000  0.5132370000000 1.0
C      1  0.5412030000000  0.5740400000000  0.5068910000000 1.0
C      1  0.4589090000000  0.4666810000000  0.5672630000000 1.0
C      1  0.4647790000000  0.4902280000000  0.4973790000000 1.0
C      1  0.4629500000000  0.4771260000000  0.4338330000000 1.0
C      1  0.4881980000000  0.4799030000000  0.5437620000000 1.0
C      1  0.4728310000000  0.4099410000000  0.5005700000000 1.0
C      1  0.4545650000000  0.5407660000000  0.4955530000000 1.0
C      1  0.5945250000000  0.4808420000000  0.4182890000000 1.0
C      1  0.5564460000000  0.4353820000000  0.4615810000000 1.0
C      1  0.5044290000000  0.5322030000000  0.4336060000000 1.0
C      1  0.4829980000000  0.4438900000000  0.5596240000000 1.0
C      1  0.5087930000000  0.4534360000000  0.5066690000000 1.0
C      1  0.5273540000000  0.4701730000000  0.4462930000000 1.0
C      1  0.4546940000000  0.5190970000000  0.5122600000000 1.0
C      1  0.5511280000000  0.5471130000000  0.5068870000000 1.0
C      1  0.5089410000000  0.4639670000000  0.4742040000000 1.0
C      1  0.5168580000000  0.5063790000000  0.5088550000000 1.0
C      1  0.5352960000000  0.5212640000000  0.5212150000000 1.0
C      1  0.4726840000000  0.5746200000000  0.5066290000000 1.0
C      1  0.4572860000000  0.5195720000000  0.5408590000000 1.0
C      1  0.4808820000000  0.5062830000000  0.4721930000000 1.0
END
