TITL C-27140-5627-186 0.000478840085390431 125000 -314.393382651575 0 0 60 (C1) n - 1
REM
REM in /home/nfs/bkarasulu/CARBON/AIRSS/Generating-Clusters/AIREBO/Higher-Symm/Only-C60
REM
REM
REM
REM
REM
REM ./C.cell (28575a23ae977d3b5fae324c64b13b57)
REM
REM compiler GCC version 9.2.1 20190827 (Red Hat 9.2.1-1)
REM options -cpp -mtune=generic -march=x86-64 -g -O0 -fpre-include=/usr/include/finclude/math-vector-fortran.h
REM seed 1988532163 193675119 -287910808 1737380334 1673530575 637227590 693224248 -1406023340 1597761279 2074773184 2038956104 -1329853269 321152153 -1683871763 990418243 -1433837622 -56380133 -386150180 -409808344 1065835764 397347034 -881427411 1998125732 531205637 598536475 1476352428 419011176 1815124866 -2003294562 -2025982497 -770350842 -717208121 428899110
REM
CELL 1.54180   50.00000   50.00000   50.00000   90.00000   90.00000   90.00000
LATT -1
SFAC C  
C      1  0.5236320000000  0.5655060000000  0.5303650000000 1.0
C      1  0.4517630000000  0.5485900000000  0.4992340000000 1.0
C      1  0.4440340000000  0.5064180000000  0.5382110000000 1.0
C      1  0.4464240000000  0.4491450000000  0.5273140000000 1.0
C      1  0.5044160000000  0.4280730000000  0.5257310000000 1.0
C      1  0.5552680000000  0.4604830000000  0.5259120000000 1.0
C      1  0.5653320000000  0.5287540000000  0.5183790000000 1.0
C      1  0.4690710000000  0.4612340000000  0.5415750000000 1.0
C      1  0.4930640000000  0.4483770000000  0.5448360000000 1.0
C      1  0.5254710000000  0.4573520000000  0.5430340000000 1.0
C      1  0.5451370000000  0.5168560000000  0.5333510000000 1.0
C      1  0.5171280000000  0.5351830000000  0.5371080000000 1.0
C      1  0.4832920000000  0.5344640000000  0.5403850000000 1.0
C      1  0.4588080000000  0.5280000000000  0.5495220000000 1.0
C      1  0.5792690000000  0.4967770000000  0.4573540000000 1.0
C      1  0.5485370000000  0.5653790000000  0.4612920000000 1.0
C      1  0.5025340000000  0.5798900000000  0.4604540000000 1.0
C      1  0.4197720000000  0.5228600000000  0.4659250000000 1.0
C      1  0.4119800000000  0.4757000000000  0.4725760000000 1.0
C      1  0.4680940000000  0.4175190000000  0.4732830000000 1.0
C      1  0.5353370000000  0.4382780000000  0.4381740000000 1.0
C      1  0.5259890000000  0.4523530000000  0.4576650000000 1.0
C      1  0.5310490000000  0.5151950000000  0.4676850000000 1.0
C      1  0.5010590000000  0.5312490000000  0.4678040000000 1.0
C      1  0.4787840000000  0.5171870000000  0.4688730000000 1.0
C      1  0.4613750000000  0.4889770000000  0.4712830000000 1.0
C      1  0.4767410000000  0.4653990000000  0.4621450000000 1.0
C      1  0.5049710000000  0.4741170000000  0.4585120000000 1.0
C      1  0.4760600000000  0.4430120000000  0.4858140000000 1.0
C      1  0.5312270000000  0.4511770000000  0.4877100000000 1.0
C      1  0.5595250000000  0.4998490000000  0.4770710000000 1.0
C      1  0.5398120000000  0.5506990000000  0.4835740000000 1.0
C      1  0.4978600000000  0.5603570000000  0.4827870000000 1.0
C      1  0.4456730000000  0.5183670000000  0.4768720000000 1.0
C      1  0.4346910000000  0.4796440000000  0.4889740000000 1.0
C      1  0.5216910000000  0.5300410000000  0.5037640000000 1.0
C      1  0.4896300000000  0.5396000000000  0.5084510000000 1.0
C      1  0.4637820000000  0.5176200000000  0.5056510000000 1.0
C      1  0.4657300000000  0.4877580000000  0.5205020000000 1.0
C      1  0.4860790000000  0.4682810000000  0.5062540000000 1.0
C      1  0.5193740000000  0.4711400000000  0.5125560000000 1.0
C      1  0.5427520000000  0.4901080000000  0.5284140000000 1.0
C      1  0.5061200000000  0.4346280000000  0.4993340000000 1.0
C      1  0.5548660000000  0.4737370000000  0.4945180000000 1.0
C      1  0.5598250000000  0.5284070000000  0.4919710000000 1.0
C      1  0.5225900000000  0.5699760000000  0.5035090000000 1.0
C      1  0.4654870000000  0.5673030000000  0.4886070000000 1.0
C      1  0.4278420000000  0.4983910000000  0.5146570000000 1.0
C      1  0.4470390000000  0.4530810000000  0.5003940000000 1.0
C      1  0.4894870000000  0.5074240000000  0.6219570000000 1.0
C      1  0.5099040000000  0.5090870000000  0.4197950000000 1.0
C      1  0.5079940000000  0.4862150000000  0.5473280000000 1.0
C      1  0.5134220000000  0.5009940000000  0.4444550000000 1.0
C      1  0.5100390000000  0.4959760000000  0.4835760000000 1.0
C      1  0.5067210000000  0.5024180000000  0.5168240000000 1.0
C      1  0.4963260000000  0.4992380000000  0.5975530000000 1.0
C      1  0.5009520000000  0.4921980000000  0.5722870000000 1.0
C      1  0.4834610000000  0.5131670000000  0.6468100000000 1.0
C      1  0.5062400000000  0.5251090000000  0.3696430000000 1.0
C      1  0.5085610000000  0.5160420000000  0.3941240000000 1.0
END
