TITL C-27136-4842-6 0.000693749636535479 125000 -355.806127974871 0 0 60 (C1) n - 1
REM
REM in /home/nfs/bkarasulu/CARBON/AIRSS/Generating-Clusters/AIREBO/Higher-Symm/Only-C60
REM
REM
REM
REM
REM
REM ./C.cell (28575a23ae977d3b5fae324c64b13b57)
REM
REM compiler GCC version 9.2.1 20190827 (Red Hat 9.2.1-1)
REM options -cpp -mtune=generic -march=x86-64 -g -O0 -fpre-include=/usr/include/finclude/math-vector-fortran.h
REM seed 78675639 1924029303 -2116643702 -1059896469 -2055672926 765261600 -1122368058 -1615765025 1243700448 -615124137 -1472208951 224632806 -1223885769 780056483 -274290254 -48403900 -1429259035 -1170966627 -1201697155 1030836854 2001660138 -1922654962 -61303717 -1442830824 -1135291919 1685776820 1715199984 -1443588841 -1984055933 -623557654 32469098 1018978133 -325679534
REM
CELL 1.54180   50.00000   50.00000   50.00000   90.00000   90.00000   90.00000
LATT -1
SFAC C  
C      1  0.5252320000000  0.5157180000000  0.4988530000000 1.0
C      1  0.4864280000000  0.5104140000000  0.5310140000000 1.0
C      1  0.4833040000000  0.5083620000000  0.4783950000000 1.0
C      1  0.4938890000000  0.4825090000000  0.5130050000000 1.0
C      1  0.4742990000000  0.4782320000000  0.4879390000000 1.0
C      1  0.5240690000000  0.4838090000000  0.5002660000000 1.0
C      1  0.4678210000000  0.5102510000000  0.5553380000000 1.0
C      1  0.4684400000000  0.4894320000000  0.4560760000000 1.0
C      1  0.5546400000000  0.4988220000000  0.5012630000000 1.0
C      1  0.5043910000000  0.4463190000000  0.4688240000000 1.0
C      1  0.5225820000000  0.4472140000000  0.5162110000000 1.0
C      1  0.4724900000000  0.4426750000000  0.5061600000000 1.0
C      1  0.4362200000000  0.5293910000000  0.4498040000000 1.0
C      1  0.5750290000000  0.5345290000000  0.4700420000000 1.0
C      1  0.4917200000000  0.5447520000000  0.5798800000000 1.0
C      1  0.5087190000000  0.5226380000000  0.4751140000000 1.0
C      1  0.5119640000000  0.5260350000000  0.5255490000000 1.0
C      1  0.4699580000000  0.5165870000000  0.5041440000000 1.0
C      1  0.5294270000000  0.5108810000000  0.4368830000000 1.0
C      1  0.5440970000000  0.5063100000000  0.5603940000000 1.0
C      1  0.4312210000000  0.5072140000000  0.5073940000000 1.0
C      1  0.4352750000000  0.4795730000000  0.4960580000000 1.0
C      1  0.5337210000000  0.4830840000000  0.4486950000000 1.0
C      1  0.5310280000000  0.4805030000000  0.5560760000000 1.0
C      1  0.4927130000000  0.4930080000000  0.4128050000000 1.0
C      1  0.5827300000000  0.4873780000000  0.5407930000000 1.0
C      1  0.4456380000000  0.4936590000000  0.5502020000000 1.0
C      1  0.4476760000000  0.5462400000000  0.4692010000000 1.0
C      1  0.5510460000000  0.5492880000000  0.4710270000000 1.0
C      1  0.5052560000000  0.5509250000000  0.5560530000000 1.0
C      1  0.4786920000000  0.4399950000000  0.4773790000000 1.0
C      1  0.5260910000000  0.4459670000000  0.4879620000000 1.0
C      1  0.4955450000000  0.4441250000000  0.5238810000000 1.0
C      1  0.5056250000000  0.4726400000000  0.5650380000000 1.0
C      1  0.4181910000000  0.4647110000000  0.4706940000000 1.0
C      1  0.5651790000000  0.4702130000000  0.4507290000000 1.0
C      1  0.5409330000000  0.4643230000000  0.5332330000000 1.0
C      1  0.4501460000000  0.4582830000000  0.5154990000000 1.0
C      1  0.5082630000000  0.4643900000000  0.4473620000000 1.0
C      1  0.4970330000000  0.5493620000000  0.4601890000000 1.0
C      1  0.5376990000000  0.5472280000000  0.5198620000000 1.0
C      1  0.4704420000000  0.5471490000000  0.5177960000000 1.0
C      1  0.5147380000000  0.5099930000000  0.4137210000000 1.0
C      1  0.5724120000000  0.5039040000000  0.5607090000000 1.0
C      1  0.4253650000000  0.5054320000000  0.5342380000000 1.0
C      1  0.4724600000000  0.5588340000000  0.4626800000000 1.0
C      1  0.5442350000000  0.5588770000000  0.4970430000000 1.0
C      1  0.4887190000000  0.5575100000000  0.5338250000000 1.0
C      1  0.5323090000000  0.5329860000000  0.5504280000000 1.0
C      1  0.4449110000000  0.5363850000000  0.4978430000000 1.0
C      1  0.5283040000000  0.5381470000000  0.4538820000000 1.0
C      1  0.4866640000000  0.4776230000000  0.4358000000000 1.0
C      1  0.5636070000000  0.4779830000000  0.5220180000000 1.0
C      1  0.4550010000000  0.4683670000000  0.5419480000000 1.0
C      1  0.4510290000000  0.4573460000000  0.4755340000000 1.0
C      1  0.5442730000000  0.4687780000000  0.4774110000000 1.0
C      1  0.4858770000000  0.4673710000000  0.5424080000000 1.0
C      1  0.5763510000000  0.5105340000000  0.4831590000000 1.0
C      1  0.4756360000000  0.5224080000000  0.5791760000000 1.0
C      1  0.4432460000000  0.5033840000000  0.4450930000000 1.0
END
