TITL C-27135-6010-44 0.00012528621536281 125000 -332.469616941136 0 0 60 (C1) n - 1
REM
REM in /home/nfs/bkarasulu/CARBON/AIRSS/Generating-Clusters/AIREBO/Higher-Symm/Only-C60
REM
REM
REM
REM
REM
REM ./C.cell (28575a23ae977d3b5fae324c64b13b57)
REM
REM compiler GCC version 9.2.1 20190827 (Red Hat 9.2.1-1)
REM options -cpp -mtune=generic -march=x86-64 -g -O0 -fpre-include=/usr/include/finclude/math-vector-fortran.h
REM seed 901075306 -172600077 -1927699563 2019255131 -2000854975 -397807164 -340643446 -1471702820 1661143233 -387046820 -1933353097 676720011 -1643615673 1653658437 695808722 -1366693333 -2004252278 923695380 -15966913 -1738022213 1652351583 -2134440309 -1902354360 -607120047 1928493699 1275865469 -611525879 -1667531902 1520846987 -735167893 -725107276 -1108820187 1218023235
REM
CELL 1.54180   50.00000   50.00000   50.00000   90.00000   90.00000   90.00000
LATT -1
SFAC C  
C      1  0.4315900000000  0.5141900000000  0.5104330000000 1.0
C      1  0.5261450000000  0.5097540000000  0.4318120000000 1.0
C      1  0.5427630000000  0.5222370000000  0.5440840000000 1.0
C      1  0.4417950000000  0.4811850000000  0.5118750000000 1.0
C      1  0.5300860000000  0.4796650000000  0.4300290000000 1.0
C      1  0.5402570000000  0.4746160000000  0.5511210000000 1.0
C      1  0.4358590000000  0.5230120000000  0.4846880000000 1.0
C      1  0.5292010000000  0.5176100000000  0.5694530000000 1.0
C      1  0.5406780000000  0.5200280000000  0.4538250000000 1.0
C      1  0.4352260000000  0.4731290000000  0.4807200000000 1.0
C      1  0.5293980000000  0.4865600000000  0.5743140000000 1.0
C      1  0.5449220000000  0.4709850000000  0.4542450000000 1.0
C      1  0.4274510000000  0.5060940000000  0.5394240000000 1.0
C      1  0.4996880000000  0.5146600000000  0.4165300000000 1.0
C      1  0.5686300000000  0.5109430000000  0.5410050000000 1.0
C      1  0.4323730000000  0.4770100000000  0.5433170000000 1.0
C      1  0.5035030000000  0.4817920000000  0.4146500000000 1.0
C      1  0.5673280000000  0.4808430000000  0.5450420000000 1.0
C      1  0.4271910000000  0.5139860000000  0.4589960000000 1.0
C      1  0.5029440000000  0.5252750000000  0.5866020000000 1.0
C      1  0.5692330000000  0.5136580000000  0.4570170000000 1.0
C      1  0.4271300000000  0.4855620000000  0.4566540000000 1.0
C      1  0.5025180000000  0.4937690000000  0.5868970000000 1.0
C      1  0.5739200000000  0.4856590000000  0.4567640000000 1.0
C      1  0.4588210000000  0.5489710000000  0.4532730000000 1.0
C      1  0.5552230000000  0.5388480000000  0.4942610000000 1.0
C      1  0.4909330000000  0.5400460000000  0.5526150000000 1.0
C      1  0.4623320000000  0.4591660000000  0.4527850000000 1.0
C      1  0.5429370000000  0.4537690000000  0.4835980000000 1.0
C      1  0.4843110000000  0.4623130000000  0.5503140000000 1.0
C      1  0.4633070000000  0.5364690000000  0.5379200000000 1.0
C      1  0.5666400000000  0.5452260000000  0.5207640000000 1.0
C      1  0.4891270000000  0.5368810000000  0.4504210000000 1.0
C      1  0.4639120000000  0.4403660000000  0.5592250000000 1.0
C      1  0.5469270000000  0.4685620000000  0.5122670000000 1.0
C      1  0.4907510000000  0.4724230000000  0.4501960000000 1.0
C      1  0.4722120000000  0.4876470000000  0.4266370000000 1.0
C      1  0.5765210000000  0.4844600000000  0.5124890000000 1.0
C      1  0.4474800000000  0.4673330000000  0.5641250000000 1.0
C      1  0.4698660000000  0.5199300000000  0.4285790000000 1.0
C      1  0.5836380000000  0.5171770000000  0.5117490000000 1.0
C      1  0.4440840000000  0.5224290000000  0.5556060000000 1.0
C      1  0.4762590000000  0.4831360000000  0.5735170000000 1.0
C      1  0.5724140000000  0.4706740000000  0.4832140000000 1.0
C      1  0.4426650000000  0.4741670000000  0.4344170000000 1.0
C      1  0.4741440000000  0.5166130000000  0.5706640000000 1.0
C      1  0.5791050000000  0.5273580000000  0.4794180000000 1.0
C      1  0.4400470000000  0.5294490000000  0.4384600000000 1.0
C      1  0.5293120000000  0.5184910000000  0.4858460000000 1.0
C      1  0.5002830000000  0.5304070000000  0.5254880000000 1.0
C      1  0.4661930000000  0.5346260000000  0.4827040000000 1.0
C      1  0.5287490000000  0.4845450000000  0.4807830000000 1.0
C      1  0.4938480000000  0.4745610000000  0.5274240000000 1.0
C      1  0.4683570000000  0.4743560000000  0.4828810000000 1.0
C      1  0.5245620000000  0.5139300000000  0.5192200000000 1.0
C      1  0.4965710000000  0.5212530000000  0.4771010000000 1.0
C      1  0.4743080000000  0.5205660000000  0.5103210000000 1.0
C      1  0.5223900000000  0.4828470000000  0.5256360000000 1.0
C      1  0.4981270000000  0.4891650000000  0.4757420000000 1.0
C      1  0.4738130000000  0.4896170000000  0.5108440000000 1.0
END
