TITL C-27136-4842-155 -0.000538357103318663 125000 -344.433498817744 0 0 60 (C1) n - 1
REM
REM in /home/nfs/bkarasulu/CARBON/AIRSS/Generating-Clusters/AIREBO/Higher-Symm/Only-C60
REM
REM
REM
REM
REM
REM ./C.cell (28575a23ae977d3b5fae324c64b13b57)
REM
REM compiler GCC version 9.2.1 20190827 (Red Hat 9.2.1-1)
REM options -cpp -mtune=generic -march=x86-64 -g -O0 -fpre-include=/usr/include/finclude/math-vector-fortran.h
REM seed -278895609 -154150062 1439342087 1319989801 889852015 -1070325391 1426319206 -459663264 -547796677 -1132189252 -509361700 -74479406 -1812534757 187548021 -1571872134 1142512820 1227552950 -1847406584 -777840823 439701738 85146001 -588321942 -1012234206 1420749740 1705459950 1032250939 -1233644592 810046128 -85922138 -121152299 575640079 342539803 -1236333372
REM
CELL 1.54180   50.00000   50.00000   50.00000   90.00000   90.00000   90.00000
LATT -1
SFAC C  
C      1  0.4700580000000  0.4949480000000  0.4459500000000 1.0
C      1  0.4533250000000  0.4522770000000  0.4917660000000 1.0
C      1  0.4671330000000  0.4649240000000  0.5528410000000 1.0
C      1  0.4638340000000  0.5328170000000  0.5504050000000 1.0
C      1  0.4590390000000  0.5491510000000  0.4756070000000 1.0
C      1  0.5254930000000  0.4641160000000  0.5605880000000 1.0
C      1  0.5159900000000  0.5476120000000  0.5591160000000 1.0
C      1  0.5176840000000  0.5630220000000  0.4597130000000 1.0
C      1  0.5275400000000  0.4911290000000  0.4329060000000 1.0
C      1  0.5344800000000  0.4289630000000  0.4854210000000 1.0
C      1  0.4354960000000  0.5334000000000  0.5393430000000 1.0
C      1  0.4421880000000  0.5744220000000  0.4745090000000 1.0
C      1  0.4451600000000  0.5007950000000  0.4564160000000 1.0
C      1  0.4206810000000  0.4586010000000  0.4846570000000 1.0
C      1  0.4414180000000  0.4659250000000  0.5428540000000 1.0
C      1  0.5291850000000  0.4966780000000  0.5582740000000 1.0
C      1  0.5247620000000  0.5551060000000  0.5117690000000 1.0
C      1  0.5336870000000  0.5405920000000  0.4524670000000 1.0
C      1  0.5349420000000  0.4621810000000  0.4480280000000 1.0
C      1  0.5280840000000  0.4476800000000  0.5126730000000 1.0
C      1  0.5422320000000  0.4761620000000  0.5122520000000 1.0
C      1  0.5329060000000  0.5025550000000  0.5263600000000 1.0
C      1  0.5428110000000  0.5287360000000  0.5096130000000 1.0
C      1  0.5356750000000  0.5216630000000  0.4769220000000 1.0
C      1  0.5379790000000  0.4693860000000  0.4790910000000 1.0
C      1  0.4760860000000  0.4375780000000  0.5085300000000 1.0
C      1  0.4794670000000  0.4841840000000  0.5694080000000 1.0
C      1  0.4769710000000  0.5498590000000  0.5263710000000 1.0
C      1  0.4767380000000  0.5441820000000  0.4504440000000 1.0
C      1  0.4819620000000  0.4697450000000  0.4473320000000 1.0
C      1  0.4417220000000  0.5229530000000  0.4817230000000 1.0
C      1  0.4324710000000  0.4903410000000  0.4841590000000 1.0
C      1  0.4399300000000  0.4751330000000  0.5132170000000 1.0
C      1  0.4621590000000  0.4972520000000  0.5100540000000 1.0
C      1  0.4549520000000  0.5281060000000  0.5119610000000 1.0
C      1  0.5147380000000  0.4487520000000  0.5403810000000 1.0
C      1  0.5117880000000  0.5214100000000  0.5647430000000 1.0
C      1  0.5113100000000  0.5633510000000  0.4874410000000 1.0
C      1  0.5195820000000  0.5162710000000  0.4407110000000 1.0
C      1  0.5445810000000  0.4345580000000  0.4606510000000 1.0
C      1  0.5058150000000  0.4672880000000  0.4333060000000 1.0
C      1  0.5035680000000  0.4371140000000  0.4916180000000 1.0
C      1  0.5056970000000  0.4780510000000  0.5794840000000 1.0
C      1  0.5075640000000  0.5573640000000  0.5339830000000 1.0
C      1  0.4940590000000  0.5644080000000  0.4439230000000 1.0
C      1  0.4895400000000  0.4825060000000  0.5125790000000 1.0
C      1  0.5014630000000  0.5060740000000  0.5293220000000 1.0
C      1  0.4931100000000  0.5211260000000  0.5023690000000 1.0
C      1  0.5072020000000  0.5092100000000  0.4781220000000 1.0
C      1  0.5078880000000  0.4788000000000  0.4864680000000 1.0
C      1  0.5762070000000  0.4770720000000  0.5113000000000 1.0
C      1  0.5877820000000  0.5018030000000  0.5216450000000 1.0
C      1  0.5760160000000  0.5240330000000  0.5069290000000 1.0
C      1  0.5649510000000  0.5116400000000  0.4813220000000 1.0
C      1  0.5671370000000  0.4834890000000  0.4824290000000 1.0
C      1  0.4865920000000  0.4569720000000  0.5308040000000 1.0
C      1  0.4832310000000  0.5110030000000  0.5558770000000 1.0
C      1  0.4835110000000  0.5498810000000  0.4945030000000 1.0
C      1  0.4896640000000  0.5165570000000  0.4512240000000 1.0
C      1  0.4827590000000  0.4590940000000  0.4761260000000 1.0
END
