TITL C-27134-4977-4 0.000669723786433757 125000 -322.819684228567 0 0 60 (C1) n - 1
REM
REM in /home/nfs/bkarasulu/CARBON/AIRSS/Generating-Clusters/AIREBO/Higher-Symm/Only-C60
REM
REM
REM
REM
REM
REM ./C.cell (28575a23ae977d3b5fae324c64b13b57)
REM
REM compiler GCC version 9.2.1 20190827 (Red Hat 9.2.1-1)
REM options -cpp -mtune=generic -march=x86-64 -g -O0 -fpre-include=/usr/include/finclude/math-vector-fortran.h
REM seed 1633206408 -360668369 1304985558 94410516 -2127529620 -663219733 1259797671 -861017930 1880113674 1028193746 -322254986 -1086141084 -1065909135 667420147 -2139652480 -1333003758 -616781204 747516735 1827105480 -245024063 1601184483 -794454155 286597722 -354180028 -352820581 -1498535747 -1579969385 1479432203 1854444519 -1355390826 1866087966 -1497604201 -226849857
REM
CELL 1.54180   50.00000   50.00000   50.00000   90.00000   90.00000   90.00000
LATT -1
SFAC C  
C      1  0.4435720000000  0.5211740000000  0.4455300000000 1.0
C      1  0.4101360000000  0.5205880000000  0.4872110000000 1.0
C      1  0.4624460000000  0.5113760000000  0.5505540000000 1.0
C      1  0.4373210000000  0.4680320000000  0.5340400000000 1.0
C      1  0.4454060000000  0.4568100000000  0.4574750000000 1.0
C      1  0.4974990000000  0.4756530000000  0.5050090000000 1.0
C      1  0.4919250000000  0.4887240000000  0.4800470000000 1.0
C      1  0.4928470000000  0.5165740000000  0.4841450000000 1.0
C      1  0.5049180000000  0.5215000000000  0.5087430000000 1.0
C      1  0.5067470000000  0.4955600000000  0.5224020000000 1.0
C      1  0.5507560000000  0.4737370000000  0.5000070000000 1.0
C      1  0.5549560000000  0.4995080000000  0.4740920000000 1.0
C      1  0.5607800000000  0.5260680000000  0.4878290000000 1.0
C      1  0.5550300000000  0.5222270000000  0.5211240000000 1.0
C      1  0.5458150000000  0.4904970000000  0.5292430000000 1.0
C      1  0.5059810000000  0.5313550000000  0.5745910000000 1.0
C      1  0.4851810000000  0.4555180000000  0.5645000000000 1.0
C      1  0.4940690000000  0.4329270000000  0.4638970000000 1.0
C      1  0.4930820000000  0.5201930000000  0.4238590000000 1.0
C      1  0.5076650000000  0.5816740000000  0.4844690000000 1.0
C      1  0.4915430000000  0.4357210000000  0.5440920000000 1.0
C      1  0.4674310000000  0.4391960000000  0.4589320000000 1.0
C      1  0.4693830000000  0.5274620000000  0.4409360000000 1.0
C      1  0.4931910000000  0.6036550000000  0.4845530000000 1.0
C      1  0.4911370000000  0.5066590000000  0.5574540000000 1.0
C      1  0.4275310000000  0.4543450000000  0.4373320000000 1.0
C      1  0.4243920000000  0.5250470000000  0.4261940000000 1.0
C      1  0.3855390000000  0.5306860000000  0.4870200000000 1.0
C      1  0.4483470000000  0.5261210000000  0.5674190000000 1.0
C      1  0.4267150000000  0.4520580000000  0.5519980000000 1.0
C      1  0.5036790000000  0.4776420000000  0.5625200000000 1.0
C      1  0.5092470000000  0.4272120000000  0.4907590000000 1.0
C      1  0.5091420000000  0.4940460000000  0.4275240000000 1.0
C      1  0.5146280000000  0.5573590000000  0.4666650000000 1.0
C      1  0.5222190000000  0.5526320000000  0.5587380000000 1.0
C      1  0.5272530000000  0.4690550000000  0.5480170000000 1.0
C      1  0.5318530000000  0.4526060000000  0.4898530000000 1.0
C      1  0.5343050000000  0.5007970000000  0.4533670000000 1.0
C      1  0.5411470000000  0.5471330000000  0.4782760000000 1.0
C      1  0.5489650000000  0.5394400000000  0.5498120000000 1.0
C      1  0.5259880000000  0.5384980000000  0.5141940000000 1.0
C      1  0.5235530000000  0.5087210000000  0.5473860000000 1.0
C      1  0.5001280000000  0.4464580000000  0.5133340000000 1.0
C      1  0.5093470000000  0.4803900000000  0.4571910000000 1.0
C      1  0.4939020000000  0.5349100000000  0.4608250000000 1.0
C      1  0.5383810000000  0.5205150000000  0.5749390000000 1.0
C      1  0.5219450000000  0.4437420000000  0.5372260000000 1.0
C      1  0.5174620000000  0.4530430000000  0.4623460000000 1.0
C      1  0.5207450000000  0.5270360000000  0.4414850000000 1.0
C      1  0.5286380000000  0.5659310000000  0.5026630000000 1.0
C      1  0.4419580000000  0.4767420000000  0.4770980000000 1.0
C      1  0.4354880000000  0.5068050000000  0.4701780000000 1.0
C      1  0.4353070000000  0.5118410000000  0.5040630000000 1.0
C      1  0.4477230000000  0.4985550000000  0.5283610000000 1.0
C      1  0.4400890000000  0.4723320000000  0.5038730000000 1.0
C      1  0.5715330000000  0.4841690000000  0.5454090000000 1.0
C      1  0.5820640000000  0.4653310000000  0.4953420000000 1.0
C      1  0.5789930000000  0.4810880000000  0.4727680000000 1.0
C      1  0.5875830000000  0.5345160000000  0.4832980000000 1.0
C      1  0.5853950000000  0.5208140000000  0.5277960000000 1.0
END
