TITL C-27138-9601-104 0.000115053798721641 125000 -345.563654721472 0 0 60 (C1) n - 1
REM
REM in /home/nfs/bkarasulu/CARBON/AIRSS/Generating-Clusters/AIREBO/Higher-Symm/Only-C60
REM
REM
REM
REM
REM
REM ./C.cell (28575a23ae977d3b5fae324c64b13b57)
REM
REM compiler GCC version 9.2.1 20190827 (Red Hat 9.2.1-1)
REM options -cpp -mtune=generic -march=x86-64 -g -O0 -fpre-include=/usr/include/finclude/math-vector-fortran.h
REM seed 1871343951 132724442 1337011376 -536322303 -932556318 -1563764720 -1334607235 -1629239117 411258363 -267430446 1165695547 1516700557 866326978 860356630 -1660472761 15611277 970940061 -1003402232 -1358694908 -1114077529 -414551010 1548326029 -808109063 322994251 -1869077471 629502113 797626379 -1916543403 126653988 1040681529 2017435850 -1239642067 -709401007
REM
CELL 1.54180   50.00000   50.00000   50.00000   90.00000   90.00000   90.00000
LATT -1
SFAC C  
C      1  0.4636990000000  0.5437440000000  0.5439020000000 1.0
C      1  0.4833410000000  0.5471150000000  0.4510590000000 1.0
C      1  0.5499380000000  0.5426290000000  0.5122180000000 1.0
C      1  0.4650050000000  0.4564450000000  0.5442490000000 1.0
C      1  0.4879870000000  0.4581780000000  0.4459730000000 1.0
C      1  0.5495330000000  0.4525760000000  0.5091460000000 1.0
C      1  0.4559820000000  0.5431360000000  0.4551720000000 1.0
C      1  0.4847720000000  0.5424900000000  0.5622280000000 1.0
C      1  0.5600540000000  0.5435350000000  0.4833720000000 1.0
C      1  0.4577350000000  0.4564890000000  0.4544830000000 1.0
C      1  0.4865530000000  0.4576560000000  0.5625720000000 1.0
C      1  0.5599140000000  0.4553250000000  0.4828180000000 1.0
C      1  0.4763030000000  0.4838400000000  0.5142610000000 1.0
C      1  0.4995910000000  0.4849330000000  0.4731530000000 1.0
C      1  0.5253090000000  0.4840560000000  0.5138390000000 1.0
C      1  0.4735820000000  0.5144930000000  0.5149980000000 1.0
C      1  0.4988610000000  0.5158020000000  0.4704470000000 1.0
C      1  0.5212530000000  0.5149850000000  0.5123130000000 1.0
C      1  0.4747580000000  0.4740200000000  0.4861450000000 1.0
C      1  0.5006460000000  0.4737370000000  0.5288310000000 1.0
C      1  0.5248630000000  0.4740800000000  0.4847860000000 1.0
C      1  0.4734330000000  0.5253330000000  0.4863360000000 1.0
C      1  0.4982810000000  0.5255320000000  0.5287080000000 1.0
C      1  0.5241190000000  0.5260930000000  0.4842360000000 1.0
C      1  0.4371850000000  0.5416900000000  0.4829960000000 1.0
C      1  0.5488270000000  0.5387440000000  0.4515770000000 1.0
C      1  0.5182430000000  0.5422510000000  0.5590490000000 1.0
C      1  0.4387690000000  0.4571940000000  0.4828100000000 1.0
C      1  0.5437430000000  0.4587690000000  0.4530270000000 1.0
C      1  0.5200060000000  0.4617020000000  0.5674160000000 1.0
C      1  0.4435000000000  0.5430710000000  0.5102970000000 1.0
C      1  0.5418930000000  0.5409840000000  0.5450600000000 1.0
C      1  0.5299360000000  0.5371310000000  0.4323240000000 1.0
C      1  0.4447540000000  0.4565610000000  0.5105730000000 1.0
C      1  0.5455880000000  0.4633350000000  0.5587160000000 1.0
C      1  0.5206760000000  0.4610360000000  0.4376140000000 1.0
C      1  0.4486960000000  0.4834130000000  0.5311970000000 1.0
C      1  0.5011580000000  0.4891110000000  0.4408600000000 1.0
C      1  0.5526260000000  0.4784180000000  0.5309780000000 1.0
C      1  0.4451000000000  0.5174680000000  0.5327010000000 1.0
C      1  0.5015960000000  0.5230780000000  0.4379430000000 1.0
C      1  0.5497980000000  0.5123920000000  0.5277930000000 1.0
C      1  0.4485640000000  0.4855880000000  0.4689250000000 1.0
C      1  0.5013780000000  0.4865780000000  0.5590880000000 1.0
C      1  0.5522690000000  0.4857070000000  0.4704010000000 1.0
C      1  0.4476390000000  0.5133680000000  0.4687810000000 1.0
C      1  0.5007480000000  0.5139850000000  0.5595630000000 1.0
C      1  0.5516870000000  0.5133400000000  0.4713790000000 1.0
C      1  0.4749090000000  0.5556770000000  0.4891660000000 1.0
C      1  0.5218110000000  0.5565020000000  0.4848340000000 1.0
C      1  0.4986220000000  0.5556550000000  0.5261450000000 1.0
C      1  0.4757140000000  0.4433440000000  0.4891290000000 1.0
C      1  0.5213160000000  0.4435510000000  0.4823720000000 1.0
C      1  0.5005700000000  0.4433870000000  0.5255670000000 1.0
C      1  0.4671370000000  0.5655610000000  0.5194050000000 1.0
C      1  0.5232650000000  0.5636910000000  0.5138850000000 1.0
C      1  0.4974270000000  0.5644710000000  0.4718960000000 1.0
C      1  0.4685520000000  0.4341580000000  0.5199070000000 1.0
C      1  0.5239850000000  0.4352500000000  0.5113900000000 1.0
C      1  0.4968010000000  0.4376170000000  0.4699850000000 1.0
END
