TITL C-27130-3996-158 0.000920057756179263 125000 -325.950279014248 0 0 60 (C1) n - 1
REM
REM in /home/nfs/bkarasulu/CARBON/AIRSS/Generating-Clusters/AIREBO/Higher-Symm/Only-C60
REM
REM
REM
REM
REM
REM ./C.cell (28575a23ae977d3b5fae324c64b13b57)
REM
REM compiler GCC version 9.2.1 20190827 (Red Hat 9.2.1-1)
REM options -cpp -mtune=generic -march=x86-64 -g -O0 -fpre-include=/usr/include/finclude/math-vector-fortran.h
REM seed -178707852 698664450 -207699103 591250382 1073670298 -1341689057 -525914258 -904229603 -1481462408 -1022421335 -681029461 1535368318 1244616750 -442894443 412250454 -87727914 1236605212 -1734802069 290142193 -1680672196 456217078 1308880928 1632324458 -501974923 -1897653674 -1439272400 16985570 1098326077 -1582882946 -1438422779 398531225 1518283527 -325460793
REM
CELL 1.54180   50.00000   50.00000   50.00000   90.00000   90.00000   90.00000
LATT -1
SFAC C  
C      1  0.5583300000000  0.5080450000000  0.5213670000000 1.0
C      1  0.5300280000000  0.5617650000000  0.5100570000000 1.0
C      1  0.5110490000000  0.5267740000000  0.5577300000000 1.0
C      1  0.4415810000000  0.4980230000000  0.5223520000000 1.0
C      1  0.4492620000000  0.5115440000000  0.4812820000000 1.0
C      1  0.5555020000000  0.4828070000000  0.4547190000000 1.0
C      1  0.4805810000000  0.4430910000000  0.5054240000000 1.0
C      1  0.4609860000000  0.5765490000000  0.4882020000000 1.0
C      1  0.5430890000000  0.4344290000000  0.4890890000000 1.0
C      1  0.4785850000000  0.4740660000000  0.5625830000000 1.0
C      1  0.4828700000000  0.5261980000000  0.4462110000000 1.0
C      1  0.5217890000000  0.4663190000000  0.4244260000000 1.0
C      1  0.4897400000000  0.5264370000000  0.4786630000000 1.0
C      1  0.4721000000000  0.5117970000000  0.5284270000000 1.0
C      1  0.5276510000000  0.4614670000000  0.4996960000000 1.0
C      1  0.5078630000000  0.4754710000000  0.4517720000000 1.0
C      1  0.5031030000000  0.5161020000000  0.5278220000000 1.0
C      1  0.5038810000000  0.4741100000000  0.5473220000000 1.0
C      1  0.5283440000000  0.4937030000000  0.5231510000000 1.0
C      1  0.5294210000000  0.4845300000000  0.4764710000000 1.0
C      1  0.4648190000000  0.4827020000000  0.4802340000000 1.0
C      1  0.4806570000000  0.5534010000000  0.4972990000000 1.0
C      1  0.4770730000000  0.4539490000000  0.4802390000000 1.0
C      1  0.5203150000000  0.5310110000000  0.5034190000000 1.0
C      1  0.5544920000000  0.4970260000000  0.5655030000000 1.0
C      1  0.5647610000000  0.5376610000000  0.4887230000000 1.0
C      1  0.4955960000000  0.5688280000000  0.5443930000000 1.0
C      1  0.4377000000000  0.5042100000000  0.5667740000000 1.0
C      1  0.4524580000000  0.5030100000000  0.4367000000000 1.0
C      1  0.5318150000000  0.5206110000000  0.4411790000000 1.0
C      1  0.4350350000000  0.4524230000000  0.5101500000000 1.0
C      1  0.4346780000000  0.5488970000000  0.5136010000000 1.0
C      1  0.5710640000000  0.4501330000000  0.5218930000000 1.0
C      1  0.5023660000000  0.4342960000000  0.5483970000000 1.0
C      1  0.5092420000000  0.5641080000000  0.4528380000000 1.0
C      1  0.5005490000000  0.4286190000000  0.4402460000000 1.0
C      1  0.5013730000000  0.5632790000000  0.5174660000000 1.0
C      1  0.5236820000000  0.4972350000000  0.5563520000000 1.0
C      1  0.5443810000000  0.5112170000000  0.4913330000000 1.0
C      1  0.5052440000000  0.4527970000000  0.5208450000000 1.0
C      1  0.5140330000000  0.5500690000000  0.4759240000000 1.0
C      1  0.4931640000000  0.4487590000000  0.4588820000000 1.0
C      1  0.4637480000000  0.4965390000000  0.5575360000000 1.0
C      1  0.4807590000000  0.4927050000000  0.4517160000000 1.0
C      1  0.5165070000000  0.5128160000000  0.4627120000000 1.0
C      1  0.4417280000000  0.4789240000000  0.5029580000000 1.0
C      1  0.4584590000000  0.5291530000000  0.5042320000000 1.0
C      1  0.5516090000000  0.4689360000000  0.5218420000000 1.0
C      1  0.4375100000000  0.5157320000000  0.4568090000000 1.0
C      1  0.4561450000000  0.4357630000000  0.5171760000000 1.0
C      1  0.5168600000000  0.4390710000000  0.4198540000000 1.0
C      1  0.5538780000000  0.5039630000000  0.4363760000000 1.0
C      1  0.5716100000000  0.5043550000000  0.5445530000000 1.0
C      1  0.4227460000000  0.5046520000000  0.5428020000000 1.0
C      1  0.5572460000000  0.5609940000000  0.5020400000000 1.0
C      1  0.5668510000000  0.4299950000000  0.5030460000000 1.0
C      1  0.4363760000000  0.5735940000000  0.5008600000000 1.0
C      1  0.4921490000000  0.5496720000000  0.4352000000000 1.0
C      1  0.4844190000000  0.4451260000000  0.5668160000000 1.0
C      1  0.5011520000000  0.5505430000000  0.5643170000000 1.0
END
