TITL C-27130-3996-173 4.89579660606386e-06 125000 -370.534009579208 0 0 60 (C1) n - 1
REM
REM in /home/nfs/bkarasulu/CARBON/AIRSS/Generating-Clusters/AIREBO/Higher-Symm/Only-C60
REM
REM
REM
REM
REM
REM ./C.cell (28575a23ae977d3b5fae324c64b13b57)
REM
REM compiler GCC version 9.2.1 20190827 (Red Hat 9.2.1-1)
REM options -cpp -mtune=generic -march=x86-64 -g -O0 -fpre-include=/usr/include/finclude/math-vector-fortran.h
REM seed 2104326554 -1162185536 -1549942005 2091753660 539937697 1719284720 530638264 -318122189 -507407635 -799465135 -1885516414 -1112532032 -1143268162 -1924978407 1340813263 -123630100 1403617493 211984788 149795083 -1932553044 -994167200 -1696808657 1407261354 -1215625594 191152525 702250299 2024185201 141295986 1626773328 116580223 -1583730337 -2131572043 922568766
REM
CELL 1.54180   50.00000   50.00000   50.00000   90.00000   90.00000   90.00000
LATT -1
SFAC C  
C      1  0.4924740000000  0.5465960000000  0.4656220000000 1.0
C      1  0.5519740000000  0.4718380000000  0.4932970000000 1.0
C      1  0.4678440000000  0.4918250000000  0.5532000000000 1.0
C      1  0.4989070000000  0.5489340000000  0.5150700000000 1.0
C      1  0.5040210000000  0.4556660000000  0.4805820000000 1.0
C      1  0.4942170000000  0.4571920000000  0.5304250000000 1.0
C      1  0.4566280000000  0.4783770000000  0.5034540000000 1.0
C      1  0.4579040000000  0.5281600000000  0.4917360000000 1.0
C      1  0.5382590000000  0.5182390000000  0.5033060000000 1.0
C      1  0.5287060000000  0.4926200000000  0.4568050000000 1.0
C      1  0.5122800000000  0.5050210000000  0.5399820000000 1.0
C      1  0.4783530000000  0.4994270000000  0.4547280000000 1.0
C      1  0.4813270000000  0.5424470000000  0.4904540000000 1.0
C      1  0.4963780000000  0.4812830000000  0.5506020000000 1.0
C      1  0.5484270000000  0.4996980000000  0.4807210000000 1.0
C      1  0.5273780000000  0.5439810000000  0.5023470000000 1.0
C      1  0.4816510000000  0.4595340000000  0.5041430000000 1.0
C      1  0.5313740000000  0.4521310000000  0.4928220000000 1.0
C      1  0.5031370000000  0.4786370000000  0.4596430000000 1.0
C      1  0.4906360000000  0.5258180000000  0.4461020000000 1.0
C      1  0.4995000000000  0.5289990000000  0.5402910000000 1.0
C      1  0.4510680000000  0.4916990000000  0.5300500000000 1.0
C      1  0.5371060000000  0.5050880000000  0.5280050000000 1.0
C      1  0.4585570000000  0.5012750000000  0.4797190000000 1.0
C      1  0.4717230000000  0.4333840000000  0.4874000000000 1.0
C      1  0.4344380000000  0.4813790000000  0.4705030000000 1.0
C      1  0.4854320000000  0.4654290000000  0.4353000000000 1.0
C      1  0.5342490000000  0.4350720000000  0.5165250000000 1.0
C      1  0.5355390000000  0.5607660000000  0.4812390000000 1.0
C      1  0.4577310000000  0.5795160000000  0.5196830000000 1.0
C      1  0.5579730000000  0.4885990000000  0.5376710000000 1.0
C      1  0.5699260000000  0.5154440000000  0.4628670000000 1.0
C      1  0.4340850000000  0.5154910000000  0.5309510000000 1.0
C      1  0.5144100000000  0.4659250000000  0.5723030000000 1.0
C      1  0.5142040000000  0.5280670000000  0.4287840000000 1.0
C      1  0.4828790000000  0.5366480000000  0.5619510000000 1.0
C      1  0.4905120000000  0.4295170000000  0.4646940000000 1.0
C      1  0.4610490000000  0.4823100000000  0.4320190000000 1.0
C      1  0.4327820000000  0.4591360000000  0.4901550000000 1.0
C      1  0.5133510000000  0.4369920000000  0.5357100000000 1.0
C      1  0.4821090000000  0.5716560000000  0.5315040000000 1.0
C      1  0.5163130000000  0.5627510000000  0.4604820000000 1.0
C      1  0.5373840000000  0.4793480000000  0.5814250000000 1.0
C      1  0.4629990000000  0.5170670000000  0.5676790000000 1.0
C      1  0.5340400000000  0.5083020000000  0.4338270000000 1.0
C      1  0.5662340000000  0.4691040000000  0.5186810000000 1.0
C      1  0.4388790000000  0.5350190000000  0.5109020000000 1.0
C      1  0.5791450000000  0.5400530000000  0.4727480000000 1.0
C      1  0.5174340000000  0.4384630000000  0.5641100000000 1.0
C      1  0.5231480000000  0.5558340000000  0.4328090000000 1.0
C      1  0.4360900000000  0.5628370000000  0.5152080000000 1.0
C      1  0.4357720000000  0.5242560000000  0.5589340000000 1.0
C      1  0.5621710000000  0.5138110000000  0.4351930000000 1.0
C      1  0.5591610000000  0.4859640000000  0.5657320000000 1.0
C      1  0.4811170000000  0.5650430000000  0.5594570000000 1.0
C      1  0.5633750000000  0.5623470000000  0.4768990000000 1.0
C      1  0.5614140000000  0.4410490000000  0.5260780000000 1.0
C      1  0.4347350000000  0.4789930000000  0.4421740000000 1.0
C      1  0.4867710000000  0.4371210000000  0.4375440000000 1.0
C      1  0.4433150000000  0.4328220000000  0.4877480000000 1.0
END
