TITL C-27134-4977-53 -0.00232850497851698 125000 -304.374405465745 0 0 60 (C1) n - 1
REM
REM in /home/nfs/bkarasulu/CARBON/AIRSS/Generating-Clusters/AIREBO/Higher-Symm/Only-C60
REM
REM
REM
REM
REM
REM ./C.cell (28575a23ae977d3b5fae324c64b13b57)
REM
REM compiler GCC version 9.2.1 20190827 (Red Hat 9.2.1-1)
REM options -cpp -mtune=generic -march=x86-64 -g -O0 -fpre-include=/usr/include/finclude/math-vector-fortran.h
REM seed 264707865 -625445072 9954590 823459876 1108633900 -1029119109 518164140 -35981770 1485601106 1328395256 262418183 -469184895 -1139223564 -1371779906 -1133020576 1363222064 -512786318 1895378309 -864461928 129596341 -782071102 -1203919621 -630101344 -653661550 832606326 607482495 -1813759756 21156895 -483862570 -271159975 1330232224 782307208 -1110895584
REM
CELL 1.54180   50.00000   50.00000   50.00000   90.00000   90.00000   90.00000
LATT -1
SFAC C  
C      1  0.4688570000000  0.5157890000000  0.5048210000000 1.0
C      1  0.4909010000000  0.5258870000000  0.4625010000000 1.0
C      1  0.5188870000000  0.5138940000000  0.4610600000000 1.0
C      1  0.5453980000000  0.5033830000000  0.4795720000000 1.0
C      1  0.5444670000000  0.5215380000000  0.5083710000000 1.0
C      1  0.5252050000000  0.5217650000000  0.5354390000000 1.0
C      1  0.4627210000000  0.5200490000000  0.5369900000000 1.0
C      1  0.4341060000000  0.5575720000000  0.4899630000000 1.0
C      1  0.4708610000000  0.5766210000000  0.4492800000000 1.0
C      1  0.5252620000000  0.5667260000000  0.4434420000000 1.0
C      1  0.5643100000000  0.5608100000000  0.4789900000000 1.0
C      1  0.5548660000000  0.5654550000000  0.5367290000000 1.0
C      1  0.5030120000000  0.5564070000000  0.5666850000000 1.0
C      1  0.4608260000000  0.5740260000000  0.5406500000000 1.0
C      1  0.5180640000000  0.4905830000000  0.4369410000000 1.0
C      1  0.5499540000000  0.4722160000000  0.4897490000000 1.0
C      1  0.5437490000000  0.4809800000000  0.5400670000000 1.0
C      1  0.4959570000000  0.4884110000000  0.5542610000000 1.0
C      1  0.4527780000000  0.4885610000000  0.5287560000000 1.0
C      1  0.4475050000000  0.4772840000000  0.4749120000000 1.0
C      1  0.4743620000000  0.5099720000000  0.4425970000000 1.0
C      1  0.5223950000000  0.4974630000000  0.5486510000000 1.0
C      1  0.4784900000000  0.5086650000000  0.5616690000000 1.0
C      1  0.4419930000000  0.5003030000000  0.4980040000000 1.0
C      1  0.4525480000000  0.4967060000000  0.4510340000000 1.0
C      1  0.4915910000000  0.5005310000000  0.4229890000000 1.0
C      1  0.5478730000000  0.5046880000000  0.4456860000000 1.0
C      1  0.5576500000000  0.4920620000000  0.5154240000000 1.0
C      1  0.5085220000000  0.4720330000000  0.4593460000000 1.0
C      1  0.5488860000000  0.4463330000000  0.4717100000000 1.0
C      1  0.5306300000000  0.4626420000000  0.5164820000000 1.0
C      1  0.5066510000000  0.4531790000000  0.5386570000000 1.0
C      1  0.4772140000000  0.4657940000000  0.5371220000000 1.0
C      1  0.4525020000000  0.4640650000000  0.5058430000000 1.0
C      1  0.4629500000000  0.4473470000000  0.4713150000000 1.0
C      1  0.5464630000000  0.4325520000000  0.5158840000000 1.0
C      1  0.5129570000000  0.4364170000000  0.5578920000000 1.0
C      1  0.4577380000000  0.4395480000000  0.5276520000000 1.0
C      1  0.4496880000000  0.4317270000000  0.4957710000000 1.0
C      1  0.4895700000000  0.4454700000000  0.4658400000000 1.0
C      1  0.5231290000000  0.4432330000000  0.4601220000000 1.0
C      1  0.5570760000000  0.4262700000000  0.4907710000000 1.0
C      1  0.5375770000000  0.5483150000000  0.4885850000000 1.0
C      1  0.5308950000000  0.5579040000000  0.5205180000000 1.0
C      1  0.5042780000000  0.5455880000000  0.5377900000000 1.0
C      1  0.4730590000000  0.5498330000000  0.5249100000000 1.0
C      1  0.4599010000000  0.5536110000000  0.4937540000000 1.0
C      1  0.4811440000000  0.5579230000000  0.4675380000000 1.0
C      1  0.5151440000000  0.5570540000000  0.4662000000000 1.0
C      1  0.4852480000000  0.6426280000000  0.5068000000000 1.0
C      1  0.5052090000000  0.5655480000000  0.5036230000000 1.0
C      1  0.4956170000000  0.4999330000000  0.4958510000000 1.0
C      1  0.4947530000000  0.5342210000000  0.4952390000000 1.0
C      1  0.5060240000000  0.4358170000000  0.5007010000000 1.0
C      1  0.4956820000000  0.3588850000000  0.5177600000000 1.0
C      1  0.5032450000000  0.4096120000000  0.5052880000000 1.0
C      1  0.5066830000000  0.4689990000000  0.4931750000000 1.0
C      1  0.5003980000000  0.3841070000000  0.5124270000000 1.0
C      1  0.4996190000000  0.5919190000000  0.5039950000000 1.0
C      1  0.4928060000000  0.6175340000000  0.5066230000000 1.0
END
