TITL C-27141-4733-148 -0.000907472598618148 125000 -331.24899518371 0 0 60 (C1) n - 1
REM
REM in /home/nfs/bkarasulu/CARBON/AIRSS/Generating-Clusters/AIREBO/Higher-Symm/Only-C60
REM
REM
REM
REM
REM
REM ./C.cell (28575a23ae977d3b5fae324c64b13b57)
REM
REM compiler GCC version 9.2.1 20190827 (Red Hat 9.2.1-1)
REM options -cpp -mtune=generic -march=x86-64 -g -O0 -fpre-include=/usr/include/finclude/math-vector-fortran.h
REM seed -730359065 -367741256 1749914591 -1384202443 1582698986 998084371 712070324 1066659367 1546630835 -848418624 70028434 1676131629 147460358 -1105944018 -1588266529 556010667 -1927895141 -188491415 -1498758193 -548698760 -431689977 1672652460 -455894520 231813371 1453031954 1401434778 -1093958355 -7890638 -1237014612 -1027295462 -713487444 -1039279290 1145784323
REM
CELL 1.54180   50.00000   50.00000   50.00000   90.00000   90.00000   90.00000
LATT -1
SFAC C  
C      1  0.5085830000000  0.4405120000000  0.4527880000000 1.0
C      1  0.4919800000000  0.4413370000000  0.5475590000000 1.0
C      1  0.5115480000000  0.5526060000000  0.4413470000000 1.0
C      1  0.4843880000000  0.5518390000000  0.5580900000000 1.0
C      1  0.5269190000000  0.4452390000000  0.4746350000000 1.0
C      1  0.4747640000000  0.4453430000000  0.5247900000000 1.0
C      1  0.5262410000000  0.5532630000000  0.4699270000000 1.0
C      1  0.4707580000000  0.5527230000000  0.5281680000000 1.0
C      1  0.4488090000000  0.4366690000000  0.5055590000000 1.0
C      1  0.5535160000000  0.4381980000000  0.4946120000000 1.0
C      1  0.4700560000000  0.5753630000000  0.5073910000000 1.0
C      1  0.5440060000000  0.5604170000000  0.4967190000000 1.0
C      1  0.4501210000000  0.5112600000000  0.5442360000000 1.0
C      1  0.5489600000000  0.5108110000000  0.4537700000000 1.0
C      1  0.4567730000000  0.4814430000000  0.5445630000000 1.0
C      1  0.5427910000000  0.4813160000000  0.4544120000000 1.0
C      1  0.5698340000000  0.4875350000000  0.5271660000000 1.0
C      1  0.4287480000000  0.4855080000000  0.4730520000000 1.0
C      1  0.5640910000000  0.5180620000000  0.5279200000000 1.0
C      1  0.4334150000000  0.5155410000000  0.4734100000000 1.0
C      1  0.4451380000000  0.5340490000000  0.5278150000000 1.0
C      1  0.5536490000000  0.5346530000000  0.4686610000000 1.0
C      1  0.4419020000000  0.4598080000000  0.5293360000000 1.0
C      1  0.5591200000000  0.4602710000000  0.4693650000000 1.0
C      1  0.5155540000000  0.5101660000000  0.4569370000000 1.0
C      1  0.4832940000000  0.5108090000000  0.5418080000000 1.0
C      1  0.5112740000000  0.4793480000000  0.4611680000000 1.0
C      1  0.4888000000000  0.4800280000000  0.5385780000000 1.0
C      1  0.5213200000000  0.5165290000000  0.5704370000000 1.0
C      1  0.4763430000000  0.5165840000000  0.4307430000000 1.0
C      1  0.5242070000000  0.4867400000000  0.5768910000000 1.0
C      1  0.4744830000000  0.4865210000000  0.4237960000000 1.0
C      1  0.5093050000000  0.5280190000000  0.4851930000000 1.0
C      1  0.4911300000000  0.5292580000000  0.5143400000000 1.0
C      1  0.5133560000000  0.4702610000000  0.4925830000000 1.0
C      1  0.4880840000000  0.4704360000000  0.5075480000000 1.0
C      1  0.5350430000000  0.4865530000000  0.5074850000000 1.0
C      1  0.4668170000000  0.4854240000000  0.4919990000000 1.0
C      1  0.5353250000000  0.5154590000000  0.5005420000000 1.0
C      1  0.4669240000000  0.5151070000000  0.4950980000000 1.0
C      1  0.5377860000000  0.4643780000000  0.5326340000000 1.0
C      1  0.4619510000000  0.4640350000000  0.4670790000000 1.0
C      1  0.5186650000000  0.5419980000000  0.5296980000000 1.0
C      1  0.4790420000000  0.5398000000000  0.4751090000000 1.0
C      1  0.4509860000000  0.4396950000000  0.4764230000000 1.0
C      1  0.5488860000000  0.4399730000000  0.5241020000000 1.0
C      1  0.4727640000000  0.5687800000000  0.4830960000000 1.0
C      1  0.5293710000000  0.5645490000000  0.5191840000000 1.0
C      1  0.5021010000000  0.5267850000000  0.4352630000000 1.0
C      1  0.4953780000000  0.5264750000000  0.5652070000000 1.0
C      1  0.4866540000000  0.4658020000000  0.4465850000000 1.0
C      1  0.5135510000000  0.4669750000000  0.5533470000000 1.0
C      1  0.5626150000000  0.4701680000000  0.5017770000000 1.0
C      1  0.4379070000000  0.4708050000000  0.4982560000000 1.0
C      1  0.5642550000000  0.5333190000000  0.4998090000000 1.0
C      1  0.4360080000000  0.5273380000000  0.5009050000000 1.0
C      1  0.4591860000000  0.5228470000000  0.4566470000000 1.0
C      1  0.5375390000000  0.5237200000000  0.5444270000000 1.0
C      1  0.4527860000000  0.4902640000000  0.4493420000000 1.0
C      1  0.5451980000000  0.4912880000000  0.5506710000000 1.0
END
