TITL C-27132-7279-202 0.00274980622219396 125000 -312.828946342566 0 0 60 (C1) n - 1
REM
REM in /home/nfs/bkarasulu/CARBON/AIRSS/Generating-Clusters/AIREBO/Higher-Symm/Only-C60
REM
REM
REM
REM
REM
REM ./C.cell (28575a23ae977d3b5fae324c64b13b57)
REM
REM compiler GCC version 9.2.1 20190827 (Red Hat 9.2.1-1)
REM options -cpp -mtune=generic -march=x86-64 -g -O0 -fpre-include=/usr/include/finclude/math-vector-fortran.h
REM seed -2057488115 -1863633934 -1519120538 1645041178 -379640110 358225784 -2060275659 1243590983 -2013094082 -1807029842 706203104 -1454243727 -1680631900 2008653473 -1074192966 854383922 -422559878 1526102393 2666502 1418149809 649780597 -692956970 998004566 899094390 -1961292948 2012034397 -573981416 1405953963 1426938608 -161914863 -1933129544 -1292181099 1349014181
REM
CELL 1.54180   50.00000   50.00000   50.00000   90.00000   90.00000   90.00000
LATT -1
SFAC C  
C      1  0.4520080000000  0.4884440000000  0.5121710000000 1.0
C      1  0.5662990000000  0.4644780000000  0.4991320000000 1.0
C      1  0.5011660000000  0.5243560000000  0.5381150000000 1.0
C      1  0.4861900000000  0.5077130000000  0.4471110000000 1.0
C      1  0.5434390000000  0.4918190000000  0.5421970000000 1.0
C      1  0.4455980000000  0.4993300000000  0.4426050000000 1.0
C      1  0.4818060000000  0.5575580000000  0.4568680000000 1.0
C      1  0.5352540000000  0.5582970000000  0.5523870000000 1.0
C      1  0.4572880000000  0.4880600000000  0.5596640000000 1.0
C      1  0.5331580000000  0.4954630000000  0.4327230000000 1.0
C      1  0.4491720000000  0.5527800000000  0.4535140000000 1.0
C      1  0.5588840000000  0.5477580000000  0.5416740000000 1.0
C      1  0.4320140000000  0.4562000000000  0.4773170000000 1.0
C      1  0.5611680000000  0.4664460000000  0.5306450000000 1.0
C      1  0.4410670000000  0.5397430000000  0.4838510000000 1.0
C      1  0.5526830000000  0.5369030000000  0.5109160000000 1.0
C      1  0.4944410000000  0.5490580000000  0.4830570000000 1.0
C      1  0.5137010000000  0.5548090000000  0.5296120000000 1.0
C      1  0.4971570000000  0.4391150000000  0.5396840000000 1.0
C      1  0.5178210000000  0.4247140000000  0.4578590000000 1.0
C      1  0.4863970000000  0.4643710000000  0.4771860000000 1.0
C      1  0.5049910000000  0.4685430000000  0.5245330000000 1.0
C      1  0.5185310000000  0.5729000000000  0.5039490000000 1.0
C      1  0.4868590000000  0.5719210000000  0.5057220000000 1.0
C      1  0.5299870000000  0.4386820000000  0.4792770000000 1.0
C      1  0.4801460000000  0.4276400000000  0.5149750000000 1.0
C      1  0.4967120000000  0.4203470000000  0.4915390000000 1.0
C      1  0.5266960000000  0.4243870000000  0.5057750000000 1.0
C      1  0.4750290000000  0.5070160000000  0.5013950000000 1.0
C      1  0.5223230000000  0.5016900000000  0.4851720000000 1.0
C      1  0.5269500000000  0.4632410000000  0.5507310000000 1.0
C      1  0.4776580000000  0.4552320000000  0.4481180000000 1.0
C      1  0.5164990000000  0.4683080000000  0.4822340000000 1.0
C      1  0.4734780000000  0.4578020000000  0.5142890000000 1.0
C      1  0.4728330000000  0.5328040000000  0.4388170000000 1.0
C      1  0.5163200000000  0.5378940000000  0.5656630000000 1.0
C      1  0.5163920000000  0.5113850000000  0.4531180000000 1.0
C      1  0.4845250000000  0.5045560000000  0.5601980000000 1.0
C      1  0.4879070000000  0.4284770000000  0.4597050000000 1.0
C      1  0.5267570000000  0.4338970000000  0.5335310000000 1.0
C      1  0.5551900000000  0.5037030000000  0.4766450000000 1.0
C      1  0.4396460000000  0.5248420000000  0.5371220000000 1.0
C      1  0.5655150000000  0.5276480000000  0.4843030000000 1.0
C      1  0.4309810000000  0.5375070000000  0.5145160000000 1.0
C      1  0.5313130000000  0.5411730000000  0.4574400000000 1.0
C      1  0.4675390000000  0.5315630000000  0.5483760000000 1.0
C      1  0.5708010000000  0.4806720000000  0.4774500000000 1.0
C      1  0.4416160000000  0.4963890000000  0.5371750000000 1.0
C      1  0.4762350000000  0.5539500000000  0.5286050000000 1.0
C      1  0.5319590000000  0.5619230000000  0.4787260000000 1.0
C      1  0.4687520000000  0.4800540000000  0.4377020000000 1.0
C      1  0.5144040000000  0.4935140000000  0.5598080000000 1.0
C      1  0.5223630000000  0.5340430000000  0.4956410000000 1.0
C      1  0.4689780000000  0.5367520000000  0.5000640000000 1.0
C      1  0.5350560000000  0.4641380000000  0.5092640000000 1.0
C      1  0.4547360000000  0.4651370000000  0.4896500000000 1.0
C      1  0.4380660000000  0.5214570000000  0.4552010000000 1.0
C      1  0.5585110000000  0.5164270000000  0.5375140000000 1.0
C      1  0.4772730000000  0.4941410000000  0.4740910000000 1.0
C      1  0.5037630000000  0.5008280000000  0.5136770000000 1.0
END
