TITL C-27144-3922-61 -0.00161914959890427 125000 -321.996717263497 0 0 60 (C1) n - 1
REM
REM in /home/nfs/bkarasulu/CARBON/AIRSS/Generating-Clusters/AIREBO/Higher-Symm/Only-C60
REM
REM
REM
REM
REM
REM ./C.cell (28575a23ae977d3b5fae324c64b13b57)
REM
REM compiler GCC version 9.2.1 20190827 (Red Hat 9.2.1-1)
REM options -cpp -mtune=generic -march=x86-64 -g -O0 -fpre-include=/usr/include/finclude/math-vector-fortran.h
REM seed 686672843 -409770544 1063913800 -208201166 -1143284981 -1107320954 -1598496845 1115727258 -1398624506 -428327066 659604697 -33169963 -1169228601 588505756 1463952940 1823786032 -1439207441 -820311833 1210429847 516922940 -550787912 1876463846 -1066158854 -1037875686 -891282193 251039266 -276916061 849587633 -1627197689 627520918 -746317735 255478368 -1907805020
REM
CELL 1.54180   50.00000   50.00000   50.00000   90.00000   90.00000   90.00000
LATT -1
SFAC C  
C      1  0.4424920000000  0.4698660000000  0.5294680000000 1.0
C      1  0.4831110000000  0.4705940000000  0.5618280000000 1.0
C      1  0.5444560000000  0.4679920000000  0.5538050000000 1.0
C      1  0.5687830000000  0.4679740000000  0.4953440000000 1.0
C      1  0.5432220000000  0.4657170000000  0.4461350000000 1.0
C      1  0.4854890000000  0.4625370000000  0.4290410000000 1.0
C      1  0.4351970000000  0.4614820000000  0.4678200000000 1.0
C      1  0.5623010000000  0.4570370000000  0.4659870000000 1.0
C      1  0.5167300000000  0.4574680000000  0.4429130000000 1.0
C      1  0.4607570000000  0.4619220000000  0.4500490000000 1.0
C      1  0.4405090000000  0.4574520000000  0.4949310000000 1.0
C      1  0.4598350000000  0.4589450000000  0.5522540000000 1.0
C      1  0.5102530000000  0.4684480000000  0.5542090000000 1.0
C      1  0.5556470000000  0.4687850000000  0.5269290000000 1.0
C      1  0.5591880000000  0.5128220000000  0.4889670000000 1.0
C      1  0.5244200000000  0.5164780000000  0.4544950000000 1.0
C      1  0.4849400000000  0.5120480000000  0.4500430000000 1.0
C      1  0.4533680000000  0.5141400000000  0.4761080000000 1.0
C      1  0.4456050000000  0.5213180000000  0.5351900000000 1.0
C      1  0.4912640000000  0.5116970000000  0.5470950000000 1.0
C      1  0.5419400000000  0.5137590000000  0.5399630000000 1.0
C      1  0.5357720000000  0.5827470000000  0.4981040000000 1.0
C      1  0.5183400000000  0.5732010000000  0.4778640000000 1.0
C      1  0.4916320000000  0.5827890000000  0.4784330000000 1.0
C      1  0.4732130000000  0.5701280000000  0.4957790000000 1.0
C      1  0.4778810000000  0.5726050000000  0.5250020000000 1.0
C      1  0.5054400000000  0.5712210000000  0.5366470000000 1.0
C      1  0.5323740000000  0.5728920000000  0.5243060000000 1.0
C      1  0.5412400000000  0.4867990000000  0.5019280000000 1.0
C      1  0.5240720000000  0.4887460000000  0.4726260000000 1.0
C      1  0.4954310000000  0.4803380000000  0.4563270000000 1.0
C      1  0.4676830000000  0.4832850000000  0.4757780000000 1.0
C      1  0.4647150000000  0.4778060000000  0.5072250000000 1.0
C      1  0.4878400000000  0.4925780000000  0.5231710000000 1.0
C      1  0.5212360000000  0.4889360000000  0.5293720000000 1.0
C      1  0.4275920000000  0.5029160000000  0.4931550000000 1.0
C      1  0.4513890000000  0.5164950000000  0.5615630000000 1.0
C      1  0.5095590000000  0.5029370000000  0.5743100000000 1.0
C      1  0.5728350000000  0.5073810000000  0.5345030000000 1.0
C      1  0.5638990000000  0.5115040000000  0.4585010000000 1.0
C      1  0.5144720000000  0.5073430000000  0.4239410000000 1.0
C      1  0.4542700000000  0.5041960000000  0.4376360000000 1.0
C      1  0.5455300000000  0.4945160000000  0.4393930000000 1.0
C      1  0.4829360000000  0.4948560000000  0.4213090000000 1.0
C      1  0.4320250000000  0.4928070000000  0.4607010000000 1.0
C      1  0.4341180000000  0.4999760000000  0.5202900000000 1.0
C      1  0.4758960000000  0.4996870000000  0.5744480000000 1.0
C      1  0.5355960000000  0.4968200000000  0.5658580000000 1.0
C      1  0.5789350000000  0.4973140000000  0.5092200000000 1.0
C      1  0.5292830000000  0.5406070000000  0.5274760000000 1.0
C      1  0.5336160000000  0.5277310000000  0.4987960000000 1.0
C      1  0.5198550000000  0.5439010000000  0.4722350000000 1.0
C      1  0.4895400000000  0.5302350000000  0.4718440000000 1.0
C      1  0.4641760000000  0.5408160000000  0.4879750000000 1.0
C      1  0.4654910000000  0.5403560000000  0.5212650000000 1.0
C      1  0.4962470000000  0.5390450000000  0.5358570000000 1.0
C      1  0.5049630000000  0.5150940000000  0.4951950000000 1.0
C      1  0.5136810000000  0.4587510000000  0.5156320000000 1.0
C      1  0.5130600000000  0.4331970000000  0.5165910000000 1.0
C      1  0.5023350000000  0.4811910000000  0.4954180000000 1.0
END
