TITL C-27136-4842-112 0.000578200372970179 125000 -309.84844606263 0 0 60 (C2) n - 1
REM
REM in /home/nfs/bkarasulu/CARBON/AIRSS/Generating-Clusters/AIREBO/Higher-Symm/Only-C60
REM
REM
REM
REM
REM
REM ./C.cell (28575a23ae977d3b5fae324c64b13b57)
REM
REM compiler GCC version 9.2.1 20190827 (Red Hat 9.2.1-1)
REM options -cpp -mtune=generic -march=x86-64 -g -O0 -fpre-include=/usr/include/finclude/math-vector-fortran.h
REM seed 2113650599 -2001929192 -607099931 139388975 -2034231653 -408837762 911995822 1599996040 -376369240 -584369925 1860511967 -2077927095 1551554404 -907456669 1859950344 -471619110 1230140880 -1370575965 1703606742 -1374711093 -139630506 151160341 544724896 1627842357 310696670 -74587410 -447329242 -1989987150 1775020739 -1536183101 -1817080689 -1552110839 1540511728
REM
CELL 1.54180   50.00000   50.00000   50.00000   90.00000   90.00000   90.00000
LATT -1
SFAC C  
C      1  0.4882250000000  0.5697410000000  0.5557040000000 1.0
C      1  0.4656850000000  0.4693400000000  0.5813390000000 1.0
C      1  0.5016530000000  0.4209910000000  0.5138050000000 1.0
C      1  0.4882120000000  0.4302600000000  0.4442970000000 1.0
C      1  0.4656800000000  0.5306640000000  0.4186640000000 1.0
C      1  0.5016610000000  0.5790090000000  0.4861950000000 1.0
C      1  0.5399050000000  0.4621370000000  0.5390530000000 1.0
C      1  0.5384770000000  0.4463470000000  0.4866790000000 1.0
C      1  0.5305210000000  0.4871070000000  0.4495270000000 1.0
C      1  0.5399050000000  0.5378590000000  0.4609430000000 1.0
C      1  0.5384840000000  0.5536480000000  0.5133170000000 1.0
C      1  0.5305270000000  0.5128900000000  0.5504700000000 1.0
C      1  0.4882070000000  0.4400960000000  0.4703000000000 1.0
C      1  0.4789670000000  0.5181890000000  0.4426080000000 1.0
C      1  0.4989670000000  0.5643960000000  0.4620850000000 1.0
C      1  0.4882170000000  0.5599050000000  0.5297010000000 1.0
C      1  0.4789700000000  0.4818130000000  0.5573940000000 1.0
C      1  0.4989640000000  0.4356040000000  0.5379150000000 1.0
C      1  0.4083830000000  0.4714790000000  0.5324990000000 1.0
C      1  0.4597570000000  0.4447200000000  0.4860830000000 1.0
C      1  0.4676190000000  0.4897440000000  0.4546490000000 1.0
C      1  0.4083830000000  0.5285320000000  0.4675100000000 1.0
C      1  0.4597640000000  0.5552850000000  0.5139210000000 1.0
C      1  0.4676250000000  0.5102600000000  0.5453540000000 1.0
C      1  0.4420420000000  0.5079310000000  0.5278550000000 1.0
C      1  0.4297080000000  0.4833910000000  0.5203370000000 1.0
C      1  0.4426200000000  0.4719920000000  0.4949900000000 1.0
C      1  0.4420380000000  0.4920750000000  0.4721510000000 1.0
C      1  0.4297080000000  0.5166170000000  0.4796690000000 1.0
C      1  0.4426230000000  0.5280140000000  0.5050160000000 1.0
C      1  0.5595930000000  0.4808770000000  0.5200070000000 1.0
C      1  0.5587940000000  0.4730420000000  0.4922590000000 1.0
C      1  0.5549840000000  0.4923640000000  0.4725810000000 1.0
C      1  0.5595930000000  0.5191160000000  0.4799870000000 1.0
C      1  0.5587980000000  0.5269520000000  0.5077360000000 1.0
C      1  0.5549880000000  0.5076300000000  0.5274130000000 1.0
C      1  0.5369410000000  0.5460400000000  0.5464260000000 1.0
C      1  0.5413040000000  0.4840440000000  0.5648860000000 1.0
C      1  0.5493060000000  0.4374350000000  0.5176530000000 1.0
C      1  0.5369310000000  0.4539560000000  0.4535700000000 1.0
C      1  0.5412990000000  0.5159520000000  0.4351100000000 1.0
C      1  0.5493110000000  0.5625600000000  0.4823420000000 1.0
C      1  0.4735200000000  0.4681400000000  0.5067320000000 1.0
C      1  0.4854390000000  0.4730370000000  0.4752040000000 1.0
C      1  0.4862860000000  0.5363820000000  0.4661240000000 1.0
C      1  0.4735220000000  0.5318620000000  0.4932710000000 1.0
C      1  0.4854450000000  0.5269650000000  0.5247970000000 1.0
C      1  0.4862850000000  0.4636200000000  0.5338780000000 1.0
C      1  0.5218110000000  0.5618540000000  0.4461720000000 1.0
C      1  0.5094150000000  0.5709020000000  0.5110180000000 1.0
C      1  0.4984710000000  0.5093880000000  0.5613460000000 1.0
C      1  0.5218090000000  0.4381440000000  0.5538260000000 1.0
C      1  0.5094060000000  0.4290970000000  0.4889820000000 1.0
C      1  0.4984650000000  0.4906120000000  0.4386540000000 1.0
C      1  0.5191210000000  0.5287130000000  0.5035980000000 1.0
C      1  0.5113050000000  0.5077650000000  0.5239060000000 1.0
C      1  0.5129700000000  0.4768240000000  0.5243890000000 1.0
C      1  0.5191170000000  0.4712850000000  0.4964000000000 1.0
C      1  0.5113020000000  0.4922330000000  0.4760930000000 1.0
C      1  0.5129710000000  0.5231750000000  0.4756090000000 1.0
END
