TITL C-27143-4867-94 -0.000877559999533389 125000 -323.367517471688 0 0 60 (C1) n - 1
REM
REM in /home/nfs/bkarasulu/CARBON/AIRSS/Generating-Clusters/AIREBO/Higher-Symm/Only-C60
REM
REM
REM
REM
REM
REM ./C.cell (28575a23ae977d3b5fae324c64b13b57)
REM
REM compiler GCC version 9.2.1 20190827 (Red Hat 9.2.1-1)
REM options -cpp -mtune=generic -march=x86-64 -g -O0 -fpre-include=/usr/include/finclude/math-vector-fortran.h
REM seed 182828188 236903677 -2077096074 -2048544541 662738417 -2097676814 1753120347 259644082 2082663835 -1542314267 1553407987 -198082054 31231101 -1453623819 -74375833 2086286068 -479746878 -975379732 -1278690667 2124631467 1815897702 1367646636 -22789338 1963394420 190498749 -394617102 -1862867349 1610232944 85225302 -1608407975 -2142338459 -1055950995 1135281585
REM
CELL 1.54180   50.00000   50.00000   50.00000   90.00000   90.00000   90.00000
LATT -1
SFAC C  
C      1  0.5331300000000  0.5258420000000  0.4723880000000 1.0
C      1  0.4686480000000  0.5258450000000  0.4685030000000 1.0
C      1  0.5474650000000  0.4952980000000  0.4681660000000 1.0
C      1  0.4535600000000  0.4957530000000  0.4688720000000 1.0
C      1  0.5150790000000  0.5514540000000  0.4591650000000 1.0
C      1  0.4851440000000  0.5501500000000  0.4513710000000 1.0
C      1  0.5551800000000  0.5320870000000  0.5191900000000 1.0
C      1  0.4412290000000  0.5400160000000  0.5112420000000 1.0
C      1  0.4674680000000  0.4776030000000  0.4508880000000 1.0
C      1  0.5290720000000  0.4777470000000  0.4550280000000 1.0
C      1  0.5204810000000  0.4930420000000  0.5450640000000 1.0
C      1  0.4863080000000  0.4933310000000  0.5421970000000 1.0
C      1  0.5123900000000  0.4588760000000  0.4709550000000 1.0
C      1  0.4821440000000  0.4556520000000  0.4601830000000 1.0
C      1  0.4781930000000  0.5550890000000  0.5127640000000 1.0
C      1  0.5111250000000  0.5509800000000  0.5097250000000 1.0
C      1  0.5301900000000  0.5768240000000  0.5224030000000 1.0
C      1  0.4626270000000  0.5847240000000  0.5110710000000 1.0
C      1  0.5192530000000  0.4907740000000  0.5111520000000 1.0
C      1  0.4761710000000  0.4952220000000  0.5110950000000 1.0
C      1  0.5074080000000  0.4255720000000  0.4652080000000 1.0
C      1  0.4765360000000  0.4248520000000  0.4651050000000 1.0
C      1  0.5210780000000  0.4575750000000  0.5038010000000 1.0
C      1  0.4934460000000  0.4482130000000  0.5175340000000 1.0
C      1  0.5127800000000  0.5720250000000  0.4830650000000 1.0
C      1  0.4839970000000  0.5749080000000  0.4681350000000 1.0
C      1  0.4598420000000  0.5743410000000  0.4830140000000 1.0
C      1  0.5430090000000  0.5702290000000  0.4953310000000 1.0
C      1  0.4554080000000  0.5307080000000  0.5344270000000 1.0
C      1  0.5365370000000  0.5304640000000  0.5458960000000 1.0
C      1  0.5657150000000  0.4535010000000  0.5264490000000 1.0
C      1  0.4422700000000  0.4554420000000  0.5309810000000 1.0
C      1  0.5507260000000  0.5025130000000  0.5326970000000 1.0
C      1  0.4545840000000  0.5023010000000  0.5439650000000 1.0
C      1  0.4398140000000  0.4880080000000  0.4918060000000 1.0
C      1  0.5671640000000  0.4864820000000  0.4852310000000 1.0
C      1  0.4814860000000  0.4885620000000  0.4263580000000 1.0
C      1  0.5153690000000  0.4861940000000  0.4289750000000 1.0
C      1  0.4830040000000  0.5247020000000  0.4982600000000 1.0
C      1  0.5138130000000  0.5184050000000  0.4980320000000 1.0
C      1  0.4439840000000  0.4999160000000  0.5700690000000 1.0
C      1  0.5256810000000  0.5020000000000  0.5740340000000 1.0
C      1  0.4890820000000  0.5108700000000  0.4458260000000 1.0
C      1  0.5181550000000  0.5146180000000  0.4442130000000 1.0
C      1  0.5387950000000  0.4478600000000  0.5311480000000 1.0
C      1  0.4670110000000  0.4451290000000  0.5391060000000 1.0
C      1  0.5683920000000  0.4837890000000  0.5182020000000 1.0
C      1  0.4398630000000  0.4848370000000  0.5236570000000 1.0
C      1  0.5522210000000  0.5434830000000  0.4941370000000 1.0
C      1  0.4479320000000  0.5478700000000  0.4840590000000 1.0
C      1  0.5350270000000  0.4200840000000  0.4731390000000 1.0
C      1  0.4602190000000  0.4356140000000  0.4866300000000 1.0
C      1  0.5246530000000  0.4601000000000  0.5523830000000 1.0
C      1  0.4934720000000  0.4630730000000  0.5476790000000 1.0
C      1  0.5114170000000  0.5414150000000  0.5417760000000 1.0
C      1  0.4812070000000  0.5442390000000  0.5438150000000 1.0
C      1  0.4370830000000  0.4546940000000  0.4980680000000 1.0
C      1  0.5714850000000  0.4556530000000  0.4941300000000 1.0
C      1  0.5459460000000  0.4395190000000  0.4892400000000 1.0
C      1  0.4695280000000  0.4639280000000  0.5029980000000 1.0
END
