TITL C-27140-5627-2 0.000433956863837931 125000 -344.497330668957 0 0 60 (C1) n - 1
REM
REM in /home/nfs/bkarasulu/CARBON/AIRSS/Generating-Clusters/AIREBO/Higher-Symm/Only-C60
REM
REM
REM
REM
REM
REM ./C.cell (28575a23ae977d3b5fae324c64b13b57)
REM
REM compiler GCC version 9.2.1 20190827 (Red Hat 9.2.1-1)
REM options -cpp -mtune=generic -march=x86-64 -g -O0 -fpre-include=/usr/include/finclude/math-vector-fortran.h
REM seed -1456759871 419765754 937356691 1735399341 1565211079 21987900 -1161214149 -1610947826 1277139110 1306066457 1671535163 -1661813079 -1313881260 -1025314818 817607882 1850501653 33158491 -1468133709 1432441232 408341127 883465213 201528988 1080870514 -431175583 -1529623933 -1396056170 -1040669529 -329390735 2016626230 -1740251194 -839475787 1303405781 -1125471629
REM
CELL 1.54180   50.00000   50.00000   50.00000   90.00000   90.00000   90.00000
LATT -1
SFAC C  
C      1  0.4883020000000  0.5390510000000  0.4396900000000 1.0
C      1  0.5361020000000  0.4446990000000  0.4919960000000 1.0
C      1  0.4397000000000  0.4832790000000  0.5396560000000 1.0
C      1  0.5123650000000  0.4649200000000  0.4467330000000 1.0
C      1  0.4888410000000  0.4655190000000  0.5622060000000 1.0
C      1  0.5126130000000  0.5283200000000  0.5514790000000 1.0
C      1  0.4609120000000  0.5677040000000  0.4846340000000 1.0
C      1  0.5309210000000  0.5534600000000  0.5086670000000 1.0
C      1  0.4663290000000  0.4393540000000  0.5164370000000 1.0
C      1  0.5610610000000  0.5084380000000  0.5361800000000 1.0
C      1  0.4400420000000  0.5193340000000  0.4617460000000 1.0
C      1  0.5576880000000  0.4907270000000  0.4652390000000 1.0
C      1  0.5386200000000  0.4839260000000  0.4375710000000 1.0
C      1  0.4406800000000  0.5418420000000  0.4875590000000 1.0
C      1  0.4919660000000  0.4414430000000  0.5382550000000 1.0
C      1  0.4685620000000  0.5127810000000  0.4461530000000 1.0
C      1  0.4696730000000  0.4897330000000  0.5526860000000 1.0
C      1  0.5371780000000  0.5115070000000  0.5603030000000 1.0
C      1  0.5618440000000  0.4660000000000  0.4877390000000 1.0
C      1  0.5542110000000  0.5303960000000  0.5117190000000 1.0
C      1  0.4408790000000  0.4595760000000  0.5128670000000 1.0
C      1  0.5132500000000  0.5589510000000  0.5367290000000 1.0
C      1  0.5159310000000  0.4378010000000  0.4663210000000 1.0
C      1  0.4870930000000  0.5594940000000  0.4658280000000 1.0
C      1  0.4810680000000  0.4617860000000  0.4392160000000 1.0
C      1  0.4647500000000  0.4465970000000  0.4836940000000 1.0
C      1  0.4438830000000  0.4855160000000  0.4612130000000 1.0
C      1  0.5221960000000  0.5374700000000  0.4373780000000 1.0
C      1  0.4842070000000  0.5400390000000  0.5563450000000 1.0
C      1  0.5194630000000  0.4613080000000  0.5591810000000 1.0
C      1  0.5368380000000  0.5623640000000  0.4775730000000 1.0
C      1  0.4597550000000  0.5595820000000  0.5176310000000 1.0
C      1  0.5423110000000  0.4344070000000  0.5224300000000 1.0
C      1  0.5624090000000  0.5227700000000  0.4615900000000 1.0
C      1  0.4440130000000  0.5170300000000  0.5391870000000 1.0
C      1  0.5634010000000  0.4752980000000  0.5391230000000 1.0
C      1  0.4626520000000  0.4817700000000  0.4378000000000 1.0
C      1  0.4411770000000  0.4648360000000  0.4791970000000 1.0
C      1  0.4828790000000  0.4438440000000  0.4633150000000 1.0
C      1  0.5401840000000  0.5175340000000  0.4416660000000 1.0
C      1  0.5396290000000  0.4816120000000  0.5566870000000 1.0
C      1  0.4644590000000  0.5213640000000  0.5606240000000 1.0
C      1  0.5577340000000  0.5409990000000  0.4819770000000 1.0
C      1  0.5624630000000  0.4566150000000  0.5192410000000 1.0
C      1  0.4388470000000  0.5375290000000  0.5213120000000 1.0
C      1  0.5176820000000  0.5591330000000  0.4576810000000 1.0
C      1  0.5239470000000  0.4355280000000  0.5429320000000 1.0
C      1  0.4793490000000  0.5621220000000  0.5367470000000 1.0
C      1  0.4912780000000  0.4886460000000  0.5297430000000 1.0
C      1  0.4827830000000  0.5400610000000  0.4914720000000 1.0
C      1  0.5357860000000  0.4877390000000  0.4902340000000 1.0
C      1  0.5068510000000  0.4592990000000  0.4911010000000 1.0
C      1  0.4396540000000  0.5095410000000  0.4928450000000 1.0
C      1  0.5355200000000  0.5037930000000  0.5142190000000 1.0
C      1  0.4395700000000  0.4917790000000  0.5085790000000 1.0
C      1  0.5008180000000  0.5394130000000  0.5118230000000 1.0
C      1  0.4899360000000  0.4634880000000  0.5138880000000 1.0
C      1  0.5108980000000  0.5054180000000  0.5302000000000 1.0
C      1  0.4990240000000  0.5133890000000  0.4593130000000 1.0
C      1  0.5178270000000  0.4921230000000  0.4644530000000 1.0
END
