TITL C-27131-4585-51 0.00147001627663378 125000 -277.753702179444 0 0 60 (C1) n - 1
REM
REM in /home/nfs/bkarasulu/CARBON/AIRSS/Generating-Clusters/AIREBO/Higher-Symm/Only-C60
REM
REM
REM
REM
REM
REM ./C.cell (28575a23ae977d3b5fae324c64b13b57)
REM
REM compiler GCC version 9.2.1 20190827 (Red Hat 9.2.1-1)
REM options -cpp -mtune=generic -march=x86-64 -g -O0 -fpre-include=/usr/include/finclude/math-vector-fortran.h
REM seed 773102353 588599913 1999650624 -702086281 857248415 1431432389 1373625682 465833787 -420162101 1997847438 -1778677701 826424053 1618672478 696546738 -1461404065 -390463878 -275341988 33474597 211716063 -1745461071 -1989361662 1421163502 982906488 961172507 1453833566 -1344573517 -36270811 -621303733 -1548452552 794596183 -1589868022 1316886315 1234755462
REM
CELL 1.54180   50.00000   50.00000   50.00000   90.00000   90.00000   90.00000
LATT -1
SFAC C  
C      1  0.4831630000000  0.5180160000000  0.5190180000000 1.0
C      1  0.4821050000000  0.5293710000000  0.4892390000000 1.0
C      1  0.4941430000000  0.5090580000000  0.4677680000000 1.0
C      1  0.4812940000000  0.4816810000000  0.4731820000000 1.0
C      1  0.4768280000000  0.4700190000000  0.5009010000000 1.0
C      1  0.4840070000000  0.4867850000000  0.5248850000000 1.0
C      1  0.5149740000000  0.5118740000000  0.5256770000000 1.0
C      1  0.5155500000000  0.5254380000000  0.4968330000000 1.0
C      1  0.5264020000000  0.5024640000000  0.4742320000000 1.0
C      1  0.5110380000000  0.4766840000000  0.4825000000000 1.0
C      1  0.5110890000000  0.4631490000000  0.5078650000000 1.0
C      1  0.5150950000000  0.4816590000000  0.5310020000000 1.0
C      1  0.4648780000000  0.4413120000000  0.5005900000000 1.0
C      1  0.4651070000000  0.4725680000000  0.5472210000000 1.0
C      1  0.4662710000000  0.5286570000000  0.5445940000000 1.0
C      1  0.4662640000000  0.5660300000000  0.5008240000000 1.0
C      1  0.4670370000000  0.5278680000000  0.4587720000000 1.0
C      1  0.4624510000000  0.4698010000000  0.4505830000000 1.0
C      1  0.5356750000000  0.4429520000000  0.5019680000000 1.0
C      1  0.5347090000000  0.4697200000000  0.5527070000000 1.0
C      1  0.5336420000000  0.5263930000000  0.5470870000000 1.0
C      1  0.5338100000000  0.5521750000000  0.4977980000000 1.0
C      1  0.5341150000000  0.5345520000000  0.4423600000000 1.0
C      1  0.5367900000000  0.4783890000000  0.4525610000000 1.0
C      1  0.4702220000000  0.4901000000000  0.4244290000000 1.0
C      1  0.4797520000000  0.4284410000000  0.4728450000000 1.0
C      1  0.4766900000000  0.4406210000000  0.5485660000000 1.0
C      1  0.4751590000000  0.5134640000000  0.5736870000000 1.0
C      1  0.4748670000000  0.5756800000000  0.5311390000000 1.0
C      1  0.4761830000000  0.5601840000000  0.4534700000000 1.0
C      1  0.5220130000000  0.4908100000000  0.4245650000000 1.0
C      1  0.5283080000000  0.4315500000000  0.4707880000000 1.0
C      1  0.5256090000000  0.4369810000000  0.5513700000000 1.0
C      1  0.5232780000000  0.5126270000000  0.5764020000000 1.0
C      1  0.5248470000000  0.5703310000000  0.5251120000000 1.0
C      1  0.5263080000000  0.5654760000000  0.4507030000000 1.0
C      1  0.4481070000000  0.5473240000000  0.5227320000000 1.0
C      1  0.4479080000000  0.5469450000000  0.4794450000000 1.0
C      1  0.4482880000000  0.4994860000000  0.4592760000000 1.0
C      1  0.4463950000000  0.4504970000000  0.4735370000000 1.0
C      1  0.4459870000000  0.4546170000000  0.5255530000000 1.0
C      1  0.4465000000000  0.5010050000000  0.5458010000000 1.0
C      1  0.5532950000000  0.5388890000000  0.5223050000000 1.0
C      1  0.5515670000000  0.5419170000000  0.4706740000000 1.0
C      1  0.5535320000000  0.5065740000000  0.4434870000000 1.0
C      1  0.5511280000000  0.4632400000000  0.4794420000000 1.0
C      1  0.5534430000000  0.4573260000000  0.5271610000000 1.0
C      1  0.5526720000000  0.4985920000000  0.5517870000000 1.0
C      1  0.5168600000000  0.4506910000000  0.4529110000000 1.0
C      1  0.5165160000000  0.4281220000000  0.5258510000000 1.0
C      1  0.5131310000000  0.4865340000000  0.5729200000000 1.0
C      1  0.5144460000000  0.5544980000000  0.5457210000000 1.0
C      1  0.5152060000000  0.5693000000000  0.4760010000000 1.0
C      1  0.5101820000000  0.5160930000000  0.4290300000000 1.0
C      1  0.4880940000000  0.4476290000000  0.4533910000000 1.0
C      1  0.4869450000000  0.4294270000000  0.5240020000000 1.0
C      1  0.4847660000000  0.4870340000000  0.5709380000000 1.0
C      1  0.4864410000000  0.5559050000000  0.5471960000000 1.0
C      1  0.4874390000000  0.5701600000000  0.4769550000000 1.0
C      1  0.4814800000000  0.5153120000000  0.4306410000000 1.0
END
