TITL C-27131-4585-71 -0.00248021894893342 125000 -323.739183745959 0 0 60 (C1) n - 1
REM
REM in /home/nfs/bkarasulu/CARBON/AIRSS/Generating-Clusters/AIREBO/Higher-Symm/Only-C60
REM
REM
REM
REM
REM
REM ./C.cell (28575a23ae977d3b5fae324c64b13b57)
REM
REM compiler GCC version 9.2.1 20190827 (Red Hat 9.2.1-1)
REM options -cpp -mtune=generic -march=x86-64 -g -O0 -fpre-include=/usr/include/finclude/math-vector-fortran.h
REM seed 1543372983 -1710073616 -1167789287 2103582713 192228692 -412509096 468831814 -24569980 1410549070 2105069478 1166857984 -1292687164 -2077894459 771407161 1854384909 -1233651621 751600814 -1849166116 -267990487 -1076186508 -394944950 -140261446 72622635 2077621015 -1610932442 -242102342 1165414317 165092911 -673544346 1442423430 1845582612 -1492244348 1856099695
REM
CELL 1.54180   50.00000   50.00000   50.00000   90.00000   90.00000   90.00000
LATT -1
SFAC C  
C      1  0.5012390000000  0.4313510000000  0.4638980000000 1.0
C      1  0.4528750000000  0.5596890000000  0.5023750000000 1.0
C      1  0.5044310000000  0.4272120000000  0.5354570000000 1.0
C      1  0.5345660000000  0.5711470000000  0.4932860000000 1.0
C      1  0.4959140000000  0.5617060000000  0.4683320000000 1.0
C      1  0.4704480000000  0.4418160000000  0.5030400000000 1.0
C      1  0.5015490000000  0.5605610000000  0.5286720000000 1.0
C      1  0.5363830000000  0.4428410000000  0.4958230000000 1.0
C      1  0.4607680000000  0.4924420000000  0.5462450000000 1.0
C      1  0.5449880000000  0.5079400000000  0.5395030000000 1.0
C      1  0.5409820000000  0.4824960000000  0.4391050000000 1.0
C      1  0.4639240000000  0.5138040000000  0.4596580000000 1.0
C      1  0.5573850000000  0.5112610000000  0.4423940000000 1.0
C      1  0.4472360000000  0.4885370000000  0.4543000000000 1.0
C      1  0.4406000000000  0.5151420000000  0.5602420000000 1.0
C      1  0.5554000000000  0.4844150000000  0.5607090000000 1.0
C      1  0.5066570000000  0.5163800000000  0.4231030000000 1.0
C      1  0.4317480000000  0.4793250000000  0.5005370000000 1.0
C      1  0.4978890000000  0.5184910000000  0.5702790000000 1.0
C      1  0.5646590000000  0.4776790000000  0.5041920000000 1.0
C      1  0.4623290000000  0.4567330000000  0.4436220000000 1.0
C      1  0.4414080000000  0.5503390000000  0.5496340000000 1.0
C      1  0.5393450000000  0.4513260000000  0.5607570000000 1.0
C      1  0.5578630000000  0.5441470000000  0.4588610000000 1.0
C      1  0.4943910000000  0.5144170000000  0.4516490000000 1.0
C      1  0.4611950000000  0.4857540000000  0.5128940000000 1.0
C      1  0.5115660000000  0.5141780000000  0.5404310000000 1.0
C      1  0.5363420000000  0.4859020000000  0.4889230000000 1.0
C      1  0.4716480000000  0.5106020000000  0.5714810000000 1.0
C      1  0.5676550000000  0.4869890000000  0.5296610000000 1.0
C      1  0.5329750000000  0.5071510000000  0.4211280000000 1.0
C      1  0.4276640000000  0.4823700000000  0.4756540000000 1.0
C      1  0.4777640000000  0.4466170000000  0.4643820000000 1.0
C      1  0.4615750000000  0.5551710000000  0.5282530000000 1.0
C      1  0.5281230000000  0.4424890000000  0.5368720000000 1.0
C      1  0.5351260000000  0.5550770000000  0.4700500000000 1.0
C      1  0.5248370000000  0.4447270000000  0.4711470000000 1.0
C      1  0.4706410000000  0.5617710000000  0.4769620000000 1.0
C      1  0.4811030000000  0.4412560000000  0.5283960000000 1.0
C      1  0.5265040000000  0.5584920000000  0.5171100000000 1.0
C      1  0.4775200000000  0.4708870000000  0.4869730000000 1.0
C      1  0.4854960000000  0.5317520000000  0.5274680000000 1.0
C      1  0.5280710000000  0.4675200000000  0.5163050000000 1.0
C      1  0.5111700000000  0.5326860000000  0.4695640000000 1.0
C      1  0.5095990000000  0.4870490000000  0.5919650000000 1.0
C      1  0.5869390000000  0.5061660000000  0.4872420000000 1.0
C      1  0.4762590000000  0.4952620000000  0.4081060000000 1.0
C      1  0.4099950000000  0.5189510000000  0.5173250000000 1.0
C      1  0.4738100000000  0.4854750000000  0.4333090000000 1.0
C      1  0.4346720000000  0.5244420000000  0.5286570000000 1.0
C      1  0.5240220000000  0.4788210000000  0.5704200000000 1.0
C      1  0.5653980000000  0.5156560000000  0.4734690000000 1.0
C      1  0.5343610000000  0.5298000000000  0.5175970000000 1.0
C      1  0.5241500000000  0.4741220000000  0.4625730000000 1.0
C      1  0.4581540000000  0.5317210000000  0.4820960000000 1.0
C      1  0.4813660000000  0.4694460000000  0.5376740000000 1.0
C      1  0.4603900000000  0.5190790000000  0.5112570000000 1.0
C      1  0.5097270000000  0.4802360000000  0.5395360000000 1.0
C      1  0.5351590000000  0.5182320000000  0.4888460000000 1.0
C      1  0.4940460000000  0.4829560000000  0.4606030000000 1.0
END
