TITL C-27132-7279-130 -0.000703864106807451 125000 -333.585641429288 0 0 60 (C1) n - 1
REM
REM in /home/nfs/bkarasulu/CARBON/AIRSS/Generating-Clusters/AIREBO/Higher-Symm/Only-C60
REM
REM
REM
REM
REM
REM ./C.cell (28575a23ae977d3b5fae324c64b13b57)
REM
REM compiler GCC version 9.2.1 20190827 (Red Hat 9.2.1-1)
REM options -cpp -mtune=generic -march=x86-64 -g -O0 -fpre-include=/usr/include/finclude/math-vector-fortran.h
REM seed 1019474249 1831601948 37060730 16202704 -209008675 690747879 722962090 1708593894 -616998306 -311897419 -1263883617 944898563 -1254171986 556860229 968855542 1809545919 -18326099 -74187398 1344475555 -1834177860 1694110160 -1553443202 -928847210 -826284810 1342245353 -967857673 2082111209 491584217 1382823581 -2089945081 -2070881486 -1306230608 -1387971694
REM
CELL 1.54180   50.00000   50.00000   50.00000   90.00000   90.00000   90.00000
LATT -1
SFAC C  
C      1  0.5668330000000  0.4960090000000  0.5235400000000 1.0
C      1  0.4390330000000  0.4961570000000  0.5410980000000 1.0
C      1  0.4900040000000  0.4937190000000  0.4300210000000 1.0
C      1  0.4979840000000  0.5163470000000  0.4430580000000 1.0
C      1  0.5518010000000  0.5186080000000  0.5217450000000 1.0
C      1  0.4489010000000  0.5189990000000  0.5291380000000 1.0
C      1  0.4325020000000  0.4694140000000  0.5574660000000 1.0
C      1  0.4809180000000  0.4668680000000  0.4156230000000 1.0
C      1  0.5837290000000  0.4691460000000  0.5253390000000 1.0
C      1  0.5328250000000  0.5228450000000  0.4712200000000 1.0
C      1  0.5009900000000  0.5227940000000  0.5387400000000 1.0
C      1  0.4669250000000  0.5241510000000  0.4828770000000 1.0
C      1  0.5064270000000  0.4979900000000  0.5170180000000 1.0
C      1  0.4759930000000  0.4931300000000  0.4916830000000 1.0
C      1  0.5213030000000  0.4918570000000  0.4805220000000 1.0
C      1  0.5478630000000  0.5795730000000  0.5050870000000 1.0
C      1  0.4777190000000  0.5865460000000  0.5361480000000 1.0
C      1  0.4750510000000  0.5846700000000  0.4576650000000 1.0
C      1  0.5123860000000  0.4304390000000  0.5432120000000 1.0
C      1  0.4569460000000  0.4254110000000  0.4962130000000 1.0
C      1  0.5267610000000  0.4225130000000  0.4696040000000 1.0
C      1  0.4268480000000  0.4897700000000  0.4745160000000 1.0
C      1  0.5584020000000  0.4849040000000  0.4450040000000 1.0
C      1  0.5164690000000  0.4828340000000  0.5779880000000 1.0
C      1  0.4535380000000  0.5786880000000  0.4781840000000 1.0
C      1  0.5678170000000  0.5962590000000  0.5082900000000 1.0
C      1  0.4680650000000  0.6048110000000  0.5522760000000 1.0
C      1  0.4609780000000  0.4729340000000  0.5431370000000 1.0
C      1  0.4780470000000  0.4694370000000  0.4476260000000 1.0
C      1  0.5581160000000  0.4703270000000  0.5059100000000 1.0
C      1  0.5115850000000  0.5501550000000  0.5277400000000 1.0
C      1  0.4679840000000  0.5542860000000  0.4969490000000 1.0
C      1  0.5189480000000  0.5520070000000  0.4745530000000 1.0
C      1  0.5064430000000  0.4942900000000  0.5562290000000 1.0
C      1  0.4387020000000  0.5143110000000  0.4715050000000 1.0
C      1  0.5555020000000  0.5111730000000  0.4523770000000 1.0
C      1  0.4753940000000  0.5098210000000  0.5204320000000 1.0
C      1  0.4952720000000  0.5091010000000  0.4714700000000 1.0
C      1  0.5304890000000  0.5123310000000  0.5031910000000 1.0
C      1  0.5003520000000  0.4482080000000  0.5211010000000 1.0
C      1  0.4828470000000  0.4432100000000  0.4927950000000 1.0
C      1  0.5160060000000  0.4431850000000  0.4913380000000 1.0
C      1  0.5439200000000  0.4342240000000  0.4510020000000 1.0
C      1  0.5277150000000  0.4369910000000  0.5646180000000 1.0
C      1  0.4337460000000  0.4390540000000  0.4887470000000 1.0
C      1  0.5277040000000  0.4581650000000  0.5819940000000 1.0
C      1  0.4391900000000  0.4650990000000  0.4789840000000 1.0
C      1  0.5493580000000  0.4613510000000  0.4569970000000 1.0
C      1  0.4700540000000  0.4673100000000  0.4766650000000 1.0
C      1  0.5368350000000  0.4665370000000  0.4848220000000 1.0
C      1  0.4895860000000  0.4741450000000  0.5346380000000 1.0
C      1  0.4898120000000  0.5631040000000  0.4720150000000 1.0
C      1  0.5294640000000  0.5607920000000  0.5020120000000 1.0
C      1  0.4862440000000  0.5663580000000  0.5213540000000 1.0
C      1  0.6021470000000  0.4553520000000  0.5377160000000 1.0
C      1  0.4149830000000  0.4542100000000  0.5694710000000 1.0
C      1  0.4807350000000  0.4522670000000  0.3939590000000 1.0
C      1  0.5439740000000  0.5418840000000  0.5340310000000 1.0
C      1  0.4435290000000  0.5430870000000  0.5177490000000 1.0
C      1  0.5103040000000  0.5408460000000  0.4436020000000 1.0
END
