TITL C-27144-3922-75 -0.00178717545676857 125000 -330.313022360605 0 0 60 (C1) n - 1
REM
REM in /home/nfs/bkarasulu/CARBON/AIRSS/Generating-Clusters/AIREBO/Higher-Symm/Only-C60
REM
REM
REM
REM
REM
REM ./C.cell (28575a23ae977d3b5fae324c64b13b57)
REM
REM compiler GCC version 9.2.1 20190827 (Red Hat 9.2.1-1)
REM options -cpp -mtune=generic -march=x86-64 -g -O0 -fpre-include=/usr/include/finclude/math-vector-fortran.h
REM seed 2105130602 -323279365 -1663755180 146085844 1037397104 596938360 320134408 601218241 -634807865 1681666010 -9286397 455188061 -849401984 -709257088 -1412746456 -999644444 1378540376 -1153356494 -693195984 993033386 978089264 -1839243116 1669272133 -706090527 2029840315 1034811657 218487193 1746984972 706320931 -496777630 442211989 -1253702354 252171616
REM
CELL 1.54180   50.00000   50.00000   50.00000   90.00000   90.00000   90.00000
LATT -1
SFAC C  
C      1  0.4410410000000  0.5047600000000  0.4901840000000 1.0
C      1  0.5743740000000  0.4973020000000  0.4821880000000 1.0
C      1  0.4836030000000  0.5124390000000  0.4544790000000 1.0
C      1  0.5473890000000  0.4820490000000  0.4570400000000 1.0
C      1  0.5592200000000  0.4994530000000  0.4309220000000 1.0
C      1  0.4518560000000  0.5082860000000  0.4445430000000 1.0
C      1  0.5032830000000  0.4821160000000  0.4825930000000 1.0
C      1  0.5113710000000  0.5245980000000  0.4618750000000 1.0
C      1  0.5283370000000  0.4621100000000  0.4711810000000 1.0
C      1  0.4588600000000  0.5468620000000  0.4790480000000 1.0
C      1  0.4762300000000  0.4138900000000  0.5015520000000 1.0
C      1  0.5270070000000  0.5783720000000  0.5124120000000 1.0
C      1  0.5291690000000  0.4744850000000  0.5561340000000 1.0
C      1  0.4579380000000  0.5497290000000  0.5545940000000 1.0
C      1  0.4439570000000  0.4480470000000  0.4897600000000 1.0
C      1  0.5502050000000  0.5475540000000  0.4799920000000 1.0
C      1  0.4461200000000  0.5245730000000  0.4691710000000 1.0
C      1  0.5803900000000  0.4908120000000  0.4539430000000 1.0
C      1  0.4576220000000  0.5035580000000  0.5630440000000 1.0
C      1  0.5493300000000  0.5015490000000  0.5600460000000 1.0
C      1  0.4818850000000  0.4617580000000  0.4943840000000 1.0
C      1  0.5081280000000  0.5424110000000  0.4855560000000 1.0
C      1  0.5341830000000  0.5176460000000  0.4376370000000 1.0
C      1  0.4636190000000  0.4790800000000  0.4455120000000 1.0
C      1  0.4376030000000  0.5085420000000  0.5363060000000 1.0
C      1  0.5571370000000  0.4864090000000  0.5306200000000 1.0
C      1  0.4665870000000  0.5255540000000  0.5310860000000 1.0
C      1  0.5259050000000  0.4751580000000  0.5230860000000 1.0
C      1  0.4769400000000  0.4652990000000  0.5530840000000 1.0
C      1  0.5147540000000  0.5284370000000  0.5451610000000 1.0
C      1  0.5311420000000  0.4258220000000  0.4874600000000 1.0
C      1  0.4709650000000  0.5809380000000  0.4955590000000 1.0
C      1  0.4996870000000  0.4823860000000  0.5588420000000 1.0
C      1  0.4890460000000  0.5134250000000  0.5535660000000 1.0
C      1  0.4855230000000  0.5629640000000  0.4744930000000 1.0
C      1  0.5321180000000  0.4302640000000  0.4601300000000 1.0
C      1  0.4737230000000  0.4989660000000  0.4824280000000 1.0
C      1  0.5298390000000  0.5017120000000  0.4749110000000 1.0
C      1  0.5085970000000  0.4996700000000  0.5180840000000 1.0
C      1  0.4790830000000  0.4988180000000  0.5141800000000 1.0
C      1  0.5217420000000  0.4536140000000  0.5036540000000 1.0
C      1  0.4733540000000  0.5493020000000  0.5097200000000 1.0
C      1  0.4411410000000  0.4650720000000  0.5127840000000 1.0
C      1  0.5452550000000  0.5215300000000  0.4950330000000 1.0
C      1  0.5446770000000  0.5449630000000  0.4533170000000 1.0
C      1  0.4607800000000  0.4617630000000  0.4677050000000 1.0
C      1  0.4695530000000  0.4695120000000  0.5243330000000 1.0
C      1  0.5200920000000  0.5281370000000  0.5137740000000 1.0
C      1  0.4946950000000  0.4332960000000  0.5001960000000 1.0
C      1  0.5039240000000  0.5644770000000  0.5097610000000 1.0
C      1  0.4348250000000  0.5352670000000  0.5544560000000 1.0
C      1  0.5619660000000  0.4647550000000  0.5563900000000 1.0
C      1  0.5052750000000  0.5022600000000  0.4298170000000 1.0
C      1  0.4869440000000  0.4796160000000  0.4282970000000 1.0
C      1  0.4501570000000  0.4204570000000  0.4942070000000 1.0
C      1  0.5486150000000  0.5706560000000  0.4963960000000 1.0
C      1  0.4319450000000  0.4920790000000  0.5123910000000 1.0
C      1  0.5675260000000  0.5033690000000  0.5088640000000 1.0
C      1  0.5366620000000  0.5254230000000  0.5609710000000 1.0
C      1  0.4571040000000  0.4766480000000  0.5711480000000 1.0
END
