TITL C-27134-4977-2 -0.00118497730756031 125000 -338.006064717502 0 0 60 (C1) n - 1
REM
REM in /home/nfs/bkarasulu/CARBON/AIRSS/Generating-Clusters/AIREBO/Higher-Symm/Only-C60
REM
REM
REM
REM
REM
REM ./C.cell (28575a23ae977d3b5fae324c64b13b57)
REM
REM compiler GCC version 9.2.1 20190827 (Red Hat 9.2.1-1)
REM options -cpp -mtune=generic -march=x86-64 -g -O0 -fpre-include=/usr/include/finclude/math-vector-fortran.h
REM seed 1058245721 -2132786100 655674494 -2000892724 1416621665 1751398220 -1714842436 -1202103398 -1185919300 1126887597 1636272087 776167792 -334359767 -2034817738 1196063324 63135282 1426649228 -1080187619 -1650168373 -364576207 -404721443 88903194 -546583830 -1378164160 1544106333 -526715859 -290533375 453833143 1619004589 -1136830741 1461588491 -1248293171 -2054850767
REM
CELL 1.54180   50.00000   50.00000   50.00000   90.00000   90.00000   90.00000
LATT -1
SFAC C  
C      1  0.5103250000000  0.4890140000000  0.4297030000000 1.0
C      1  0.5052160000000  0.4249860000000  0.5121810000000 1.0
C      1  0.5074560000000  0.5100490000000  0.5704360000000 1.0
C      1  0.5057600000000  0.5929040000000  0.4902360000000 1.0
C      1  0.5212040000000  0.4789810000000  0.5703130000000 1.0
C      1  0.5176270000000  0.5747060000000  0.5116250000000 1.0
C      1  0.5152610000000  0.5227080000000  0.4340860000000 1.0
C      1  0.5110650000000  0.4244640000000  0.4786910000000 1.0
C      1  0.5406240000000  0.5608670000000  0.5014990000000 1.0
C      1  0.5379050000000  0.4999610000000  0.4453280000000 1.0
C      1  0.5340340000000  0.4380810000000  0.4997640000000 1.0
C      1  0.5388930000000  0.5062490000000  0.5582970000000 1.0
C      1  0.4607920000000  0.5435740000000  0.4574980000000 1.0
C      1  0.4632760000000  0.4565850000000  0.4527710000000 1.0
C      1  0.4631560000000  0.4548440000000  0.5415540000000 1.0
C      1  0.4696160000000  0.5444610000000  0.5490160000000 1.0
C      1  0.4431960000000  0.4422800000000  0.4409150000000 1.0
C      1  0.4455450000000  0.4408860000000  0.5562980000000 1.0
C      1  0.4483360000000  0.5599050000000  0.5573800000000 1.0
C      1  0.4407480000000  0.5521960000000  0.4411170000000 1.0
C      1  0.5034730000000  0.5237950000000  0.4952210000000 1.0
C      1  0.5040900000000  0.4956300000000  0.4794770000000 1.0
C      1  0.5064890000000  0.4724400000000  0.5034180000000 1.0
C      1  0.5041750000000  0.5014760000000  0.5198860000000 1.0
C      1  0.5135870000000  0.4443960000000  0.4512400000000 1.0
C      1  0.5116610000000  0.4513450000000  0.5541690000000 1.0
C      1  0.5190600000000  0.5531170000000  0.5508500000000 1.0
C      1  0.5135830000000  0.5497260000000  0.4548750000000 1.0
C      1  0.5484930000000  0.5306480000000  0.4552250000000 1.0
C      1  0.5468350000000  0.4579200000000  0.4811090000000 1.0
C      1  0.5435750000000  0.4739030000000  0.5462790000000 1.0
C      1  0.5505060000000  0.5402150000000  0.5181850000000 1.0
C      1  0.5369190000000  0.4437070000000  0.5320720000000 1.0
C      1  0.5412340000000  0.5365950000000  0.5458880000000 1.0
C      1  0.5412300000000  0.5581270000000  0.4728060000000 1.0
C      1  0.5395390000000  0.4663470000000  0.4503730000000 1.0
C      1  0.4897100000000  0.4979680000000  0.5460050000000 1.0
C      1  0.4869770000000  0.5481570000000  0.4980800000000 1.0
C      1  0.4896350000000  0.4988810000000  0.4532560000000 1.0
C      1  0.4876620000000  0.4497190000000  0.4989610000000 1.0
C      1  0.4595490000000  0.5414510000000  0.4854690000000 1.0
C      1  0.4629810000000  0.4842200000000  0.4560160000000 1.0
C      1  0.4615650000000  0.4573510000000  0.5134130000000 1.0
C      1  0.4642850000000  0.5144780000000  0.5427590000000 1.0
C      1  0.4853340000000  0.4684780000000  0.5522520000000 1.0
C      1  0.4933490000000  0.5582720000000  0.5289440000000 1.0
C      1  0.4857170000000  0.5316710000000  0.4475510000000 1.0
C      1  0.4848780000000  0.4432340000000  0.4673500000000 1.0
C      1  0.4465500000000  0.5187460000000  0.4947270000000 1.0
C      1  0.4465310000000  0.4935220000000  0.4764320000000 1.0
C      1  0.4482010000000  0.4802970000000  0.5047040000000 1.0
C      1  0.4470990000000  0.5064490000000  0.5228860000000 1.0
C      1  0.5101860000000  0.4613530000000  0.4238180000000 1.0
C      1  0.5041790000000  0.4226030000000  0.5403520000000 1.0
C      1  0.4969290000000  0.5381260000000  0.5632520000000 1.0
C      1  0.4987140000000  0.5678870000000  0.4771480000000 1.0
C      1  0.5370120000000  0.4879310000000  0.4833630000000 1.0
C      1  0.5372150000000  0.4797780000000  0.5160320000000 1.0
C      1  0.5360520000000  0.5121780000000  0.5148200000000 1.0
C      1  0.5352090000000  0.5201640000000  0.4826320000000 1.0
END
