TITL C-27130-3996-167 -0.00098181012697311 125000 -324.13207880374 0 0 60 (C1) n - 1
REM
REM in /home/nfs/bkarasulu/CARBON/AIRSS/Generating-Clusters/AIREBO/Higher-Symm/Only-C60
REM
REM
REM
REM
REM
REM ./C.cell (28575a23ae977d3b5fae324c64b13b57)
REM
REM compiler GCC version 9.2.1 20190827 (Red Hat 9.2.1-1)
REM options -cpp -mtune=generic -march=x86-64 -g -O0 -fpre-include=/usr/include/finclude/math-vector-fortran.h
REM seed -498207624 -1515013818 479832278 -100434233 -810793016 459064410 271536000 433150987 -343897490 -1404007148 859777344 -1228487697 -28973877 -103562261 -968400107 -436288980 -495998910 -176136989 2081199841 -1969435922 1607660703 1799818927 2072464439 1650780397 -214011149 -1920333214 200992773 -1634211405 -1952698892 -1047582209 -107387011 1187356920 -200110201
REM
CELL 1.54180   50.00000   50.00000   50.00000   90.00000   90.00000   90.00000
LATT -1
SFAC C  
C      1  0.5004980000000  0.5132200000000  0.5705060000000 1.0
C      1  0.5083740000000  0.5588150000000  0.4541870000000 1.0
C      1  0.5035950000000  0.4310350000000  0.4764320000000 1.0
C      1  0.5073530000000  0.4873100000000  0.5723460000000 1.0
C      1  0.5098970000000  0.4417980000000  0.4524800000000 1.0
C      1  0.5088130000000  0.5702540000000  0.4788650000000 1.0
C      1  0.5406220000000  0.4700200000000  0.4993400000000 1.0
C      1  0.5364050000000  0.5157850000000  0.5277110000000 1.0
C      1  0.5379900000000  0.5161980000000  0.4707510000000 1.0
C      1  0.5419960000000  0.5296760000000  0.4989770000000 1.0
C      1  0.5376890000000  0.4842730000000  0.5279730000000 1.0
C      1  0.5405670000000  0.4849650000000  0.4708870000000 1.0
C      1  0.4589120000000  0.5306150000000  0.5011960000000 1.0
C      1  0.4474280000000  0.4852870000000  0.4749380000000 1.0
C      1  0.4543430000000  0.4851450000000  0.5299320000000 1.0
C      1  0.4586020000000  0.4707400000000  0.4994260000000 1.0
C      1  0.4550250000000  0.5149770000000  0.4736600000000 1.0
C      1  0.4523550000000  0.5183230000000  0.5313200000000 1.0
C      1  0.4695770000000  0.4255000000000  0.5170900000000 1.0
C      1  0.4740230000000  0.5623420000000  0.5496780000000 1.0
C      1  0.4703280000000  0.5100320000000  0.4267740000000 1.0
C      1  0.4720500000000  0.5744690000000  0.5186940000000 1.0
C      1  0.4731430000000  0.4375970000000  0.5429800000000 1.0
C      1  0.4653800000000  0.4809200000000  0.4291740000000 1.0
C      1  0.5669410000000  0.4535400000000  0.5000230000000 1.0
C      1  0.5594230000000  0.5257710000000  0.5463050000000 1.0
C      1  0.5602960000000  0.5272770000000  0.4520430000000 1.0
C      1  0.5693960000000  0.5435640000000  0.4996160000000 1.0
C      1  0.5623090000000  0.4758840000000  0.5448840000000 1.0
C      1  0.5666770000000  0.4770090000000  0.4562860000000 1.0
C      1  0.4535780000000  0.5614150000000  0.5032600000000 1.0
C      1  0.4480600000000  0.4733530000000  0.4500800000000 1.0
C      1  0.4559390000000  0.4583150000000  0.5487770000000 1.0
C      1  0.4510840000000  0.4401970000000  0.5011130000000 1.0
C      1  0.4545980000000  0.5249300000000  0.4436600000000 1.0
C      1  0.4500720000000  0.5396240000000  0.5507920000000 1.0
C      1  0.4872160000000  0.5164330000000  0.4769120000000 1.0
C      1  0.4908400000000  0.4699590000000  0.4969100000000 1.0
C      1  0.4835450000000  0.5121420000000  0.5265700000000 1.0
C      1  0.4986070000000  0.4884540000000  0.4755480000000 1.0
C      1  0.4933260000000  0.5314730000000  0.5034840000000 1.0
C      1  0.4878420000000  0.4819140000000  0.5249290000000 1.0
C      1  0.4982370000000  0.4816640000000  0.4249110000000 1.0
C      1  0.5033560000000  0.4420370000000  0.5499830000000 1.0
C      1  0.5199880000000  0.5738650000000  0.5243990000000 1.0
C      1  0.5022170000000  0.5153970000000  0.4271510000000 1.0
C      1  0.5069380000000  0.5573140000000  0.5457910000000 1.0
C      1  0.5160250000000  0.4293570000000  0.5245360000000 1.0
C      1  0.5094490000000  0.5253760000000  0.5402280000000 1.0
C      1  0.5105510000000  0.5250320000000  0.4580820000000 1.0
C      1  0.5160040000000  0.4515550000000  0.5001360000000 1.0
C      1  0.5114560000000  0.4741100000000  0.5420660000000 1.0
C      1  0.5151150000000  0.4753810000000  0.4537550000000 1.0
C      1  0.5175950000000  0.5486260000000  0.5020880000000 1.0
C      1  0.4950420000000  0.4181820000000  0.5044790000000 1.0
C      1  0.4920640000000  0.5426050000000  0.5715120000000 1.0
C      1  0.5073100000000  0.5482820000000  0.4261670000000 1.0
C      1  0.4966790000000  0.5823170000000  0.5058900000000 1.0
C      1  0.5087310000000  0.4582790000000  0.5783690000000 1.0
C      1  0.5085250000000  0.4500740000000  0.4239480000000 1.0
END
