TITL C-27138-9601-26 -14.3374022934213 125000 -329.71367600544 0 0 60 (C1) n - 1
REM
REM in /home/nfs/bkarasulu/CARBON/AIRSS/Generating-Clusters/AIREBO/Higher-Symm/Only-C60
REM
REM
REM
REM
REM
REM ./C.cell (28575a23ae977d3b5fae324c64b13b57)
REM
REM compiler GCC version 9.2.1 20190827 (Red Hat 9.2.1-1)
REM options -cpp -mtune=generic -march=x86-64 -g -O0 -fpre-include=/usr/include/finclude/math-vector-fortran.h
REM seed 282751131 -961027492 -2054641369 -1457620653 891757005 339783867 1845087402 2018545099 -1813276375 587635923 -1021814753 1749967599 -1147040594 813643189 792665259 -1970148373 -26369092 1983483799 1763478972 1174462731 32446283 1306465911 -944381258 -1808812143 -116874639 -1508270652 683945654 160776738 26238135 949705169 -1527928681 -1846394206 -492364606
REM
CELL 1.54180   50.00000   50.00000   50.00000   90.00000   90.00000   90.00000
LATT -1
SFAC C  
C      1  0.4453090000000  0.4909630000000  0.5388450000000 1.0
C      1  0.4449830000000  0.5153760000000  0.5166930000000 1.0
C      1  0.4319450000000  0.5359390000000  0.4962700000000 1.0
C      1  0.4338230000000  0.5132400000000  0.4716460000000 1.0
C      1  0.4322750000000  0.4792340000000  0.4715560000000 1.0
C      1  0.4435630000000  0.4550140000000  0.4932800000000 1.0
C      1  0.4594440000000  0.4669210000000  0.5208970000000 1.0
C      1  0.5045620000000  0.4156610000000  0.4727730000000 1.0
C      1  0.5139470000000  0.5026660000000  0.5774150000000 1.0
C      1  0.5043720000000  0.5526780000000  0.5549130000000 1.0
C      1  0.4988120000000  0.5775370000000  0.5065520000000 1.0
C      1  0.4969410000000  0.5557370000000  0.4506700000000 1.0
C      1  0.4950550000000  0.5059970000000  0.4290130000000 1.0
C      1  0.4982930000000  0.4531720000000  0.4379710000000 1.0
C      1  0.5078990000000  0.5695970000000  0.4787830000000 1.0
C      1  0.5070300000000  0.5288630000000  0.4444630000000 1.0
C      1  0.5102240000000  0.4808710000000  0.4345920000000 1.0
C      1  0.5145080000000  0.4384370000000  0.4591490000000 1.0
C      1  0.5309950000000  0.4805070000000  0.5708500000000 1.0
C      1  0.5222660000000  0.5284450000000  0.5655780000000 1.0
C      1  0.5136350000000  0.5640100000000  0.5289400000000 1.0
C      1  0.4367980000000  0.4973730000000  0.4431400000000 1.0
C      1  0.4452840000000  0.4508820000000  0.4600320000000 1.0
C      1  0.4742770000000  0.4429470000000  0.5024960000000 1.0
C      1  0.4732240000000  0.4774660000000  0.5506690000000 1.0
C      1  0.4653440000000  0.5180690000000  0.5437920000000 1.0
C      1  0.4595190000000  0.5515060000000  0.5076630000000 1.0
C      1  0.4528150000000  0.5410870000000  0.4698000000000 1.0
C      1  0.5229070000000  0.5228860000000  0.5359990000000 1.0
C      1  0.5292560000000  0.5418110000000  0.5114720000000 1.0
C      1  0.5107460000000  0.5375860000000  0.4832590000000 1.0
C      1  0.5285320000000  0.5145150000000  0.4664990000000 1.0
C      1  0.5270130000000  0.4842230000000  0.4584480000000 1.0
C      1  0.5223950000000  0.4615260000000  0.4758110000000 1.0
C      1  0.5240430000000  0.4662880000000  0.5480030000000 1.0
C      1  0.5935540000000  0.5135130000000  0.5230970000000 1.0
C      1  0.5939190000000  0.5045680000000  0.4947590000000 1.0
C      1  0.5790800000000  0.4769700000000  0.4915590000000 1.0
C      1  0.5814470000000  0.4518710000000  0.5035510000000 1.0
C      1  0.5799220000000  0.4493870000000  0.5312190000000 1.0
C      1  0.5744380000000  0.4708370000000  0.5480770000000 1.0
C      1  0.5729840000000  0.4968680000000  0.5377650000000 1.0
C      1  0.4703120000000  0.5762840000000  0.5096210000000 1.0
C      1  0.4683080000000  0.5585870000000  0.4486340000000 1.0
C      1  0.4647430000000  0.5017080000000  0.4359710000000 1.0
C      1  0.4720720000000  0.4550750000000  0.4518460000000 1.0
C      1  0.4855660000000  0.4161690000000  0.4928500000000 1.0
C      1  0.4862220000000  0.4942340000000  0.5752200000000 1.0
C      1  0.4765510000000  0.5447690000000  0.5580140000000 1.0
C      1  0.4981810000000  0.4668870000000  0.4990810000000 1.0
C      1  0.4997220000000  0.4767600000000  0.5310540000000 1.0
C      1  0.4962100000000  0.5092700000000  0.5326680000000 1.0
C      1  0.4815300000000  0.5293060000000  0.5092590000000 1.0
C      1  0.4809920000000  0.5269170000000  0.4768030000000 1.0
C      1  0.4766940000000  0.5005620000000  0.4639230000000 1.0
C      1  0.4800960000000  0.4753360000000  0.4720030000000 1.0
C      1  0.5043730000000  0.4999370000000  0.4947950000000 1.0
C      1  0.5345230000000  0.5106340000000  0.4997450000000 1.0
C      1  0.5599370000000  0.4993490000000  0.5070140000000 1.0
C      1  0.4715100000000  0.4987100000000  0.5034510000000 1.0
END
