TITL C-27137-4574-145 0.0140377945168032 125000 -347.13400508234 0 0 60 (C5) n - 1
REM
REM in /home/nfs/bkarasulu/CARBON/AIRSS/Generating-Clusters/AIREBO/Higher-Symm/Only-C60
REM
REM
REM
REM
REM
REM ./C.cell (28575a23ae977d3b5fae324c64b13b57)
REM
REM compiler GCC version 9.2.1 20190827 (Red Hat 9.2.1-1)
REM options -cpp -mtune=generic -march=x86-64 -g -O0 -fpre-include=/usr/include/finclude/math-vector-fortran.h
REM seed 1746616305 -2078627768 -1488066395 2126153553 -2046790972 1468930652 1301801047 1024586555 -1542221470 -2133130357 -1705268188 688288441 -1882975706 1654700129 57194889 2183003 350596975 1184720275 292122576 327087384 682135696 2046518370 -65708972 138582307 1724081319 1125961616 -1613291126 1688872398 -1216056617 -1646435690 -2118474174 -797507752 591896598
REM
CELL 1.54180   50.00000   50.00000   50.00000   90.00000   90.00000   90.00000
LATT -1
SFAC C  
C      1  0.4698200000000  0.5107590000000  0.5645600000000 1.0
C      1  0.4698220000000  0.4419270000000  0.5301890000000 1.0
C      1  0.4698090000000  0.4533450000000  0.4541040000000 1.0
C      1  0.4697990000000  0.5292350000000  0.4414520000000 1.0
C      1  0.4698060000000  0.5647190000000  0.5097180000000 1.0
C      1  0.4388430000000  0.5202370000000  0.5129860000000 1.0
C      1  0.4388470000000  0.4939080000000  0.5232720000000 1.0
C      1  0.4388460000000  0.4759890000000  0.5014110000000 1.0
C      1  0.4388400000000  0.4912440000000  0.4776130000000 1.0
C      1  0.4388390000000  0.5185910000000  0.4847670000000 1.0
C      1  0.5428240000000  0.4585230000000  0.5595460000000 1.0
C      1  0.5428140000000  0.4305480000000  0.4789450000000 1.0
C      1  0.5427990000000  0.4985590000000  0.4274320000000 1.0
C      1  0.5427990000000  0.5685670000000  0.4761960000000 1.0
C      1  0.5428150000000  0.5438240000000  0.5578470000000 1.0
C      1  0.5244600000000  0.4705790000000  0.5341230000000 1.0
C      1  0.5244540000000  0.4584540000000  0.4825580000000 1.0
C      1  0.5244450000000  0.5037470000000  0.4550920000000 1.0
C      1  0.5244460000000  0.5438660000000  0.4896820000000 1.0
C      1  0.5244560000000  0.5233660000000  0.5385250000000 1.0
C      1  0.5597750000000  0.5447470000000  0.4712510000000 1.0
C      1  0.5597850000000  0.5411640000000  0.5336600000000 1.0
C      1  0.5597940000000  0.4807030000000  0.5495390000000 1.0
C      1  0.5597890000000  0.4469180000000  0.4969430000000 1.0
C      1  0.5597770000000  0.4864990000000  0.4485590000000 1.0
C      1  0.5218720000000  0.4385370000000  0.5452140000000 1.0
C      1  0.5218580000000  0.4380040000000  0.4555130000000 1.0
C      1  0.5218450000000  0.5231510000000  0.4272870000000 1.0
C      1  0.5218510000000  0.5763070000000  0.4995430000000 1.0
C      1  0.5218680000000  0.5240130000000  0.5724260000000 1.0
C      1  0.4560910000000  0.4498120000000  0.5019450000000 1.0
C      1  0.4560800000000  0.4826450000000  0.4528780000000 1.0
C      1  0.4560770000000  0.5394560000000  0.4689420000000 1.0
C      1  0.4560860000000  0.5417340000000  0.5279360000000 1.0
C      1  0.4560950000000  0.4863310000000  0.5483330000000 1.0
C      1  0.4788030000000  0.4929390000000  0.5247400000000 1.0
C      1  0.4788020000000  0.4742910000000  0.5009340000000 1.0
C      1  0.4787960000000  0.4911690000000  0.4758420000000 1.0
C      1  0.4787940000000  0.5202480000000  0.4841400000000 1.0
C      1  0.4787990000000  0.5213420000000  0.5143610000000 1.0
C      1  0.5470380000000  0.4811440000000  0.4790410000000 1.0
C      1  0.5470340000000  0.5141020000000  0.4755800000000 1.0
C      1  0.5470370000000  0.5275780000000  0.5058560000000 1.0
C      1  0.5470430000000  0.5029490000000  0.5280290000000 1.0
C      1  0.5470430000000  0.4742510000000  0.5114560000000 1.0
C      1  0.5036380000000  0.4563870000000  0.5030900000000 1.0
C      1  0.5036290000000  0.4835840000000  0.4594760000000 1.0
C      1  0.5036260000000  0.5334680000000  0.4718630000000 1.0
C      1  0.5036330000000  0.5371010000000  0.5231340000000 1.0
C      1  0.5036410000000  0.4894630000000  0.5424340000000 1.0
C      1  0.4585570000000  0.4370470000000  0.4733870000000 1.0
C      1  0.4585430000000  0.5058600000000  0.4319130000000 1.0
C      1  0.4585450000000  0.5665690000000  0.4845420000000 1.0
C      1  0.4585600000000  0.5352760000000  0.5585420000000 1.0
C      1  0.4585670000000  0.4552270000000  0.5516480000000 1.0
C      1  0.4983390000000  0.4412520000000  0.5266780000000 1.0
C      1  0.4983260000000  0.4564740000000  0.4523720000000 1.0
C      1  0.4983170000000  0.5318470000000  0.4438870000000 1.0
C      1  0.4983250000000  0.5632080000000  0.5129490000000 1.0
C      1  0.4983380000000  0.5072180000000  0.5641160000000 1.0
END
