TITL C-27145-253-23 -0.00011360833388658 125000 -321.928314528696 0 0 60 (C1) n - 1
REM
REM in /home/nfs/bkarasulu/CARBON/AIRSS/Generating-Clusters/AIREBO/Higher-Symm/Only-C60
REM
REM
REM
REM
REM
REM ./C.cell (28575a23ae977d3b5fae324c64b13b57)
REM
REM compiler GCC version 9.2.1 20190827 (Red Hat 9.2.1-1)
REM options -cpp -mtune=generic -march=x86-64 -g -O0 -fpre-include=/usr/include/finclude/math-vector-fortran.h
REM seed 425261998 1194303164 -1305528616 -1542818332 -1655714137 -1721185966 344282251 -693785402 -1547536020 1904872303 1078935579 931657801 940164453 -795631760 638264622 1448630093 1038554857 -175893652 -946481927 -794136191 2060657822 893575333 1069280577 223574230 -2037025579 637284389 -816427926 -1020567786 -153077930 -314043005 -701073643 -2078281987 747885322
REM
CELL 1.54180   50.00000   50.00000   50.00000   90.00000   90.00000   90.00000
LATT -1
SFAC C  
C      1  0.4730610000000  0.5239530000000  0.5159110000000 1.0
C      1  0.4745520000000  0.5237820000000  0.4457930000000 1.0
C      1  0.5407870000000  0.4671590000000  0.5336610000000 1.0
C      1  0.4521040000000  0.4718660000000  0.5194990000000 1.0
C      1  0.5333550000000  0.5324780000000  0.5233740000000 1.0
C      1  0.4926690000000  0.4966860000000  0.5214440000000 1.0
C      1  0.5309940000000  0.4390190000000  0.5289300000000 1.0
C      1  0.5071830000000  0.5256490000000  0.4527070000000 1.0
C      1  0.4815630000000  0.4376060000000  0.4613790000000 1.0
C      1  0.4829590000000  0.4912760000000  0.4830250000000 1.0
C      1  0.4544630000000  0.5000800000000  0.4769760000000 1.0
C      1  0.5187180000000  0.4985940000000  0.4371740000000 1.0
C      1  0.5290770000000  0.4802640000000  0.4582660000000 1.0
C      1  0.5291750000000  0.4699150000000  0.5717000000000 1.0
C      1  0.5685210000000  0.4743440000000  0.5153500000000 1.0
C      1  0.4744130000000  0.4200240000000  0.5103910000000 1.0
C      1  0.4790650000000  0.4495750000000  0.4373480000000 1.0
C      1  0.5489880000000  0.5234350000000  0.5446250000000 1.0
C      1  0.5498490000000  0.5006690000000  0.5063730000000 1.0
C      1  0.4658160000000  0.4525950000000  0.5435270000000 1.0
C      1  0.4873330000000  0.5059480000000  0.5855890000000 1.0
C      1  0.5521160000000  0.4406620000000  0.4842390000000 1.0
C      1  0.5198200000000  0.5086410000000  0.5047760000000 1.0
C      1  0.4511120000000  0.5299250000000  0.4924350000000 1.0
C      1  0.4180110000000  0.6034000000000  0.5212750000000 1.0
C      1  0.4897760000000  0.4983750000000  0.4294710000000 1.0
C      1  0.5616590000000  0.5718440000000  0.4591860000000 1.0
C      1  0.5107360000000  0.4944080000000  0.5771190000000 1.0
C      1  0.5594780000000  0.5403890000000  0.5628130000000 1.0
C      1  0.5373740000000  0.4271620000000  0.5041170000000 1.0
C      1  0.5103750000000  0.5022120000000  0.4759190000000 1.0
C      1  0.5435280000000  0.5788350000000  0.5144300000000 1.0
C      1  0.4642580000000  0.5443240000000  0.4662690000000 1.0
C      1  0.4494400000000  0.5014270000000  0.4447580000000 1.0
C      1  0.4705700000000  0.4419510000000  0.4898270000000 1.0
C      1  0.4284430000000  0.5805720000000  0.5137310000000 1.0
C      1  0.4696870000000  0.4858750000000  0.5445100000000 1.0
C      1  0.5453480000000  0.5569970000000  0.4435440000000 1.0
C      1  0.4819890000000  0.4690880000000  0.5046830000000 1.0
C      1  0.4752820000000  0.5688560000000  0.4648350000000 1.0
C      1  0.5542480000000  0.5463320000000  0.4203600000000 1.0
C      1  0.5392560000000  0.4558130000000  0.4644860000000 1.0
C      1  0.4790680000000  0.4732670000000  0.4239520000000 1.0
C      1  0.4371650000000  0.5575220000000  0.5042810000000 1.0
C      1  0.4803810000000  0.5459120000000  0.5297410000000 1.0
C      1  0.5190690000000  0.5526760000000  0.4515750000000 1.0
C      1  0.5815200000000  0.5040710000000  0.5049570000000 1.0
C      1  0.5023640000000  0.5728200000000  0.4618090000000 1.0
C      1  0.4698170000000  0.3936970000000  0.5049210000000 1.0
C      1  0.5754350000000  0.4521690000000  0.4953010000000 1.0
C      1  0.5540990000000  0.4957650000000  0.5457860000000 1.0
C      1  0.4401640000000  0.4514770000000  0.4872710000000 1.0
C      1  0.4655140000000  0.5025690000000  0.5693930000000 1.0
C      1  0.4997040000000  0.5649550000000  0.5292030000000 1.0
C      1  0.5153560000000  0.4863610000000  0.5446370000000 1.0
C      1  0.4212840000000  0.5142950000000  0.4971360000000 1.0
C      1  0.5086600000000  0.4293270000000  0.5427840000000 1.0
C      1  0.5261660000000  0.5596030000000  0.5217270000000 1.0
C      1  0.4814860000000  0.4311090000000  0.5355650000000 1.0
C      1  0.4355950000000  0.4803990000000  0.4941370000000 1.0
END
