TITL C-27143-4867-116 -0.00141828269762465 125000 -324.479791773833 0 0 60 (C1) n - 1
REM
REM in /home/nfs/bkarasulu/CARBON/AIRSS/Generating-Clusters/AIREBO/Higher-Symm/Only-C60
REM
REM
REM
REM
REM
REM ./C.cell (28575a23ae977d3b5fae324c64b13b57)
REM
REM compiler GCC version 9.2.1 20190827 (Red Hat 9.2.1-1)
REM options -cpp -mtune=generic -march=x86-64 -g -O0 -fpre-include=/usr/include/finclude/math-vector-fortran.h
REM seed -1227032480 -520911466 -1590799058 -456713454 -422653344 -1099837176 -795566740 -2143724473 -565436382 -1931697184 952196442 -1259485718 -2009263517 -1385490951 84898854 677679900 1953226691 1980510824 -488510822 -900219782 948433297 301484711 2061475291 320496985 -1455800643 -1132079467 -139487878 2080461122 908022748 1600862715 185753067 -749539760 732082299
REM
CELL 1.54180   50.00000   50.00000   50.00000   90.00000   90.00000   90.00000
LATT -1
SFAC C  
C      1  0.5570200000000  0.4959850000000  0.4851740000000 1.0
C      1  0.4316960000000  0.5015550000000  0.5193670000000 1.0
C      1  0.5430810000000  0.4669490000000  0.5495580000000 1.0
C      1  0.4601160000000  0.4642310000000  0.4465250000000 1.0
C      1  0.4919650000000  0.4591760000000  0.4521930000000 1.0
C      1  0.5101180000000  0.4610630000000  0.5425480000000 1.0
C      1  0.5075000000000  0.4415800000000  0.5181870000000 1.0
C      1  0.4935380000000  0.4491030000000  0.4819530000000 1.0
C      1  0.4679900000000  0.5450010000000  0.5047840000000 1.0
C      1  0.5278120000000  0.5528590000000  0.4949640000000 1.0
C      1  0.5308910000000  0.4883440000000  0.4539010000000 1.0
C      1  0.4695350000000  0.4903770000000  0.5469410000000 1.0
C      1  0.4601080000000  0.5149470000000  0.4947330000000 1.0
C      1  0.5441880000000  0.5269320000000  0.5069040000000 1.0
C      1  0.5237070000000  0.5520240000000  0.5390160000000 1.0
C      1  0.4790120000000  0.5521390000000  0.4611340000000 1.0
C      1  0.5368580000000  0.4299480000000  0.5055590000000 1.0
C      1  0.4603510000000  0.4418590000000  0.4869130000000 1.0
C      1  0.5202080000000  0.4647330000000  0.4967630000000 1.0
C      1  0.4830280000000  0.4639730000000  0.5106670000000 1.0
C      1  0.4914980000000  0.5107890000000  0.5308750000000 1.0
C      1  0.5095040000000  0.5068320000000  0.4728460000000 1.0
C      1  0.5400220000000  0.5435000000000  0.4679310000000 1.0
C      1  0.4593220000000  0.5458000000000  0.5332230000000 1.0
C      1  0.5026960000000  0.5227090000000  0.4435520000000 1.0
C      1  0.4984720000000  0.5247800000000  0.5610710000000 1.0
C      1  0.4371580000000  0.5233120000000  0.5385630000000 1.0
C      1  0.5575560000000  0.5185090000000  0.4648730000000 1.0
C      1  0.4831790000000  0.4860030000000  0.4706340000000 1.0
C      1  0.5177620000000  0.4920370000000  0.5324310000000 1.0
C      1  0.5501940000000  0.5092370000000  0.4358280000000 1.0
C      1  0.4499890000000  0.5104220000000  0.5655150000000 1.0
C      1  0.4522760000000  0.4538050000000  0.5138240000000 1.0
C      1  0.5500630000000  0.4429260000000  0.4815790000000 1.0
C      1  0.5436190000000  0.4577230000000  0.5210270000000 1.0
C      1  0.4462300000000  0.4470610000000  0.4627850000000 1.0
C      1  0.5505940000000  0.4675290000000  0.4710250000000 1.0
C      1  0.4476620000000  0.4792790000000  0.5273890000000 1.0
C      1  0.5695560000000  0.5060990000000  0.5150770000000 1.0
C      1  0.4280280000000  0.5059750000000  0.4889880000000 1.0
C      1  0.5055440000000  0.5379960000000  0.5159490000000 1.0
C      1  0.4937940000000  0.5343580000000  0.4853350000000 1.0
C      1  0.5542920000000  0.5589950000000  0.5144100000000 1.0
C      1  0.4421260000000  0.5424730000000  0.4845250000000 1.0
C      1  0.5528670000000  0.5443990000000  0.5418120000000 1.0
C      1  0.4518220000000  0.5465390000000  0.4552570000000 1.0
C      1  0.4892730000000  0.4719090000000  0.5626580000000 1.0
C      1  0.5123750000000  0.4716470000000  0.4340170000000 1.0
C      1  0.5020490000000  0.4845550000000  0.5837420000000 1.0
C      1  0.4990560000000  0.4869330000000  0.4151400000000 1.0
C      1  0.5268290000000  0.4978510000000  0.5007090000000 1.0
C      1  0.4814040000000  0.4946560000000  0.5026970000000 1.0
C      1  0.5602580000000  0.5173070000000  0.5422260000000 1.0
C      1  0.4417000000000  0.5153260000000  0.4592930000000 1.0
C      1  0.4701980000000  0.5332670000000  0.5585890000000 1.0
C      1  0.5294910000000  0.5333910000000  0.4408830000000 1.0
C      1  0.4845310000000  0.5076390000000  0.4284090000000 1.0
C      1  0.5163030000000  0.5076560000000  0.5746570000000 1.0
C      1  0.5406110000000  0.4993510000000  0.5553930000000 1.0
C      1  0.4613740000000  0.4966470000000  0.4474780000000 1.0
END
