TITL C-27132-7279-146 61.7890947206272 125000 -340.365056542637 0 0 60 (C2) n - 1
REM
REM in /home/nfs/bkarasulu/CARBON/AIRSS/Generating-Clusters/AIREBO/Higher-Symm/Only-C60
REM
REM
REM
REM
REM
REM ./C.cell (28575a23ae977d3b5fae324c64b13b57)
REM
REM compiler GCC version 9.2.1 20190827 (Red Hat 9.2.1-1)
REM options -cpp -mtune=generic -march=x86-64 -g -O0 -fpre-include=/usr/include/finclude/math-vector-fortran.h
REM seed 814630782 115657500 -1136606797 284889428 -323737100 -1085939581 1239280494 1076617624 884595084 -1680514928 1266720414 -1047399325 900201310 -56860584 -989488936 1014977801 1370112406 -1960208781 -1693944683 -3876957 -406842462 634554386 1928250291 1855664390 925767414 417300032 398340510 636839124 -1316717727 -682103281 244074905 -1793954277 -2027915247
REM
CELL 1.54180   50.00000   50.00000   50.00000   90.00000   90.00000   90.00000
LATT -1
SFAC C  
C      1  0.4497820000000  0.4581290000000  0.4510940000000 1.0
C      1  0.4550920000000  0.5529250000000  0.4623000000000 1.0
C      1  0.4498080000000  0.5418690000000  0.5489370000000 1.0
C      1  0.4551140000000  0.4470750000000  0.5377240000000 1.0
C      1  0.5494600000000  0.4471150000000  0.4525650000000 1.0
C      1  0.5518860000000  0.5458340000000  0.4495810000000 1.0
C      1  0.5494860000000  0.5528860000000  0.5474090000000 1.0
C      1  0.5519140000000  0.4541660000000  0.5503910000000 1.0
C      1  0.4380610000000  0.5213810000000  0.5396760000000 1.0
C      1  0.4432140000000  0.4584700000000  0.5188640000000 1.0
C      1  0.4380390000000  0.4786170000000  0.4603610000000 1.0
C      1  0.4432020000000  0.5415290000000  0.4811650000000 1.0
C      1  0.5645740000000  0.5313340000000  0.5535930000000 1.0
C      1  0.5654510000000  0.4475640000000  0.5280880000000 1.0
C      1  0.5645450000000  0.4686670000000  0.4463730000000 1.0
C      1  0.5654350000000  0.5524360000000  0.4718770000000 1.0
C      1  0.5161200000000  0.5874340000000  0.5078540000000 1.0
C      1  0.5188220000000  0.4922350000000  0.5878890000000 1.0
C      1  0.5161160000000  0.4125660000000  0.4921380000000 1.0
C      1  0.5187750000000  0.5077650000000  0.4121010000000 1.0
C      1  0.4759540000000  0.5670220000000  0.4995050000000 1.0
C      1  0.4769100000000  0.4987410000000  0.5702870000000 1.0
C      1  0.4759540000000  0.4329790000000  0.5005100000000 1.0
C      1  0.4768720000000  0.5012580000000  0.4297240000000 1.0
C      1  0.5500520000000  0.4434610000000  0.5064320000000 1.0
C      1  0.5506290000000  0.4914580000000  0.4429420000000 1.0
C      1  0.5500480000000  0.5565390000000  0.4935410000000 1.0
C      1  0.5506600000000  0.5085420000000  0.5570310000000 1.0
C      1  0.4545730000000  0.4803280000000  0.4966940000000 1.0
C      1  0.4540880000000  0.5039350000000  0.4731830000000 1.0
C      1  0.4545730000000  0.5196760000000  0.5033330000000 1.0
C      1  0.4541030000000  0.4960650000000  0.5268390000000 1.0
C      1  0.4700730000000  0.5447830000000  0.5147230000000 1.0
C      1  0.4696230000000  0.4825940000000  0.5488340000000 1.0
C      1  0.4700660000000  0.4552190000000  0.4852960000000 1.0
C      1  0.4695940000000  0.5174060000000  0.4511790000000 1.0
C      1  0.5336270000000  0.5637300000000  0.5210850000000 1.0
C      1  0.5359530000000  0.4796550000000  0.5633380000000 1.0
C      1  0.5336160000000  0.4362700000000  0.4788980000000 1.0
C      1  0.5359190000000  0.5203450000000  0.4366430000000 1.0
C      1  0.4913810000000  0.4387650000000  0.5230780000000 1.0
C      1  0.4909950000000  0.4783400000000  0.4376040000000 1.0
C      1  0.4913680000000  0.5612330000000  0.4769280000000 1.0
C      1  0.4910290000000  0.5216600000000  0.5624010000000 1.0
C      1  0.5209760000000  0.4355740000000  0.5166660000000 1.0
C      1  0.5208730000000  0.4834520000000  0.4353290000000 1.0
C      1  0.5209660000000  0.5644250000000  0.4833230000000 1.0
C      1  0.5209080000000  0.5165480000000  0.5646600000000 1.0
C      1  0.5159930000000  0.4526980000000  0.4548000000000 1.0
C      1  0.5180850000000  0.5446530000000  0.4524610000000 1.0
C      1  0.5160180000000  0.5473030000000  0.5451930000000 1.0
C      1  0.5181120000000  0.4553460000000  0.5475300000000 1.0
C      1  0.4822550000000  0.4550840000000  0.4561080000000 1.0
C      1  0.4852770000000  0.5444820000000  0.4514790000000 1.0
C      1  0.4822780000000  0.5449170000000  0.5439040000000 1.0
C      1  0.4853040000000  0.4555170000000  0.5485290000000 1.0
C      1  0.4918500000000  0.4867290000000  0.5917890000000 1.0
C      1  0.4887490000000  0.4106850000000  0.4875000000000 1.0
C      1  0.4918010000000  0.5132700000000  0.4082140000000 1.0
C      1  0.4887570000000  0.5893160000000  0.5125060000000 1.0
END
