TITL C-27134-4977-87 0.000106656393229747 125000 -332.805491349897 0 0 60 (C1) n - 1
REM
REM in /home/nfs/bkarasulu/CARBON/AIRSS/Generating-Clusters/AIREBO/Higher-Symm/Only-C60
REM
REM
REM
REM
REM
REM ./C.cell (28575a23ae977d3b5fae324c64b13b57)
REM
REM compiler GCC version 9.2.1 20190827 (Red Hat 9.2.1-1)
REM options -cpp -mtune=generic -march=x86-64 -g -O0 -fpre-include=/usr/include/finclude/math-vector-fortran.h
REM seed -1381938515 619040253 602627478 -1781786421 -1994336415 1343751373 -406883915 1154205372 -922944845 -1083123626 1771140361 -1164339482 -296196188 1284085538 1970402589 -633238370 -652562308 -2090926710 -655001533 -972336716 -632449890 -753609475 1307955118 -218086021 985179891 1273752926 -1621817064 -1959097908 1078396050 -366505086 -236066840 -851458297 -2010231838
REM
CELL 1.54180   50.00000   50.00000   50.00000   90.00000   90.00000   90.00000
LATT -1
SFAC C  
C      1  0.5081590000000  0.4506300000000  0.5584790000000 1.0
C      1  0.4490360000000  0.4932380000000  0.4385750000000 1.0
C      1  0.4917960000000  0.5533590000000  0.5539040000000 1.0
C      1  0.5505730000000  0.5149690000000  0.4540480000000 1.0
C      1  0.4907750000000  0.5326960000000  0.4441200000000 1.0
C      1  0.5387060000000  0.5100560000000  0.5545460000000 1.0
C      1  0.5081660000000  0.4681400000000  0.4463860000000 1.0
C      1  0.4675130000000  0.4940830000000  0.5533580000000 1.0
C      1  0.4787360000000  0.4442980000000  0.5440810000000 1.0
C      1  0.4446130000000  0.5196330000000  0.4572980000000 1.0
C      1  0.5198970000000  0.5587290000000  0.5403580000000 1.0
C      1  0.5653910000000  0.4873800000000  0.4615400000000 1.0
C      1  0.5200140000000  0.5211750000000  0.4539090000000 1.0
C      1  0.5218610000000  0.4805490000000  0.5532540000000 1.0
C      1  0.4767240000000  0.4762540000000  0.4451070000000 1.0
C      1  0.4808790000000  0.5237010000000  0.5525610000000 1.0
C      1  0.5520090000000  0.5647480000000  0.5043990000000 1.0
C      1  0.5651930000000  0.4474090000000  0.4916580000000 1.0
C      1  0.4441900000000  0.4354800000000  0.5118210000000 1.0
C      1  0.4367260000000  0.5526290000000  0.4906050000000 1.0
C      1  0.5151760000000  0.4414890000000  0.4577480000000 1.0
C      1  0.4437430000000  0.4787260000000  0.5424010000000 1.0
C      1  0.4781530000000  0.5547280000000  0.4581000000000 1.0
C      1  0.5636170000000  0.5273840000000  0.5391720000000 1.0
C      1  0.5663540000000  0.4968240000000  0.5272560000000 1.0
C      1  0.4898300000000  0.4314640000000  0.4696090000000 1.0
C      1  0.4372460000000  0.5057090000000  0.5294950000000 1.0
C      1  0.5018580000000  0.5731610000000  0.4691210000000 1.0
C      1  0.5120390000000  0.5197210000000  0.5443170000000 1.0
C      1  0.5209860000000  0.4888380000000  0.4598890000000 1.0
C      1  0.4908450000000  0.4823620000000  0.5421210000000 1.0
C      1  0.4825050000000  0.5071240000000  0.4550900000000 1.0
C      1  0.5104250000000  0.5417430000000  0.4777410000000 1.0
C      1  0.5381660000000  0.4787130000000  0.5240070000000 1.0
C      1  0.4710650000000  0.4582850000000  0.4706520000000 1.0
C      1  0.4648910000000  0.5242080000000  0.5250050000000 1.0
C      1  0.5140650000000  0.5212850000000  0.5164090000000 1.0
C      1  0.5256730000000  0.4826440000000  0.4863380000000 1.0
C      1  0.4887810000000  0.4736940000000  0.5155350000000 1.0
C      1  0.4787160000000  0.5086800000000  0.4827580000000 1.0
C      1  0.4195840000000  0.4249250000000  0.5086640000000 1.0
C      1  0.4251510000000  0.5764790000000  0.4952820000000 1.0
C      1  0.5762060000000  0.5445970000000  0.5126320000000 1.0
C      1  0.5434740000000  0.4384410000000  0.4664440000000 1.0
C      1  0.5685090000000  0.4597520000000  0.4620860000000 1.0
C      1  0.4512820000000  0.4499910000000  0.5367590000000 1.0
C      1  0.4500840000000  0.5468340000000  0.4652120000000 1.0
C      1  0.5464970000000  0.5568340000000  0.5347210000000 1.0
C      1  0.5354040000000  0.5060710000000  0.5039020000000 1.0
C      1  0.5151660000000  0.4611900000000  0.5078580000000 1.0
C      1  0.4706230000000  0.4815120000000  0.4934910000000 1.0
C      1  0.4882310000000  0.5328500000000  0.5018330000000 1.0
C      1  0.5676980000000  0.4651320000000  0.5139850000000 1.0
C      1  0.4644520000000  0.4337250000000  0.4922090000000 1.0
C      1  0.4370020000000  0.5314230000000  0.5088700000000 1.0
C      1  0.5296770000000  0.5669800000000  0.4877280000000 1.0
C      1  0.5073680000000  0.4386630000000  0.5285330000000 1.0
C      1  0.4459720000000  0.4892090000000  0.4713320000000 1.0
C      1  0.4933520000000  0.5600910000000  0.5215330000000 1.0
C      1  0.5591760000000  0.5093590000000  0.4841580000000 1.0
END
