TITL C-27145-253-11 -0.00025841215916317 125000 -358.381494419031 0 0 60 (C1) n - 1
REM
REM in /home/nfs/bkarasulu/CARBON/AIRSS/Generating-Clusters/AIREBO/Higher-Symm/Only-C60
REM
REM
REM
REM
REM
REM ./C.cell (28575a23ae977d3b5fae324c64b13b57)
REM
REM compiler GCC version 9.2.1 20190827 (Red Hat 9.2.1-1)
REM options -cpp -mtune=generic -march=x86-64 -g -O0 -fpre-include=/usr/include/finclude/math-vector-fortran.h
REM seed 1216555510 -551203293 1820178211 2120632185 869665194 1578253769 2072971865 1111888648 -1667371439 1247436769 -946803173 -957858163 -191971629 -1092010155 -808812809 -1725941658 -548960946 -433713674 1135123081 -829894339 89486198 1633186528 -283718289 433499736 154741538 515186853 529925959 478442052 -122147346 1697016431 452707103 -1875769510 1344251430
REM
CELL 1.54180   50.00000   50.00000   50.00000   90.00000   90.00000   90.00000
LATT -1
SFAC C  
C      1  0.5006960000000  0.5660740000000  0.4738900000000 1.0
C      1  0.5659910000000  0.4756240000000  0.5020840000000 1.0
C      1  0.4757060000000  0.5016190000000  0.5656760000000 1.0
C      1  0.5001440000000  0.4342920000000  0.5212030000000 1.0
C      1  0.5001020000000  0.5648120000000  0.5195630000000 1.0
C      1  0.5055200000000  0.4291460000000  0.4672030000000 1.0
C      1  0.5666670000000  0.5239350000000  0.4989620000000 1.0
C      1  0.4287600000000  0.4669510000000  0.5055230000000 1.0
C      1  0.4340320000000  0.5209360000000  0.4996540000000 1.0
C      1  0.4665130000000  0.5049390000000  0.4289380000000 1.0
C      1  0.5205120000000  0.5008700000000  0.4347640000000 1.0
C      1  0.5225570000000  0.4985530000000  0.5661710000000 1.0
C      1  0.4972620000000  0.4762380000000  0.5708500000000 1.0
C      1  0.5704490000000  0.4979980000000  0.4771990000000 1.0
C      1  0.4762090000000  0.5699020000000  0.4957880000000 1.0
C      1  0.4949450000000  0.5229360000000  0.4334070000000 1.0
C      1  0.5021600000000  0.5253130000000  0.5708700000000 1.0
C      1  0.5035530000000  0.4717490000000  0.4302140000000 1.0
C      1  0.5717010000000  0.5012880000000  0.5241670000000 1.0
C      1  0.4289540000000  0.5033500000000  0.4710740000000 1.0
C      1  0.4340510000000  0.4959340000000  0.5219100000000 1.0
C      1  0.4711570000000  0.4291440000000  0.5041220000000 1.0
C      1  0.5221990000000  0.4339210000000  0.4960150000000 1.0
C      1  0.5291260000000  0.5714530000000  0.5029250000000 1.0
C      1  0.5621430000000  0.5231360000000  0.4594170000000 1.0
C      1  0.5223250000000  0.4588730000000  0.5625990000000 1.0
C      1  0.4603150000000  0.5617470000000  0.5211420000000 1.0
C      1  0.5632070000000  0.4759840000000  0.5417440000000 1.0
C      1  0.4367150000000  0.5225260000000  0.5393550000000 1.0
C      1  0.4393900000000  0.4792210000000  0.4613740000000 1.0
C      1  0.5213750000000  0.5405170000000  0.4382480000000 1.0
C      1  0.4795650000000  0.4613830000000  0.4402040000000 1.0
C      1  0.4771040000000  0.5412480000000  0.5618660000000 1.0
C      1  0.4614110000000  0.4397260000000  0.4800640000000 1.0
C      1  0.5410160000000  0.5638630000000  0.4786600000000 1.0
C      1  0.5399000000000  0.4360470000000  0.5225300000000 1.0
C      1  0.5625870000000  0.4520180000000  0.5236740000000 1.0
C      1  0.5220430000000  0.5623050000000  0.4559700000000 1.0
C      1  0.4531210000000  0.5235890000000  0.5617550000000 1.0
C      1  0.5635040000000  0.5473250000000  0.4771200000000 1.0
C      1  0.4377190000000  0.5458870000000  0.5205940000000 1.0
C      1  0.4405980000000  0.4591090000000  0.4812290000000 1.0
C      1  0.5212610000000  0.4368820000000  0.5460290000000 1.0
C      1  0.4810390000000  0.4407800000000  0.4597280000000 1.0
C      1  0.4784450000000  0.5622270000000  0.5443720000000 1.0
C      1  0.4589900000000  0.4806930000000  0.4408300000000 1.0
C      1  0.5462880000000  0.4766300000000  0.5632550000000 1.0
C      1  0.5451110000000  0.5222220000000  0.4378240000000 1.0
C      1  0.5452530000000  0.4757940000000  0.4780720000000 1.0
C      1  0.4509730000000  0.5268400000000  0.4724740000000 1.0
C      1  0.5340060000000  0.4465050000000  0.4676880000000 1.0
C      1  0.5492590000000  0.5255140000000  0.5258160000000 1.0
C      1  0.4764010000000  0.5452090000000  0.4739700000000 1.0
C      1  0.4727800000000  0.4505670000000  0.5280570000000 1.0
C      1  0.4458880000000  0.4676160000000  0.5339940000000 1.0
C      1  0.5266360000000  0.4742230000000  0.4525200000000 1.0
C      1  0.4654590000000  0.5343130000000  0.4443940000000 1.0
C      1  0.4751370000000  0.4768100000000  0.5457970000000 1.0
C      1  0.5248220000000  0.5242810000000  0.5465660000000 1.0
C      1  0.5292480000000  0.5514150000000  0.5288980000000 1.0
END
