TITL C-27145-253-9 -0.000326323671059765 125000 -337.179015765787 0 0 60 (C1) n - 1
REM
REM in /home/nfs/bkarasulu/CARBON/AIRSS/Generating-Clusters/AIREBO/Higher-Symm/Only-C60
REM
REM
REM
REM
REM
REM ./C.cell (28575a23ae977d3b5fae324c64b13b57)
REM
REM compiler GCC version 9.2.1 20190827 (Red Hat 9.2.1-1)
REM options -cpp -mtune=generic -march=x86-64 -g -O0 -fpre-include=/usr/include/finclude/math-vector-fortran.h
REM seed 30407704 -275216613 -1153357087 -123884515 -1282795344 859174171 1048806408 779819883 -903101161 -220791816 -766344279 -2073104746 174396218 -624440137 471230607 913590334 -1430981732 747615356 -116032769 -1363148375 1447318467 -1191050873 1159354935 504698321 -768425469 -1257768110 1957536531 -1157562479 -26898610 -1732434875 504737966 -1285332268 -953123924
REM
CELL 1.54180   50.00000   50.00000   50.00000   90.00000   90.00000   90.00000
LATT -1
SFAC C  
C      1  0.5072710000000  0.4523050000000  0.4484590000000 1.0
C      1  0.4961380000000  0.4522340000000  0.5564020000000 1.0
C      1  0.5050590000000  0.4918480000000  0.5293310000000 1.0
C      1  0.5060000000000  0.4959490000000  0.4752150000000 1.0
C      1  0.4915300000000  0.4980560000000  0.5599320000000 1.0
C      1  0.5107640000000  0.5013820000000  0.4419850000000 1.0
C      1  0.5095330000000  0.5650790000000  0.4869750000000 1.0
C      1  0.4848470000000  0.5562800000000  0.5163590000000 1.0
C      1  0.4703630000000  0.4499620000000  0.5048390000000 1.0
C      1  0.5290670000000  0.4484430000000  0.4956620000000 1.0
C      1  0.4501950000000  0.4924650000000  0.4465930000000 1.0
C      1  0.5519380000000  0.4916550000000  0.5533590000000 1.0
C      1  0.4868230000000  0.5105550000000  0.4249980000000 1.0
C      1  0.5148700000000  0.5105420000000  0.5752410000000 1.0
C      1  0.4958090000000  0.4595340000000  0.5235530000000 1.0
C      1  0.5027010000000  0.4540210000000  0.4817200000000 1.0
C      1  0.5671210000000  0.4879070000000  0.5239870000000 1.0
C      1  0.4496060000000  0.4878840000000  0.4781650000000 1.0
C      1  0.4665160000000  0.4840050000000  0.5246410000000 1.0
C      1  0.5361690000000  0.4864830000000  0.4858150000000 1.0
C      1  0.4804680000000  0.4785770000000  0.4895060000000 1.0
C      1  0.5356440000000  0.4912880000000  0.5169560000000 1.0
C      1  0.4730150000000  0.5133940000000  0.5396460000000 1.0
C      1  0.5230760000000  0.5261240000000  0.4548370000000 1.0
C      1  0.5714450000000  0.5271780000000  0.4636150000000 1.0
C      1  0.4222260000000  0.5369390000000  0.5333870000000 1.0
C      1  0.5509660000000  0.4615420000000  0.5382610000000 1.0
C      1  0.4523780000000  0.4616580000000  0.4593300000000 1.0
C      1  0.5792390000000  0.4634510000000  0.4827000000000 1.0
C      1  0.4219630000000  0.4725340000000  0.5126940000000 1.0
C      1  0.5108780000000  0.4324540000000  0.5382050000000 1.0
C      1  0.4889650000000  0.4298360000000  0.4607770000000 1.0
C      1  0.4251720000000  0.5448020000000  0.4840720000000 1.0
C      1  0.5700940000000  0.5354160000000  0.5105420000000 1.0
C      1  0.4451800000000  0.4612850000000  0.5223250000000 1.0
C      1  0.5515130000000  0.4590020000000  0.4799480000000 1.0
C      1  0.4687640000000  0.5442720000000  0.5364240000000 1.0
C      1  0.5255970000000  0.5585320000000  0.4650510000000 1.0
C      1  0.5185400000000  0.4718490000000  0.4345750000000 1.0
C      1  0.4838810000000  0.4702810000000  0.5718930000000 1.0
C      1  0.4837570000000  0.5182800000000  0.4880550000000 1.0
C      1  0.5090180000000  0.5190180000000  0.5091820000000 1.0
C      1  0.4273140000000  0.4939160000000  0.4964900000000 1.0
C      1  0.5834880000000  0.4861510000000  0.4977620000000 1.0
C      1  0.5499470000000  0.5496840000000  0.5220640000000 1.0
C      1  0.4476640000000  0.5552760000000  0.4728590000000 1.0
C      1  0.4782280000000  0.5579770000000  0.4845690000000 1.0
C      1  0.5173550000000  0.5580550000000  0.5182670000000 1.0
C      1  0.4291020000000  0.5235400000000  0.5063180000000 1.0
C      1  0.5603100000000  0.5099840000000  0.4906130000000 1.0
C      1  0.5275700000000  0.5304470000000  0.5352890000000 1.0
C      1  0.4701710000000  0.5329990000000  0.4630170000000 1.0
C      1  0.4654130000000  0.4418920000000  0.4739590000000 1.0
C      1  0.5333620000000  0.4452660000000  0.5232720000000 1.0
C      1  0.5357730000000  0.5135240000000  0.5580690000000 1.0
C      1  0.4646290000000  0.5149710000000  0.4399470000000 1.0
C      1  0.4609990000000  0.5120160000000  0.5079350000000 1.0
C      1  0.5303420000000  0.5256060000000  0.4868370000000 1.0
C      1  0.5514470000000  0.5425960000000  0.4532710000000 1.0
C      1  0.4427840000000  0.5518000000000  0.5442470000000 1.0
END
