TITL C-27142-7278-51 -0.00100042764524639 125000 -338.409961588665 0 0 60 (C1) n - 1
REM
REM in /home/nfs/bkarasulu/CARBON/AIRSS/Generating-Clusters/AIREBO/Higher-Symm/Only-C60
REM
REM
REM
REM
REM
REM ./C.cell (28575a23ae977d3b5fae324c64b13b57)
REM
REM compiler GCC version 9.2.1 20190827 (Red Hat 9.2.1-1)
REM options -cpp -mtune=generic -march=x86-64 -g -O0 -fpre-include=/usr/include/finclude/math-vector-fortran.h
REM seed -731264878 -1855461219 1561601664 -2018689111 -1722651428 1604193201 -870207574 1989825716 -503116657 1815184897 -1801969222 484275605 1783917476 1105023073 595797385 266721670 -118519858 1897570429 1713319335 1508942521 -1234548389 1125533088 2052294717 1463128973 -1413298042 1068851843 -622526971 -960467733 1472429645 -43184792 -443403670 -214554490 811108587
REM
CELL 1.54180   50.00000   50.00000   50.00000   90.00000   90.00000   90.00000
LATT -1
SFAC C  
C      1  0.4743050000000  0.4869370000000  0.4771550000000 1.0
C      1  0.5222490000000  0.4842250000000  0.5162580000000 1.0
C      1  0.5219520000000  0.5141940000000  0.4768410000000 1.0
C      1  0.4725640000000  0.5153660000000  0.5149210000000 1.0
C      1  0.4790220000000  0.4348840000000  0.4840890000000 1.0
C      1  0.5273730000000  0.4274040000000  0.5146550000000 1.0
C      1  0.5170760000000  0.5679820000000  0.4897040000000 1.0
C      1  0.4818540000000  0.5722460000000  0.5104390000000 1.0
C      1  0.5023670000000  0.4792940000000  0.4652300000000 1.0
C      1  0.4949460000000  0.4796160000000  0.5340190000000 1.0
C      1  0.4936880000000  0.5179930000000  0.4614180000000 1.0
C      1  0.5102020000000  0.5210770000000  0.5442820000000 1.0
C      1  0.4804730000000  0.4840660000000  0.5708350000000 1.0
C      1  0.5207520000000  0.4811880000000  0.4299750000000 1.0
C      1  0.5173800000000  0.5139410000000  0.5758520000000 1.0
C      1  0.4787690000000  0.5166310000000  0.4321680000000 1.0
C      1  0.5484960000000  0.5545370000000  0.5206280000000 1.0
C      1  0.4501900000000  0.5583040000000  0.4793250000000 1.0
C      1  0.4494070000000  0.4464650000000  0.5183690000000 1.0
C      1  0.5536310000000  0.4448920000000  0.4798120000000 1.0
C      1  0.4466010000000  0.5283830000000  0.4773860000000 1.0
C      1  0.5530610000000  0.5246080000000  0.5234720000000 1.0
C      1  0.5521290000000  0.4748830000000  0.4791830000000 1.0
C      1  0.4463400000000  0.4764130000000  0.5226400000000 1.0
C      1  0.4877050000000  0.5452330000000  0.4329370000000 1.0
C      1  0.5112110000000  0.5461290000000  0.5661080000000 1.0
C      1  0.5102260000000  0.4547800000000  0.4454090000000 1.0
C      1  0.4909370000000  0.4571850000000  0.5589380000000 1.0
C      1  0.4529640000000  0.4452510000000  0.4709450000000 1.0
C      1  0.5526940000000  0.4416780000000  0.5276150000000 1.0
C      1  0.5394120000000  0.5545960000000  0.4745250000000 1.0
C      1  0.4589560000000  0.5586540000000  0.5259120000000 1.0
C      1  0.5705100000000  0.4544960000000  0.5076910000000 1.0
C      1  0.4326310000000  0.4571090000000  0.4908570000000 1.0
C      1  0.4355950000000  0.5495100000000  0.5087720000000 1.0
C      1  0.5623080000000  0.5453320000000  0.4909490000000 1.0
C      1  0.5282020000000  0.4590770000000  0.5383540000000 1.0
C      1  0.4662130000000  0.4656390000000  0.4557520000000 1.0
C      1  0.4731200000000  0.5343730000000  0.5389200000000 1.0
C      1  0.5273760000000  0.5365230000000  0.4517770000000 1.0
C      1  0.4265030000000  0.5177350000000  0.4978970000000 1.0
C      1  0.5723310000000  0.5146580000000  0.5021320000000 1.0
C      1  0.5735580000000  0.4868750000000  0.4967680000000 1.0
C      1  0.4263670000000  0.4887930000000  0.5026720000000 1.0
C      1  0.5184270000000  0.4848610000000  0.5582520000000 1.0
C      1  0.4822400000000  0.4871670000000  0.4387160000000 1.0
C      1  0.4819980000000  0.5084470000000  0.5584760000000 1.0
C      1  0.5168640000000  0.5068610000000  0.4390080000000 1.0
C      1  0.5007370000000  0.4402500000000  0.5311020000000 1.0
C      1  0.5051090000000  0.4369410000000  0.4706460000000 1.0
C      1  0.4972890000000  0.5580530000000  0.5372990000000 1.0
C      1  0.5018380000000  0.5571530000000  0.4612990000000 1.0
C      1  0.4759790000000  0.4366970000000  0.5125220000000 1.0
C      1  0.5285760000000  0.4313520000000  0.4862590000000 1.0
C      1  0.5215350000000  0.5644040000000  0.5169060000000 1.0
C      1  0.4776980000000  0.5676190000000  0.4828360000000 1.0
C      1  0.4701110000000  0.4895380000000  0.5246710000000 1.0
C      1  0.5253790000000  0.4853730000000  0.4862200000000 1.0
C      1  0.5303930000000  0.5104110000000  0.5271980000000 1.0
C      1  0.4721780000000  0.5157230000000  0.4850080000000 1.0
END
