TITL C-27144-3922-3 -0.000529692096359815 125000 -331.681014533288 0 0 60 (C1) n - 1
REM
REM in /home/nfs/bkarasulu/CARBON/AIRSS/Generating-Clusters/AIREBO/Higher-Symm/Only-C60
REM
REM
REM
REM
REM
REM ./C.cell (28575a23ae977d3b5fae324c64b13b57)
REM
REM compiler GCC version 9.2.1 20190827 (Red Hat 9.2.1-1)
REM options -cpp -mtune=generic -march=x86-64 -g -O0 -fpre-include=/usr/include/finclude/math-vector-fortran.h
REM seed -1907885029 523547983 -1450392851 -1696383026 -1253892070 77465618 -844149259 66482452 -1857651415 -1273365519 805682541 797815860 225275809 515754992 1301772321 865950626 -1476880712 -901210131 -985613890 13538581 -1104937676 -9232739 -238162778 515741930 1603423505 1564324703 465467870 -1142557774 -892218829 -426996002 783459336 -233700479 1695329721
REM
CELL 1.54180   50.00000   50.00000   50.00000   90.00000   90.00000   90.00000
LATT -1
SFAC C  
C      1  0.5193630000000  0.5199140000000  0.5002280000000 1.0
C      1  0.4908090000000  0.5195630000000  0.4833850000000 1.0
C      1  0.4904350000000  0.5196570000000  0.5163750000000 1.0
C      1  0.4779890000000  0.4786630000000  0.4888200000000 1.0
C      1  0.5156630000000  0.4762120000000  0.5168870000000 1.0
C      1  0.5103410000000  0.4751320000000  0.4833000000000 1.0
C      1  0.4403040000000  0.4623870000000  0.4780610000000 1.0
C      1  0.5068560000000  0.4601180000000  0.5675780000000 1.0
C      1  0.5575830000000  0.4641720000000  0.4597590000000 1.0
C      1  0.4696790000000  0.5415830000000  0.5244520000000 1.0
C      1  0.5399380000000  0.5387930000000  0.5164670000000 1.0
C      1  0.4931410000000  0.5388210000000  0.4559790000000 1.0
C      1  0.5284050000000  0.5024150000000  0.4739770000000 1.0
C      1  0.4606310000000  0.5061360000000  0.4914940000000 1.0
C      1  0.5005590000000  0.4968840000000  0.5364740000000 1.0
C      1  0.5647870000000  0.5034800000000  0.4904480000000 1.0
C      1  0.4586370000000  0.5024550000000  0.4518500000000 1.0
C      1  0.4737220000000  0.5099630000000  0.5628720000000 1.0
C      1  0.4316600000000  0.5005390000000  0.5183990000000 1.0
C      1  0.5613190000000  0.5226640000000  0.5411420000000 1.0
C      1  0.5041670000000  0.5314970000000  0.4295390000000 1.0
C      1  0.5463850000000  0.4332860000000  0.4924890000000 1.0
C      1  0.4776200000000  0.4344510000000  0.4747220000000 1.0
C      1  0.4764070000000  0.4313670000000  0.5403320000000 1.0
C      1  0.4504170000000  0.5430690000000  0.4811390000000 1.0
C      1  0.5086760000000  0.5414280000000  0.5519320000000 1.0
C      1  0.5404520000000  0.5400260000000  0.4681140000000 1.0
C      1  0.5030780000000  0.4732510000000  0.4501310000000 1.0
C      1  0.4463830000000  0.4790230000000  0.5245710000000 1.0
C      1  0.5461400000000  0.4710770000000  0.5260810000000 1.0
C      1  0.4793620000000  0.4560050000000  0.5561520000000 1.0
C      1  0.5662340000000  0.4538820000000  0.4866100000000 1.0
C      1  0.4607320000000  0.4525040000000  0.4592160000000 1.0
C      1  0.4630490000000  0.5577340000000  0.5023280000000 1.0
C      1  0.5211150000000  0.5575720000000  0.5318030000000 1.0
C      1  0.5163430000000  0.5544970000000  0.4707730000000 1.0
C      1  0.4748100000000  0.4757180000000  0.4465190000000 1.0
C      1  0.4691290000000  0.4822510000000  0.5437050000000 1.0
C      1  0.5651800000000  0.4766070000000  0.5059590000000 1.0
C      1  0.5284090000000  0.4541770000000  0.5473330000000 1.0
C      1  0.5290550000000  0.4563040000000  0.4534490000000 1.0
C      1  0.4486400000000  0.4581300000000  0.5060910000000 1.0
C      1  0.5218550000000  0.4428660000000  0.4807080000000 1.0
C      1  0.4795480000000  0.4484120000000  0.5042950000000 1.0
C      1  0.5031820000000  0.4461540000000  0.5255830000000 1.0
C      1  0.4381370000000  0.4899390000000  0.4718040000000 1.0
C      1  0.4986540000000  0.4890620000000  0.5695190000000 1.0
C      1  0.5588720000000  0.4921890000000  0.4628660000000 1.0
C      1  0.4305920000000  0.5218970000000  0.4942380000000 1.0
C      1  0.5229940000000  0.5161910000000  0.5532310000000 1.0
C      1  0.5358920000000  0.5194690000000  0.4454980000000 1.0
C      1  0.4804050000000  0.5356520000000  0.5516050000000 1.0
C      1  0.5562770000000  0.5313090000000  0.4905940000000 1.0
C      1  0.4626080000000  0.5311120000000  0.4578790000000 1.0
C      1  0.5526690000000  0.5123620000000  0.4252300000000 1.0
C      1  0.4046040000000  0.5266310000000  0.4853500000000 1.0
C      1  0.5407880000000  0.5088330000000  0.5725380000000 1.0
C      1  0.4809920000000  0.5795400000000  0.4994670000000 1.0
C      1  0.5086900000000  0.5780550000000  0.5174180000000 1.0
C      1  0.5096380000000  0.5769160000000  0.4852430000000 1.0
END
