TITL C-27135-6010-195 0.00415862297083752 125000 -317.662936690016 0 0 60 (C1) n - 1
REM
REM in /home/nfs/bkarasulu/CARBON/AIRSS/Generating-Clusters/AIREBO/Higher-Symm/Only-C60
REM
REM
REM
REM
REM
REM ./C.cell (28575a23ae977d3b5fae324c64b13b57)
REM
REM compiler GCC version 9.2.1 20190827 (Red Hat 9.2.1-1)
REM options -cpp -mtune=generic -march=x86-64 -g -O0 -fpre-include=/usr/include/finclude/math-vector-fortran.h
REM seed -1437723692 -129621787 667318861 951623712 2006567767 1620109215 2083234183 525803947 2040516614 1364973058 263047545 -1233699165 402287096 77537844 -2015594043 1000551610 396584301 2119371347 1286346067 -175017194 -1366747621 672100307 1726090560 -101743902 1663997394 752049343 1114211519 -928665212 150435954 1746799980 1066759027 -855529878 1250131392
REM
CELL 1.54180   50.00000   50.00000   50.00000   90.00000   90.00000   90.00000
LATT -1
SFAC C  
C      1  0.4280620000000  0.5145250000000  0.4824800000000 1.0
C      1  0.4318210000000  0.5116880000000  0.5449050000000 1.0
C      1  0.4345840000000  0.4831200000000  0.4937680000000 1.0
C      1  0.5646790000000  0.5209790000000  0.4927390000000 1.0
C      1  0.5662830000000  0.4980050000000  0.5183070000000 1.0
C      1  0.5529080000000  0.4893850000000  0.4882520000000 1.0
C      1  0.5395780000000  0.5641850000000  0.4916110000000 1.0
C      1  0.5455300000000  0.4752940000000  0.5605290000000 1.0
C      1  0.5419600000000  0.4592410000000  0.4503920000000 1.0
C      1  0.4537830000000  0.5579750000000  0.4738800000000 1.0
C      1  0.4632670000000  0.4755810000000  0.5544540000000 1.0
C      1  0.4607190000000  0.4612060000000  0.4568460000000 1.0
C      1  0.4983400000000  0.4878550000000  0.4749370000000 1.0
C      1  0.4748150000000  0.5270930000000  0.5124430000000 1.0
C      1  0.4837520000000  0.4966270000000  0.5043790000000 1.0
C      1  0.5225270000000  0.4985170000000  0.4954360000000 1.0
C      1  0.5223520000000  0.5280800000000  0.5004500000000 1.0
C      1  0.5107590000000  0.4855430000000  0.5227020000000 1.0
C      1  0.4792290000000  0.5324810000000  0.4575260000000 1.0
C      1  0.4776040000000  0.5229810000000  0.5652230000000 1.0
C      1  0.4852130000000  0.4340000000000  0.4826940000000 1.0
C      1  0.5237830000000  0.5456920000000  0.4502660000000 1.0
C      1  0.5276430000000  0.5189990000000  0.5646900000000 1.0
C      1  0.5253000000000  0.4256300000000  0.4785640000000 1.0
C      1  0.4803700000000  0.5466270000000  0.4877520000000 1.0
C      1  0.4885410000000  0.4917700000000  0.5634900000000 1.0
C      1  0.4926720000000  0.4589780000000  0.4619580000000 1.0
C      1  0.5113720000000  0.5490810000000  0.4801100000000 1.0
C      1  0.5166150000000  0.4908500000000  0.5520230000000 1.0
C      1  0.5191250000000  0.4429750000000  0.4582780000000 1.0
C      1  0.5183640000000  0.5065800000000  0.4341270000000 1.0
C      1  0.5213830000000  0.5376360000000  0.5298950000000 1.0
C      1  0.5072120000000  0.4526660000000  0.5207330000000 1.0
C      1  0.4942390000000  0.5054050000000  0.4504800000000 1.0
C      1  0.4942460000000  0.5363670000000  0.5387660000000 1.0
C      1  0.4762380000000  0.4664840000000  0.5183170000000 1.0
C      1  0.4433870000000  0.5321740000000  0.5252340000000 1.0
C      1  0.4452100000000  0.4782690000000  0.5257340000000 1.0
C      1  0.4468090000000  0.4819760000000  0.4438080000000 1.0
C      1  0.5504690000000  0.5505260000000  0.5178950000000 1.0
C      1  0.5386730000000  0.4586180000000  0.5322680000000 1.0
C      1  0.5430210000000  0.4890100000000  0.4459840000000 1.0
C      1  0.5344570000000  0.4404150000000  0.5053710000000 1.0
C      1  0.5473200000000  0.5226490000000  0.4418340000000 1.0
C      1  0.5492960000000  0.5395630000000  0.5492590000000 1.0
C      1  0.4651870000000  0.4442700000000  0.4990770000000 1.0
C      1  0.4614740000000  0.5080480000000  0.4417820000000 1.0
C      1  0.4633730000000  0.5466260000000  0.5452160000000 1.0
C      1  0.5815460000000  0.5405880000000  0.5107010000000 1.0
C      1  0.5691240000000  0.4710720000000  0.5355910000000 1.0
C      1  0.5716930000000  0.4975780000000  0.4611050000000 1.0
C      1  0.4219900000000  0.5326120000000  0.5034860000000 1.0
C      1  0.4149130000000  0.4905780000000  0.5337900000000 1.0
C      1  0.4236480000000  0.4846170000000  0.4616020000000 1.0
C      1  0.5532750000000  0.5057890000000  0.5466730000000 1.0
C      1  0.5482200000000  0.4582920000000  0.4811380000000 1.0
C      1  0.5489260000000  0.5378340000000  0.4722650000000 1.0
C      1  0.4509520000000  0.5032440000000  0.5628390000000 1.0
C      1  0.4470030000000  0.4564270000000  0.4815410000000 1.0
C      1  0.4451680000000  0.5291240000000  0.4624060000000 1.0
END
