TITL C-27139-4854-13 0.000318570012409427 125000 -324.729408405709 0 0 60 (C1) n - 1
REM
REM in /home/nfs/bkarasulu/CARBON/AIRSS/Generating-Clusters/AIREBO/Higher-Symm/Only-C60
REM
REM
REM
REM
REM
REM ./C.cell (28575a23ae977d3b5fae324c64b13b57)
REM
REM compiler GCC version 9.2.1 20190827 (Red Hat 9.2.1-1)
REM options -cpp -mtune=generic -march=x86-64 -g -O0 -fpre-include=/usr/include/finclude/math-vector-fortran.h
REM seed -922151305 -300071265 -527710658 1144186156 -1657095 44810857 1555011480 -218219333 -2052459890 1103121564 -1108667328 -518722075 1994129131 250240884 482387194 773759686 1570961297 -401207455 -69627352 -1037422104 877904517 11309042 -761599488 -1320974885 -851301576 -1273212729 2092294219 1378130861 671820982 -1321816928 -707770981 308241678 170670958
REM
CELL 1.54180   50.00000   50.00000   50.00000   90.00000   90.00000   90.00000
LATT -1
SFAC C  
C      1  0.4703410000000  0.5518130000000  0.5422390000000 1.0
C      1  0.4400150000000  0.4767790000000  0.5342680000000 1.0
C      1  0.4315020000000  0.5597450000000  0.4772850000000 1.0
C      1  0.4501410000000  0.4673750000000  0.4825150000000 1.0
C      1  0.5403800000000  0.5734700000000  0.5112470000000 1.0
C      1  0.4658440000000  0.5221050000000  0.4382900000000 1.0
C      1  0.4858380000000  0.4897340000000  0.5157960000000 1.0
C      1  0.5807370000000  0.4976670000000  0.4809770000000 1.0
C      1  0.4382980000000  0.5370670000000  0.5018020000000 1.0
C      1  0.4865090000000  0.5209930000000  0.5225810000000 1.0
C      1  0.5071710000000  0.4558110000000  0.4593120000000 1.0
C      1  0.4938010000000  0.4888370000000  0.4657900000000 1.0
C      1  0.5340820000000  0.4796360000000  0.4998630000000 1.0
C      1  0.4979310000000  0.4665720000000  0.5344430000000 1.0
C      1  0.5499760000000  0.5369320000000  0.4731270000000 1.0
C      1  0.4810030000000  0.4450580000000  0.5531830000000 1.0
C      1  0.5569810000000  0.5307370000000  0.5006860000000 1.0
C      1  0.4696980000000  0.4772700000000  0.5500900000000 1.0
C      1  0.4162610000000  0.5823720000000  0.4756900000000 1.0
C      1  0.5565640000000  0.4793580000000  0.5494990000000 1.0
C      1  0.4823810000000  0.5052270000000  0.5524350000000 1.0
C      1  0.5166220000000  0.4273570000000  0.5061150000000 1.0
C      1  0.5513460000000  0.4697480000000  0.4425730000000 1.0
C      1  0.5940000000000  0.4955240000000  0.5102660000000 1.0
C      1  0.4291960000000  0.5025580000000  0.4699640000000 1.0
C      1  0.4628580000000  0.5029210000000  0.4651390000000 1.0
C      1  0.5130670000000  0.5652740000000  0.5062420000000 1.0
C      1  0.4599000000000  0.4717980000000  0.4517380000000 1.0
C      1  0.5350830000000  0.5563300000000  0.5641040000000 1.0
C      1  0.4899990000000  0.4458590000000  0.5012010000000 1.0
C      1  0.4776250000000  0.4505880000000  0.4716000000000 1.0
C      1  0.5313320000000  0.4801050000000  0.4246100000000 1.0
C      1  0.5583540000000  0.4410370000000  0.5128640000000 1.0
C      1  0.5471250000000  0.4529670000000  0.4890920000000 1.0
C      1  0.5068660000000  0.4793940000000  0.4367930000000 1.0
C      1  0.4778000000000  0.5466770000000  0.4831010000000 1.0
C      1  0.4993300000000  0.5498590000000  0.5282230000000 1.0
C      1  0.5135140000000  0.5121770000000  0.5578460000000 1.0
C      1  0.4602700000000  0.5590600000000  0.4657660000000 1.0
C      1  0.5225780000000  0.4564140000000  0.5217060000000 1.0
C      1  0.5318620000000  0.5582890000000  0.4753410000000 1.0
C      1  0.5488270000000  0.4539420000000  0.5395460000000 1.0
C      1  0.4625730000000  0.5492980000000  0.4396250000000 1.0
C      1  0.4214100000000  0.4804520000000  0.4875750000000 1.0
C      1  0.5181360000000  0.5391350000000  0.5512620000000 1.0
C      1  0.4655090000000  0.5175980000000  0.4957360000000 1.0
C      1  0.5727810000000  0.4924120000000  0.5307530000000 1.0
C      1  0.5548580000000  0.5006920000000  0.5054440000000 1.0
C      1  0.5027040000000  0.4764370000000  0.4932600000000 1.0
C      1  0.5592860000000  0.5539080000000  0.5168740000000 1.0
C      1  0.4633810000000  0.5311530000000  0.5553880000000 1.0
C      1  0.5360890000000  0.4954110000000  0.5618640000000 1.0
C      1  0.4557120000000  0.4870390000000  0.5069930000000 1.0
C      1  0.5383500000000  0.4521580000000  0.4619320000000 1.0
C      1  0.4203730000000  0.5277660000000  0.4774400000000 1.0
C      1  0.5702830000000  0.4876580000000  0.4515110000000 1.0
C      1  0.4150470000000  0.4823530000000  0.5140100000000 1.0
C      1  0.4706790000000  0.4393070000000  0.5239690000000 1.0
C      1  0.4444110000000  0.4464450000000  0.5227080000000 1.0
C      1  0.5654080000000  0.5183400000000  0.4587060000000 1.0
END
