TITL C-27130-3996-176 -0.000157829172665893 125000 -345.16814288999 0 0 60 (D6) n - 1
REM
REM in /home/nfs/bkarasulu/CARBON/AIRSS/Generating-Clusters/AIREBO/Higher-Symm/Only-C60
REM
REM
REM
REM
REM
REM ./C.cell (28575a23ae977d3b5fae324c64b13b57)
REM
REM compiler GCC version 9.2.1 20190827 (Red Hat 9.2.1-1)
REM options -cpp -mtune=generic -march=x86-64 -g -O0 -fpre-include=/usr/include/finclude/math-vector-fortran.h
REM seed 1117678794 -1229111131 931766733 1401307109 2043772578 -182992282 1097051291 128621175 1430248001 -312860330 1284525550 184519482 855152035 1409135037 1604237849 -1178834965 -229919544 -366987510 -1665296387 1667573330 1687289151 -1682848729 -1811066289 -1640503191 -1019909226 348944862 2048584171 -814490814 -129127572 -486169793 139727973 1062545916 -291530908
REM
CELL 1.54180   50.00000   50.00000   50.00000   90.00000   90.00000   90.00000
LATT -1
SFAC C  
C      1  0.5765030000000  0.5259290000000  0.4873040000000 1.0
C      1  0.5271370000000  0.5262220000000  0.4274560000000 1.0
C      1  0.4506390000000  0.5259580000000  0.4402730000000 1.0
C      1  0.4234970000000  0.5259280000000  0.5126960000000 1.0
C      1  0.4728620000000  0.5262220000000  0.5725440000000 1.0
C      1  0.5493610000000  0.5259590000000  0.5597270000000 1.0
C      1  0.5763980000000  0.4737780000000  0.5127460000000 1.0
C      1  0.5270670000000  0.4740400000000  0.5726030000000 1.0
C      1  0.4507710000000  0.4740730000000  0.5599210000000 1.0
C      1  0.4236020000000  0.4737770000000  0.4872540000000 1.0
C      1  0.4729340000000  0.4740390000000  0.4273970000000 1.0
C      1  0.5492290000000  0.4740740000000  0.4400790000000 1.0
C      1  0.5282340000000  0.5278160000000  0.4836600000000 1.0
C      1  0.4997040000000  0.5274490000000  0.4674410000000 1.0
C      1  0.4716110000000  0.5270400000000  0.4839810000000 1.0
C      1  0.4717660000000  0.5278160000000  0.5163400000000 1.0
C      1  0.5002960000000  0.5274490000000  0.5325590000000 1.0
C      1  0.5283880000000  0.5270400000000  0.5160190000000 1.0
C      1  0.5280550000000  0.4725440000000  0.5165260000000 1.0
C      1  0.4996880000000  0.4729630000000  0.5325950000000 1.0
C      1  0.4717370000000  0.4721880000000  0.5162900000000 1.0
C      1  0.4719450000000  0.4725430000000  0.4834740000000 1.0
C      1  0.5003130000000  0.4729630000000  0.4674060000000 1.0
C      1  0.5282630000000  0.4721880000000  0.4837100000000 1.0
C      1  0.4708490000000  0.5607580000000  0.4939540000000 1.0
C      1  0.4800920000000  0.5602250000000  0.5223740000000 1.0
C      1  0.5094510000000  0.5599120000000  0.5281860000000 1.0
C      1  0.5291500000000  0.5607580000000  0.5060460000000 1.0
C      1  0.5199070000000  0.5602250000000  0.4776260000000 1.0
C      1  0.4905490000000  0.5599120000000  0.4718140000000 1.0
C      1  0.4706710000000  0.4397670000000  0.5060620000000 1.0
C      1  0.4803080000000  0.4400920000000  0.4777280000000 1.0
C      1  0.5093300000000  0.4392460000000  0.4717310000000 1.0
C      1  0.5293300000000  0.4397680000000  0.4939380000000 1.0
C      1  0.5196930000000  0.4400920000000  0.5222730000000 1.0
C      1  0.4906710000000  0.4392460000000  0.5282690000000 1.0
C      1  0.4725690000000  0.5261670000000  0.4277870000000 1.0
C      1  0.4235830000000  0.5258970000000  0.4874540000000 1.0
C      1  0.4511120000000  0.5261760000000  0.5597500000000 1.0
C      1  0.5274300000000  0.5261680000000  0.5722130000000 1.0
C      1  0.5764170000000  0.5258980000000  0.5125460000000 1.0
C      1  0.5488880000000  0.5261760000000  0.4402500000000 1.0
C      1  0.4726780000000  0.4741020000000  0.5724600000000 1.0
C      1  0.4238140000000  0.4738260000000  0.5124880000000 1.0
C      1  0.4511600000000  0.4738300000000  0.4401540000000 1.0
C      1  0.5273220000000  0.4741020000000  0.4275400000000 1.0
C      1  0.5761860000000  0.4738270000000  0.4875120000000 1.0
C      1  0.5488410000000  0.4738310000000  0.5598470000000 1.0
C      1  0.4999590000000  0.4847370000000  0.5609380000000 1.0
C      1  0.5527730000000  0.4844100000000  0.5304450000000 1.0
C      1  0.5526620000000  0.4845320000000  0.4695030000000 1.0
C      1  0.5000410000000  0.4847370000000  0.4390620000000 1.0
C      1  0.4472270000000  0.4844090000000  0.4695550000000 1.0
C      1  0.4473380000000  0.4845310000000  0.5304970000000 1.0
C      1  0.5000010000000  0.5155880000000  0.4390740000000 1.0
C      1  0.5527330000000  0.5154720000000  0.4696260000000 1.0
C      1  0.5528030000000  0.5152620000000  0.5304170000000 1.0
C      1  0.4999990000000  0.5155880000000  0.5609260000000 1.0
C      1  0.4472670000000  0.5154710000000  0.5303740000000 1.0
C      1  0.4471970000000  0.5152610000000  0.4695830000000 1.0
END
