TITL C-27143-4867-76 0.00139365144920149 125000 -324.937776083119 0 0 60 (C1) n - 1
REM
REM in /home/nfs/bkarasulu/CARBON/AIRSS/Generating-Clusters/AIREBO/Higher-Symm/Only-C60
REM
REM
REM
REM
REM
REM ./C.cell (28575a23ae977d3b5fae324c64b13b57)
REM
REM compiler GCC version 9.2.1 20190827 (Red Hat 9.2.1-1)
REM options -cpp -mtune=generic -march=x86-64 -g -O0 -fpre-include=/usr/include/finclude/math-vector-fortran.h
REM seed -1934912060 -181628920 1001347141 -1454883021 -2116554104 -1659016299 -478626926 1074730967 -130753270 -1512173551 -551283195 -138532407 2032665215 -2066135608 1835762811 1703499148 1303368402 -355105877 -801628165 -1371357734 436128708 1334625292 -62582538 621388491 -55057972 1364009964 -1358294955 793616566 1577208098 1779757872 -1154975268 -1355367205 -2129465270
REM
CELL 1.54180   50.00000   50.00000   50.00000   90.00000   90.00000   90.00000
LATT -1
SFAC C  
C      1  0.5142360000000  0.4529100000000  0.5358660000000 1.0
C      1  0.5508440000000  0.4996640000000  0.5356290000000 1.0
C      1  0.5160040000000  0.5464890000000  0.5342040000000 1.0
C      1  0.4582190000000  0.5299140000000  0.5349920000000 1.0
C      1  0.4595200000000  0.4688480000000  0.5358680000000 1.0
C      1  0.5094100000000  0.5235140000000  0.5135850000000 1.0
C      1  0.4797840000000  0.5148340000000  0.5151550000000 1.0
C      1  0.4765190000000  0.4832830000000  0.5125910000000 1.0
C      1  0.5080730000000  0.4732510000000  0.5129210000000 1.0
C      1  0.5283390000000  0.4970550000000  0.5127230000000 1.0
C      1  0.5560010000000  0.4687520000000  0.4717580000000 1.0
C      1  0.5532080000000  0.5280490000000  0.4809950000000 1.0
C      1  0.4759980000000  0.5577380000000  0.4815150000000 1.0
C      1  0.4470880000000  0.5073560000000  0.4776040000000 1.0
C      1  0.4780000000000  0.4530170000000  0.4799640000000 1.0
C      1  0.4737490000000  0.4578820000000  0.5647450000000 1.0
C      1  0.5304290000000  0.4635380000000  0.5638130000000 1.0
C      1  0.5489460000000  0.5213080000000  0.5617830000000 1.0
C      1  0.4954290000000  0.5511300000000  0.5606610000000 1.0
C      1  0.4461940000000  0.5110950000000  0.5603790000000 1.0
C      1  0.4993170000000  0.4716630000000  0.4362740000000 1.0
C      1  0.5236690000000  0.4937340000000  0.4335990000000 1.0
C      1  0.5139170000000  0.5250720000000  0.4416000000000 1.0
C      1  0.4813020000000  0.5234870000000  0.4399360000000 1.0
C      1  0.4724670000000  0.4920370000000  0.4336720000000 1.0
C      1  0.5607050000000  0.4360450000000  0.5105000000000 1.0
C      1  0.5721930000000  0.5371310000000  0.5009680000000 1.0
C      1  0.4883060000000  0.5778220000000  0.4996800000000 1.0
C      1  0.4238290000000  0.5138790000000  0.4973130000000 1.0
C      1  0.4679620000000  0.4308220000000  0.4969340000000 1.0
C      1  0.4919980000000  0.5682810000000  0.5251010000000 1.0
C      1  0.4318190000000  0.5118350000000  0.5234870000000 1.0
C      1  0.4672750000000  0.4379690000000  0.5231360000000 1.0
C      1  0.5476950000000  0.4475940000000  0.5319560000000 1.0
C      1  0.5643110000000  0.5295470000000  0.5261220000000 1.0
C      1  0.5245330000000  0.4716860000000  0.4594680000000 1.0
C      1  0.5387220000000  0.5109970000000  0.4569290000000 1.0
C      1  0.4946890000000  0.5409000000000  0.4647600000000 1.0
C      1  0.4514250000000  0.5127860000000  0.4486560000000 1.0
C      1  0.4701980000000  0.4640930000000  0.4501140000000 1.0
C      1  0.5515180000000  0.4416080000000  0.4847860000000 1.0
C      1  0.5937580000000  0.5526550000000  0.4947590000000 1.0
C      1  0.4951770000000  0.6026540000000  0.4905850000000 1.0
C      1  0.3982650000000  0.5161930000000  0.4879410000000 1.0
C      1  0.4642870000000  0.4057700000000  0.4867060000000 1.0
C      1  0.5438880000000  0.5446320000000  0.5435470000000 1.0
C      1  0.4707410000000  0.5552010000000  0.5439490000000 1.0
C      1  0.4373860000000  0.4879400000000  0.5428880000000 1.0
C      1  0.4876870000000  0.4419250000000  0.5442940000000 1.0
C      1  0.5545110000000  0.4728240000000  0.5480010000000 1.0
C      1  0.5824830000000  0.4724350000000  0.4579770000000 1.0
C      1  0.5309610000000  0.5525840000000  0.4619200000000 1.0
C      1  0.4426470000000  0.5570390000000  0.4863450000000 1.0
C      1  0.4419640000000  0.4577360000000  0.4639590000000 1.0
C      1  0.5256030000000  0.4346670000000  0.4799910000000 1.0
C      1  0.5062200000000  0.4593710000000  0.4851090000000 1.0
C      1  0.5432330000000  0.4956570000000  0.4854110000000 1.0
C      1  0.5196660000000  0.5315700000000  0.4853420000000 1.0
C      1  0.4600610000000  0.5306530000000  0.4950630000000 1.0
C      1  0.4576230000000  0.4798750000000  0.4844690000000 1.0
END
