TITL C-27136-4842-75 -0.00132228161717054 125000 -323.758196965988 0 0 60 (C1) n - 1
REM
REM in /home/nfs/bkarasulu/CARBON/AIRSS/Generating-Clusters/AIREBO/Higher-Symm/Only-C60
REM
REM
REM
REM
REM
REM ./C.cell (28575a23ae977d3b5fae324c64b13b57)
REM
REM compiler GCC version 9.2.1 20190827 (Red Hat 9.2.1-1)
REM options -cpp -mtune=generic -march=x86-64 -g -O0 -fpre-include=/usr/include/finclude/math-vector-fortran.h
REM seed -913838510 1241904513 2119401787 -1289438388 -1817011069 -1186834020 -1166875657 -638335015 -1641006866 572010887 -1957844200 1368254484 1687710783 -1937669059 -276862939 288692027 -1761537198 -624002530 1684692875 -134736092 -384084257 176487814 -336928177 514661295 1744127371 -1702835305 1290803530 934965162 -1327070871 -1468407143 235412401 768378488 1274126662
REM
CELL 1.54180   50.00000   50.00000   50.00000   90.00000   90.00000   90.00000
LATT -1
SFAC C  
C      1  0.5738420000000  0.4892220000000  0.4801980000000 1.0
C      1  0.4072750000000  0.4565660000000  0.4812230000000 1.0
C      1  0.4955830000000  0.4848060000000  0.5765780000000 1.0
C      1  0.4661380000000  0.4992400000000  0.4229330000000 1.0
C      1  0.4676620000000  0.4739120000000  0.5633180000000 1.0
C      1  0.5752540000000  0.4705020000000  0.5055490000000 1.0
C      1  0.4978790000000  0.5428050000000  0.5696960000000 1.0
C      1  0.5550030000000  0.5444960000000  0.4719130000000 1.0
C      1  0.4394360000000  0.5323650000000  0.4647700000000 1.0
C      1  0.5876890000000  0.4461740000000  0.5068970000000 1.0
C      1  0.4529530000000  0.4819410000000  0.4079760000000 1.0
C      1  0.4812350000000  0.4609830000000  0.5916290000000 1.0
C      1  0.4802070000000  0.5197360000000  0.4951920000000 1.0
C      1  0.5032920000000  0.5279840000000  0.5185460000000 1.0
C      1  0.5189590000000  0.5104260000000  0.4942350000000 1.0
C      1  0.4934900000000  0.4646530000000  0.5156120000000 1.0
C      1  0.5223230000000  0.4776690000000  0.5030440000000 1.0
C      1  0.4850070000000  0.4894250000000  0.4957570000000 1.0
C      1  0.4588020000000  0.5091390000000  0.4730660000000 1.0
C      1  0.4903110000000  0.5237090000000  0.5454460000000 1.0
C      1  0.5511410000000  0.5150160000000  0.4842430000000 1.0
C      1  0.5351940000000  0.5055850000000  0.5583630000000 1.0
C      1  0.5345380000000  0.5041620000000  0.4566110000000 1.0
C      1  0.4451430000000  0.4923660000000  0.4955370000000 1.0
C      1  0.4556710000000  0.5561860000000  0.5027000000000 1.0
C      1  0.5338330000000  0.5692710000000  0.5254730000000 1.0
C      1  0.5033480000000  0.5919750000000  0.4481660000000 1.0
C      1  0.5234730000000  0.4517600000000  0.4825100000000 1.0
C      1  0.5116630000000  0.4287310000000  0.4929270000000 1.0
C      1  0.4947320000000  0.4350750000000  0.5135690000000 1.0
C      1  0.4779920000000  0.5002580000000  0.4505440000000 1.0
C      1  0.4693490000000  0.4735570000000  0.5327030000000 1.0
C      1  0.5479530000000  0.4773520000000  0.5203650000000 1.0
C      1  0.4957940000000  0.5354290000000  0.4434320000000 1.0
C      1  0.4600980000000  0.5208530000000  0.5397390000000 1.0
C      1  0.5613060000000  0.5231050000000  0.5156740000000 1.0
C      1  0.5079640000000  0.5045900000000  0.5636540000000 1.0
C      1  0.5610060000000  0.4905390000000  0.4542830000000 1.0
C      1  0.4249610000000  0.4751120000000  0.4884640000000 1.0
C      1  0.4548250000000  0.4950760000000  0.5213690000000 1.0
C      1  0.5505630000000  0.5010900000000  0.5359080000000 1.0
C      1  0.5081370000000  0.5065890000000  0.4523120000000 1.0
C      1  0.5327700000000  0.5566940000000  0.4702070000000 1.0
C      1  0.4378200000000  0.5544810000000  0.4810430000000 1.0
C      1  0.5358520000000  0.5939860000000  0.5359400000000 1.0
C      1  0.5854430000000  0.5005740000000  0.5165580000000 1.0
C      1  0.4756080000000  0.5274950000000  0.4213860000000 1.0
C      1  0.4476380000000  0.4989290000000  0.5604890000000 1.0
C      1  0.5107210000000  0.5590800000000  0.5147610000000 1.0
C      1  0.5080720000000  0.5395150000000  0.4748770000000 1.0
C      1  0.4851530000000  0.5533890000000  0.4939900000000 1.0
C      1  0.4836560000000  0.4180370000000  0.5317970000000 1.0
C      1  0.5369560000000  0.4494100000000  0.4587640000000 1.0
C      1  0.5163960000000  0.4032810000000  0.4835440000000 1.0
C      1  0.5189210000000  0.3794210000000  0.4729910000000 1.0
C      1  0.3885090000000  0.4389870000000  0.4761530000000 1.0
C      1  0.4709480000000  0.4015750000000  0.5477500000000 1.0
C      1  0.4494320000000  0.5467640000000  0.5273010000000 1.0
C      1  0.5560280000000  0.5521250000000  0.5232110000000 1.0
C      1  0.4990510000000  0.5668260000000  0.4471140000000 1.0
END
