TITL C-27145-253-8 0.0017447289826686 125000 -311.904186835231 0 0 60 (C1) n - 1
REM
REM in /home/nfs/bkarasulu/CARBON/AIRSS/Generating-Clusters/AIREBO/Higher-Symm/Only-C60
REM
REM
REM
REM
REM
REM ./C.cell (28575a23ae977d3b5fae324c64b13b57)
REM
REM compiler GCC version 9.2.1 20190827 (Red Hat 9.2.1-1)
REM options -cpp -mtune=generic -march=x86-64 -g -O0 -fpre-include=/usr/include/finclude/math-vector-fortran.h
REM seed 1245529719 -1518234644 -1456186713 -187292754 1020708440 832635865 -764316261 898900972 1365676872 2135979945 -1061244403 96126765 -75661132 -2066062001 -171821271 1418249087 1160918066 1416310378 1039902350 1246051052 -291683750 -782937406 241829895 1952975852 621421017 -1011415583 -1904637874 -1400613906 1491170530 772848103 -785355248 768760750 86885880
REM
CELL 1.54180   50.00000   50.00000   50.00000   90.00000   90.00000   90.00000
LATT -1
SFAC C  
C      1  0.4699540000000  0.4608100000000  0.5619200000000 1.0
C      1  0.4642940000000  0.4270950000000  0.5130890000000 1.0
C      1  0.4808400000000  0.4613240000000  0.4228410000000 1.0
C      1  0.4689370000000  0.5090150000000  0.4366050000000 1.0
C      1  0.4720580000000  0.5674060000000  0.4835740000000 1.0
C      1  0.4613670000000  0.5587130000000  0.5373690000000 1.0
C      1  0.4647760000000  0.5128940000000  0.5697350000000 1.0
C      1  0.4975820000000  0.4531670000000  0.5630320000000 1.0
C      1  0.4891610000000  0.4213510000000  0.4985810000000 1.0
C      1  0.5067060000000  0.4446970000000  0.4335600000000 1.0
C      1  0.4942640000000  0.5155860000000  0.4260540000000 1.0
C      1  0.5029580000000  0.5694420000000  0.4695620000000 1.0
C      1  0.4900840000000  0.5706780000000  0.5433380000000 1.0
C      1  0.4906450000000  0.5137830000000  0.5774000000000 1.0
C      1  0.5338730000000  0.5251280000000  0.4775390000000 1.0
C      1  0.5273830000000  0.5291790000000  0.5106820000000 1.0
C      1  0.5250070000000  0.5128970000000  0.5404570000000 1.0
C      1  0.5370730000000  0.4815880000000  0.5348790000000 1.0
C      1  0.5256010000000  0.4668110000000  0.5064440000000 1.0
C      1  0.5306320000000  0.4718720000000  0.4725370000000 1.0
C      1  0.5155020000000  0.5005560000000  0.4621870000000 1.0
C      1  0.5072310000000  0.4463270000000  0.5354710000000 1.0
C      1  0.4917220000000  0.4418610000000  0.4778360000000 1.0
C      1  0.5109730000000  0.4691790000000  0.4143050000000 1.0
C      1  0.5125300000000  0.5293910000000  0.4443990000000 1.0
C      1  0.4998730000000  0.5732370000000  0.5021600000000 1.0
C      1  0.4955390000000  0.5423030000000  0.5497860000000 1.0
C      1  0.5105590000000  0.4918660000000  0.5629340000000 1.0
C      1  0.4833960000000  0.5212600000000  0.4733190000000 1.0
C      1  0.4984780000000  0.5408020000000  0.4970550000000 1.0
C      1  0.4901030000000  0.5255020000000  0.5262500000000 1.0
C      1  0.4893720000000  0.4941300000000  0.5393430000000 1.0
C      1  0.4946690000000  0.4711220000000  0.5199230000000 1.0
C      1  0.4791970000000  0.4669600000000  0.4908040000000 1.0
C      1  0.4842650000000  0.4878920000000  0.4667610000000 1.0
C      1  0.5580280000000  0.5099490000000  0.4603320000000 1.0
C      1  0.5371580000000  0.5558590000000  0.5279440000000 1.0
C      1  0.5604130000000  0.5334460000000  0.5327350000000 1.0
C      1  0.5612850000000  0.5044180000000  0.5272510000000 1.0
C      1  0.5576670000000  0.4560580000000  0.5029290000000 1.0
C      1  0.5612260000000  0.4574120000000  0.4759450000000 1.0
C      1  0.5490980000000  0.4855140000000  0.4474240000000 1.0
C      1  0.5207760000000  0.4933160000000  0.4293620000000 1.0
C      1  0.5220020000000  0.5520160000000  0.4604330000000 1.0
C      1  0.5166680000000  0.5760330000000  0.5277460000000 1.0
C      1  0.5161690000000  0.5306920000000  0.5681200000000 1.0
C      1  0.5279210000000  0.4652280000000  0.5632720000000 1.0
C      1  0.5143490000000  0.4336170000000  0.5097630000000 1.0
C      1  0.5122770000000  0.4478340000000  0.4606600000000 1.0
C      1  0.4524710000000  0.5259360000000  0.4609300000000 1.0
C      1  0.4547350000000  0.5433830000000  0.4900410000000 1.0
C      1  0.4517440000000  0.5360300000000  0.5231130000000 1.0
C      1  0.4575310000000  0.5060020000000  0.5380160000000 1.0
C      1  0.4561900000000  0.4720110000000  0.5387770000000 1.0
C      1  0.4580370000000  0.4562450000000  0.5151810000000 1.0
C      1  0.4681770000000  0.4795720000000  0.4400670000000 1.0
C      1  0.5159720000000  0.4991160000000  0.5019500000000 1.0
C      1  0.4504270000000  0.5097570000000  0.4913920000000 1.0
C      1  0.4823470000000  0.5050660000000  0.5021310000000 1.0
C      1  0.5499570000000  0.4978140000000  0.5010870000000 1.0
END
