TITL C-27140-5627-129 0.0483706135512979 125000 -313.192854605871 0 0 60 (C1) n - 1
REM
REM in /home/nfs/bkarasulu/CARBON/AIRSS/Generating-Clusters/AIREBO/Higher-Symm/Only-C60
REM
REM
REM
REM
REM
REM ./C.cell (28575a23ae977d3b5fae324c64b13b57)
REM
REM compiler GCC version 9.2.1 20190827 (Red Hat 9.2.1-1)
REM options -cpp -mtune=generic -march=x86-64 -g -O0 -fpre-include=/usr/include/finclude/math-vector-fortran.h
REM seed 201130554 1256433478 -2136102480 418109527 684798461 1714699858 -1701075570 873383327 -585185922 244663814 1130571232 2067698901 -47410175 -1283682270 -719954678 -1467949788 -1976310453 1849268935 -257000847 1920602809 1840116773 -1567640381 -1610382588 1083026801 -747020248 -592383102 -1073476584 -897696646 -139151069 653368252 200085454 -581613684 -790252134
REM
CELL 1.54180   50.00000   50.00000   50.00000   90.00000   90.00000   90.00000
LATT -1
SFAC C  
C      1  0.4403570000000  0.5670440000000  0.4283930000000 1.0
C      1  0.5313580000000  0.5223450000000  0.4367490000000 1.0
C      1  0.4603710000000  0.5204430000000  0.4704360000000 1.0
C      1  0.5529870000000  0.4949950000000  0.5430710000000 1.0
C      1  0.5592260000000  0.4742270000000  0.5013790000000 1.0
C      1  0.4778730000000  0.4352910000000  0.5115450000000 1.0
C      1  0.5237340000000  0.5503810000000  0.4533170000000 1.0
C      1  0.4994900000000  0.4495420000000  0.4676200000000 1.0
C      1  0.4072460000000  0.5159810000000  0.4622070000000 1.0
C      1  0.5530340000000  0.4461270000000  0.5700800000000 1.0
C      1  0.5836430000000  0.5510300000000  0.5172480000000 1.0
C      1  0.4475480000000  0.4613480000000  0.4688580000000 1.0
C      1  0.5039130000000  0.5040380000000  0.5497660000000 1.0
C      1  0.4474500000000  0.5506370000000  0.4481610000000 1.0
C      1  0.5522220000000  0.5365660000000  0.4584790000000 1.0
C      1  0.4783190000000  0.5109450000000  0.5329630000000 1.0
C      1  0.5315800000000  0.4577470000000  0.5123820000000 1.0
C      1  0.4971730000000  0.4523020000000  0.4373290000000 1.0
C      1  0.4737360000000  0.4638580000000  0.5681430000000 1.0
C      1  0.4746060000000  0.5466820000000  0.4620120000000 1.0
C      1  0.4828970000000  0.5394830000000  0.5224980000000 1.0
C      1  0.5050900000000  0.5191670000000  0.5764090000000 1.0
C      1  0.5265100000000  0.4554490000000  0.4788350000000 1.0
C      1  0.5347790000000  0.5402910000000  0.5173340000000 1.0
C      1  0.4998210000000  0.4720230000000  0.5546620000000 1.0
C      1  0.4399070000000  0.4587320000000  0.4929190000000 1.0
C      1  0.4796610000000  0.4986240000000  0.4137210000000 1.0
C      1  0.5344310000000  0.4252060000000  0.5157350000000 1.0
C      1  0.5285170000000  0.5109220000000  0.5320960000000 1.0
C      1  0.5621550000000  0.5394720000000  0.5049090000000 1.0
C      1  0.4612740000000  0.4580100000000  0.5160890000000 1.0
C      1  0.4483740000000  0.4845380000000  0.5612830000000 1.0
C      1  0.5364550000000  0.3998850000000  0.5181680000000 1.0
C      1  0.4561490000000  0.5527860000000  0.5144010000000 1.0
C      1  0.5612010000000  0.4968280000000  0.4829330000000 1.0
C      1  0.3826320000000  0.5082620000000  0.4668400000000 1.0
C      1  0.5159160000000  0.5008650000000  0.4510820000000 1.0
C      1  0.4930810000000  0.5576800000000  0.5457330000000 1.0
C      1  0.5050630000000  0.5376970000000  0.5010190000000 1.0
C      1  0.5004340000000  0.4665530000000  0.5231170000000 1.0
C      1  0.4531830000000  0.5088940000000  0.5510780000000 1.0
C      1  0.5010270000000  0.5725010000000  0.5649340000000 1.0
C      1  0.4324490000000  0.5254660000000  0.4595970000000 1.0
C      1  0.5219730000000  0.5706520000000  0.5158500000000 1.0
C      1  0.5633410000000  0.5245630000000  0.4809550000000 1.0
C      1  0.4769110000000  0.4974770000000  0.4825140000000 1.0
C      1  0.5381690000000  0.5185320000000  0.4103680000000 1.0
C      1  0.4934910000000  0.4850270000000  0.4367290000000 1.0
C      1  0.5012100000000  0.5546080000000  0.4724560000000 1.0
C      1  0.5240020000000  0.4574090000000  0.5645040000000 1.0
C      1  0.5476140000000  0.4366290000000  0.4668990000000 1.0
C      1  0.5471210000000  0.4644020000000  0.5418880000000 1.0
C      1  0.5080170000000  0.5771300000000  0.4955660000000 1.0
C      1  0.5035190000000  0.5123790000000  0.4794280000000 1.0
C      1  0.5269060000000  0.5045180000000  0.5015580000000 1.0
C      1  0.4756120000000  0.4733550000000  0.4632560000000 1.0
C      1  0.5320800000000  0.4851750000000  0.4741970000000 1.0
C      1  0.4769910000000  0.4873130000000  0.5112220000000 1.0
C      1  0.4753430000000  0.4516940000000  0.5928980000000 1.0
C      1  0.4508290000000  0.4582750000000  0.5441840000000 1.0
END
