TITL C-27134-4977-93 0.00303792597697092 125000 -330.375817318427 0 0 60 (C1) n - 1
REM
REM in /home/nfs/bkarasulu/CARBON/AIRSS/Generating-Clusters/AIREBO/Higher-Symm/Only-C60
REM
REM
REM
REM
REM
REM ./C.cell (28575a23ae977d3b5fae324c64b13b57)
REM
REM compiler GCC version 9.2.1 20190827 (Red Hat 9.2.1-1)
REM options -cpp -mtune=generic -march=x86-64 -g -O0 -fpre-include=/usr/include/finclude/math-vector-fortran.h
REM seed 1295931198 203224478 1535921502 -2118681525 1750618153 -1356999554 -1184483043 191259210 -1979130350 -2117409455 1003678503 -548895950 680276175 -1857372644 1904183044 283465567 -876979652 225423069 -321409236 704530300 -64699092 -2089086112 -1008320406 2018642446 -1855594656 -1738033056 515553517 1545001049 62826789 -1853682418 1240366488 -1095520034 1353822772
REM
CELL 1.54180   50.00000   50.00000   50.00000   90.00000   90.00000   90.00000
LATT -1
SFAC C  
C      1  0.5474530000000  0.5278670000000  0.4847850000000 1.0
C      1  0.4548550000000  0.5213960000000  0.5106530000000 1.0
C      1  0.4498680000000  0.5179580000000  0.4823310000000 1.0
C      1  0.5497220000000  0.5196080000000  0.5139590000000 1.0
C      1  0.4819330000000  0.4363910000000  0.5240090000000 1.0
C      1  0.5152070000000  0.4379350000000  0.4692790000000 1.0
C      1  0.5100960000000  0.4338300000000  0.5247600000000 1.0
C      1  0.4879850000000  0.4355540000000  0.4639430000000 1.0
C      1  0.4731080000000  0.4544900000000  0.5440730000000 1.0
C      1  0.5274280000000  0.4605290000000  0.4575860000000 1.0
C      1  0.5219710000000  0.4519780000000  0.5422150000000 1.0
C      1  0.4701590000000  0.4631320000000  0.4556530000000 1.0
C      1  0.4701280000000  0.5548880000000  0.4581790000000 1.0
C      1  0.5263630000000  0.5555470000000  0.5369530000000 1.0
C      1  0.5230520000000  0.5586300000000  0.4598320000000 1.0
C      1  0.4770810000000  0.5551940000000  0.5371830000000 1.0
C      1  0.5417030000000  0.4833630000000  0.4752550000000 1.0
C      1  0.4552520000000  0.4787610000000  0.5395100000000 1.0
C      1  0.4579340000000  0.4732710000000  0.4856960000000 1.0
C      1  0.5431760000000  0.4724730000000  0.5351100000000 1.0
C      1  0.5271160000000  0.5085690000000  0.4307820000000 1.0
C      1  0.4771200000000  0.5100360000000  0.5722900000000 1.0
C      1  0.4759330000000  0.5055310000000  0.4249800000000 1.0
C      1  0.5261970000000  0.5078510000000  0.5698590000000 1.0
C      1  0.5199600000000  0.5089440000000  0.4806930000000 1.0
C      1  0.4732650000000  0.5007020000000  0.5230930000000 1.0
C      1  0.4716630000000  0.5002570000000  0.4702240000000 1.0
C      1  0.5281870000000  0.4994940000000  0.5232990000000 1.0
C      1  0.5471030000000  0.5516330000000  0.5165200000000 1.0
C      1  0.4540580000000  0.5490250000000  0.4820010000000 1.0
C      1  0.4569790000000  0.5508710000000  0.5165560000000 1.0
C      1  0.5414120000000  0.5581080000000  0.4834030000000 1.0
C      1  0.5242480000000  0.5342410000000  0.4457500000000 1.0
C      1  0.4810080000000  0.5315030000000  0.5542230000000 1.0
C      1  0.4727940000000  0.5310350000000  0.4416340000000 1.0
C      1  0.5228580000000  0.5309250000000  0.5530820000000 1.0
C      1  0.5480770000000  0.4909060000000  0.5616860000000 1.0
C      1  0.4588140000000  0.4829600000000  0.4317470000000 1.0
C      1  0.4531490000000  0.4950080000000  0.5667090000000 1.0
C      1  0.5473300000000  0.4921710000000  0.4433920000000 1.0
C      1  0.5032240000000  0.4946160000000  0.4240270000000 1.0
C      1  0.5011010000000  0.4937140000000  0.5740780000000 1.0
C      1  0.4991440000000  0.4697430000000  0.5557060000000 1.0
C      1  0.5008300000000  0.4714230000000  0.4434820000000 1.0
C      1  0.4952460000000  0.5673580000000  0.4647830000000 1.0
C      1  0.5016830000000  0.5649350000000  0.5270220000000 1.0
C      1  0.5477600000000  0.4202340000000  0.4989580000000 1.0
C      1  0.4479900000000  0.4242090000000  0.4908910000000 1.0
C      1  0.5004090000000  0.4797770000000  0.5232350000000 1.0
C      1  0.4991150000000  0.4821500000000  0.4755290000000 1.0
C      1  0.4976840000000  0.5172130000000  0.4563740000000 1.0
C      1  0.5011160000000  0.5190280000000  0.5297990000000 1.0
C      1  0.5228870000000  0.4325090000000  0.4976630000000 1.0
C      1  0.4711750000000  0.4426000000000  0.4923570000000 1.0
C      1  0.4425940000000  0.4791000000000  0.5093970000000 1.0
C      1  0.5544520000000  0.4768390000000  0.5034690000000 1.0
C      1  0.4980180000000  0.5950960000000  0.4932460000000 1.0
C      1  0.4993070000000  0.4609550000000  0.4977120000000 1.0
C      1  0.4994360000000  0.5648820000000  0.4961730000000 1.0
C      1  0.5041220000000  0.5317390000000  0.5003670000000 1.0
END
