TITL C-27138-9601-66 -0.000744092121513937 125000 -334.233498785145 0 0 60 (C1) n - 1
REM
REM in /home/nfs/bkarasulu/CARBON/AIRSS/Generating-Clusters/AIREBO/Higher-Symm/Only-C60
REM
REM
REM
REM
REM
REM ./C.cell (28575a23ae977d3b5fae324c64b13b57)
REM
REM compiler GCC version 9.2.1 20190827 (Red Hat 9.2.1-1)
REM options -cpp -mtune=generic -march=x86-64 -g -O0 -fpre-include=/usr/include/finclude/math-vector-fortran.h
REM seed 558072051 203946700 1554679543 1481848024 1722412246 -2094004565 1915670844 -74225067 -335976530 -2132525935 -1778324512 1770363487 -993067063 1469352005 98400435 1916788790 2030064295 -439392361 451294021 -139271476 -2011312171 -1613236909 802463452 -1418195076 205668360 98836665 693009150 -572648222 -1459965391 -556189869 -1487917324 -827262785 938397805
REM
CELL 1.54180   50.00000   50.00000   50.00000   90.00000   90.00000   90.00000
LATT -1
SFAC C  
C      1  0.4898430000000  0.5801080000000  0.4727670000000 1.0
C      1  0.4715920000000  0.5607390000000  0.4792850000000 1.0
C      1  0.4674260000000  0.5583530000000  0.5106940000000 1.0
C      1  0.4923460000000  0.5682150000000  0.5303540000000 1.0
C      1  0.5226850000000  0.5650630000000  0.5310540000000 1.0
C      1  0.5304340000000  0.5714180000000  0.5021380000000 1.0
C      1  0.5143510000000  0.5868960000000  0.4843680000000 1.0
C      1  0.4637270000000  0.4886020000000  0.4349540000000 1.0
C      1  0.4271970000000  0.4933470000000  0.4888850000000 1.0
C      1  0.4379190000000  0.4816010000000  0.5411300000000 1.0
C      1  0.5104620000000  0.4969800000000  0.5758930000000 1.0
C      1  0.5594830000000  0.4883460000000  0.5532140000000 1.0
C      1  0.5711610000000  0.4778740000000  0.4769040000000 1.0
C      1  0.5188470000000  0.4791240000000  0.4294530000000 1.0
C      1  0.4496160000000  0.4697770000000  0.4850690000000 1.0
C      1  0.4577990000000  0.4660980000000  0.5253120000000 1.0
C      1  0.5018160000000  0.4715990000000  0.5543790000000 1.0
C      1  0.5399900000000  0.4690930000000  0.5395130000000 1.0
C      1  0.5538330000000  0.4549940000000  0.4756490000000 1.0
C      1  0.5274270000000  0.4616550000000  0.4573500000000 1.0
C      1  0.4793060000000  0.4638490000000  0.4502320000000 1.0
C      1  0.4743120000000  0.5307090000000  0.4717820000000 1.0
C      1  0.4486470000000  0.5353100000000  0.5175100000000 1.0
C      1  0.4763540000000  0.5202240000000  0.5219470000000 1.0
C      1  0.5321190000000  0.5404220000000  0.5422400000000 1.0
C      1  0.5433630000000  0.5199730000000  0.5175120000000 1.0
C      1  0.5001910000000  0.5082820000000  0.5008450000000 1.0
C      1  0.5078540000000  0.5251380000000  0.4723220000000 1.0
C      1  0.5251950000000  0.4971300000000  0.5349520000000 1.0
C      1  0.5387570000000  0.4959430000000  0.4938460000000 1.0
C      1  0.5219220000000  0.4948490000000  0.4658750000000 1.0
C      1  0.4888960000000  0.4875450000000  0.4659370000000 1.0
C      1  0.4659390000000  0.4995140000000  0.4825620000000 1.0
C      1  0.4668120000000  0.4910100000000  0.5136100000000 1.0
C      1  0.4947900000000  0.5015490000000  0.5398870000000 1.0
C      1  0.5694450000000  0.4933330000000  0.5031570000000 1.0
C      1  0.5450960000000  0.4962680000000  0.4410350000000 1.0
C      1  0.4959930000000  0.4967810000000  0.4279050000000 1.0
C      1  0.4365980000000  0.4940180000000  0.4562060000000 1.0
C      1  0.4189560000000  0.4929340000000  0.5223830000000 1.0
C      1  0.4772570000000  0.4984540000000  0.5684830000000 1.0
C      1  0.5444500000000  0.5014870000000  0.5739910000000 1.0
C      1  0.4825170000000  0.4416080000000  0.4678260000000 1.0
C      1  0.4650960000000  0.4467610000000  0.4909230000000 1.0
C      1  0.4774470000000  0.4436030000000  0.5217780000000 1.0
C      1  0.5011330000000  0.4483300000000  0.5382790000000 1.0
C      1  0.5312640000000  0.4424090000000  0.5247180000000 1.0
C      1  0.5135170000000  0.4530870000000  0.5006820000000 1.0
C      1  0.5098750000000  0.4423820000000  0.4751600000000 1.0
C      1  0.4568400000000  0.5181620000000  0.4485980000000 1.0
C      1  0.4274130000000  0.5201580000000  0.5095080000000 1.0
C      1  0.4508590000000  0.4920880000000  0.5651650000000 1.0
C      1  0.5259990000000  0.5251850000000  0.5648910000000 1.0
C      1  0.5706270000000  0.5048700000000  0.5311100000000 1.0
C      1  0.5709340000000  0.4921540000000  0.4518210000000 1.0
C      1  0.5022930000000  0.5221240000000  0.4389030000000 1.0
C      1  0.5116930000000  0.4804660000000  0.5016450000000 1.0
C      1  0.5290510000000  0.5402140000000  0.4942310000000 1.0
C      1  0.4989410000000  0.5471360000000  0.5045040000000 1.0
C      1  0.5503300000000  0.4381530000000  0.4970460000000 1.0
END
