TITL C-27130-3996-105 -0.000366813303487192 125000 -344.472011127554 0 0 60 (C1) n - 1
REM
REM in /home/nfs/bkarasulu/CARBON/AIRSS/Generating-Clusters/AIREBO/Higher-Symm/Only-C60
REM
REM
REM
REM
REM
REM ./C.cell (28575a23ae977d3b5fae324c64b13b57)
REM
REM compiler GCC version 9.2.1 20190827 (Red Hat 9.2.1-1)
REM options -cpp -mtune=generic -march=x86-64 -g -O0 -fpre-include=/usr/include/finclude/math-vector-fortran.h
REM seed 166650633 -507426469 -1724677236 1120386574 -138808254 -1035583916 -1166159386 1190358050 -1597636667 -621826135 -638732383 1672453694 1151219268 713484980 -538005785 -450772058 694911325 -1562339592 1388226918 -220594944 -1573813408 -162781004 -2127997563 1393808639 -1316778511 -1211834184 16843598 901908253 892189739 -156620183 2033424986 -1857715408 707962116
REM
CELL 1.54180   50.00000   50.00000   50.00000   90.00000   90.00000   90.00000
LATT -1
SFAC C  
C      1  0.4848950000000  0.5456630000000  0.4460000000000 1.0
C      1  0.4601130000000  0.5454810000000  0.5396350000000 1.0
C      1  0.5544960000000  0.5465410000000  0.5135140000000 1.0
C      1  0.5171880000000  0.5479570000000  0.4440970000000 1.0
C      1  0.5400890000000  0.5490670000000  0.5426660000000 1.0
C      1  0.4428950000000  0.5492860000000  0.5125610000000 1.0
C      1  0.4338190000000  0.5092150000000  0.5551680000000 1.0
C      1  0.5836970000000  0.5119590000000  0.5276820000000 1.0
C      1  0.4823550000000  0.5109070000000  0.4138860000000 1.0
C      1  0.5648890000000  0.5102670000000  0.5560050000000 1.0
C      1  0.4164450000000  0.5120210000000  0.5265840000000 1.0
C      1  0.5162680000000  0.5088990000000  0.4161970000000 1.0
C      1  0.4896130000000  0.4335590000000  0.5412580000000 1.0
C      1  0.5418370000000  0.4341620000000  0.4888500000000 1.0
C      1  0.4699040000000  0.4315610000000  0.4613220000000 1.0
C      1  0.5166660000000  0.4280350000000  0.5412870000000 1.0
C      1  0.4611820000000  0.4325620000000  0.4874710000000 1.0
C      1  0.5265320000000  0.4273510000000  0.4669760000000 1.0
C      1  0.4865610000000  0.5091290000000  0.5659190000000 1.0
C      1  0.5627400000000  0.5089870000000  0.4794430000000 1.0
C      1  0.4502750000000  0.5085900000000  0.4557210000000 1.0
C      1  0.5151340000000  0.5093060000000  0.5633380000000 1.0
C      1  0.4377060000000  0.5092330000000  0.4812140000000 1.0
C      1  0.5466600000000  0.5081960000000  0.4559550000000 1.0
C      1  0.4444560000000  0.4821710000000  0.5003650000000 1.0
C      1  0.5264910000000  0.4809490000000  0.5493240000000 1.0
C      1  0.5288210000000  0.4799890000000  0.4535410000000 1.0
C      1  0.5524900000000  0.4857560000000  0.5020740000000 1.0
C      1  0.4731840000000  0.4848060000000  0.5462570000000 1.0
C      1  0.4753920000000  0.4856720000000  0.4545200000000 1.0
C      1  0.5732740000000  0.5268960000000  0.5048610000000 1.0
C      1  0.4678770000000  0.5262440000000  0.4340830000000 1.0
C      1  0.4576830000000  0.5252940000000  0.5592510000000 1.0
C      1  0.4273460000000  0.5268780000000  0.5038350000000 1.0
C      1  0.5314820000000  0.5247530000000  0.4355270000000 1.0
C      1  0.5404880000000  0.5260170000000  0.5596060000000 1.0
C      1  0.4831920000000  0.4620980000000  0.5272600000000 1.0
C      1  0.5322360000000  0.4620560000000  0.5020530000000 1.0
C      1  0.4841190000000  0.4609210000000  0.4713480000000 1.0
C      1  0.5168710000000  0.4594330000000  0.5279690000000 1.0
C      1  0.4680490000000  0.4609180000000  0.5013160000000 1.0
C      1  0.5148500000000  0.4588680000000  0.4730030000000 1.0
C      1  0.4827830000000  0.5411800000000  0.4772590000000 1.0
C      1  0.4889850000000  0.5418350000000  0.5267210000000 1.0
C      1  0.5283150000000  0.5402980000000  0.4966850000000 1.0
C      1  0.5129190000000  0.5500340000000  0.4737120000000 1.0
C      1  0.5165930000000  0.5507720000000  0.5241580000000 1.0
C      1  0.4709820000000  0.5510830000000  0.5020200000000 1.0
C      1  0.5167490000000  0.4790880000000  0.4257980000000 1.0
C      1  0.4274570000000  0.4834160000000  0.5255020000000 1.0
C      1  0.5566070000000  0.4803980000000  0.5523660000000 1.0
C      1  0.4871930000000  0.4838580000000  0.4266220000000 1.0
C      1  0.5707040000000  0.4845850000000  0.5262050000000 1.0
C      1  0.4433580000000  0.4803290000000  0.5508910000000 1.0
C      1  0.5282760000000  0.5083770000000  0.4994070000000 1.0
C      1  0.4844890000000  0.5092650000000  0.4760690000000 1.0
C      1  0.4857790000000  0.5091610000000  0.5261500000000 1.0
C      1  0.4709650000000  0.5007020000000  0.5013260000000 1.0
C      1  0.5131400000000  0.4987560000000  0.4752700000000 1.0
C      1  0.5144480000000  0.4992100000000  0.5248940000000 1.0
END
