TITL C-27131-4585-136 0.00143322649303318 125000 -339.938509325487 0 0 60 (C1) n - 1
REM
REM in /home/nfs/bkarasulu/CARBON/AIRSS/Generating-Clusters/AIREBO/Higher-Symm/Only-C60
REM
REM
REM
REM
REM
REM ./C.cell (28575a23ae977d3b5fae324c64b13b57)
REM
REM compiler GCC version 9.2.1 20190827 (Red Hat 9.2.1-1)
REM options -cpp -mtune=generic -march=x86-64 -g -O0 -fpre-include=/usr/include/finclude/math-vector-fortran.h
REM seed 1348277121 1234206916 -1687601450 -960348304 1966000245 -1339903369 790515881 1602650687 -1458083651 -828777267 1725454704 -83730666 527459413 -1083517291 1577498270 -552366998 -1698632303 -88693731 -1379223207 -362989510 -269145131 1070349159 -1522997562 1663583443 -5142426 -717325890 -95034034 -1938036737 -461822515 1711963026 238995442 -55049000 -1754586772
REM
CELL 1.54180   50.00000   50.00000   50.00000   90.00000   90.00000   90.00000
LATT -1
SFAC C  
C      1  0.5559800000000  0.5358720000000  0.5256400000000 1.0
C      1  0.4621070000000  0.5574920000000  0.4747720000000 1.0
C      1  0.4423500000000  0.4647880000000  0.5274830000000 1.0
C      1  0.5416080000000  0.4442310000000  0.4750080000000 1.0
C      1  0.5166480000000  0.4508350000000  0.4624580000000 1.0
C      1  0.5485740000000  0.5097510000000  0.5363700000000 1.0
C      1  0.4870220000000  0.5492680000000  0.4625470000000 1.0
C      1  0.4503200000000  0.4911340000000  0.5381270000000 1.0
C      1  0.4768420000000  0.4478760000000  0.5118980000000 1.0
C      1  0.5475690000000  0.4834430000000  0.4805520000000 1.0
C      1  0.5187810000000  0.5460520000000  0.5152370000000 1.0
C      1  0.4531590000000  0.5190760000000  0.4813900000000 1.0
C      1  0.4308150000000  0.4969850000000  0.4927750000000 1.0
C      1  0.5068480000000  0.4321160000000  0.5091680000000 1.0
C      1  0.5692730000000  0.5051510000000  0.4917670000000 1.0
C      1  0.4964540000000  0.5681390000000  0.5086790000000 1.0
C      1  0.4724730000000  0.4987240000000  0.4941680000000 1.0
C      1  0.4926620000000  0.4752670000000  0.5070100000000 1.0
C      1  0.5238980000000  0.4963240000000  0.4937550000000 1.0
C      1  0.5052270000000  0.5206170000000  0.5063300000000 1.0
C      1  0.4386650000000  0.5440500000000  0.4631470000000 1.0
C      1  0.4585930000000  0.4421920000000  0.5382710000000 1.0
C      1  0.5637330000000  0.4591310000000  0.4626580000000 1.0
C      1  0.5398580000000  0.5571600000000  0.5383780000000 1.0
C      1  0.4817130000000  0.4843110000000  0.5468290000000 1.0
C      1  0.5176790000000  0.4822040000000  0.4540740000000 1.0
C      1  0.5168320000000  0.5149070000000  0.5449340000000 1.0
C      1  0.4820020000000  0.5176610000000  0.4537570000000 1.0
C      1  0.4955280000000  0.4408760000000  0.4780280000000 1.0
C      1  0.5570310000000  0.4886400000000  0.5188880000000 1.0
C      1  0.5090960000000  0.5575670000000  0.4788710000000 1.0
C      1  0.4434040000000  0.5128550000000  0.5196570000000 1.0
C      1  0.5075410000000  0.5169260000000  0.4737680000000 1.0
C      1  0.4828940000000  0.5098020000000  0.5245660000000 1.0
C      1  0.4916230000000  0.4804430000000  0.4739360000000 1.0
C      1  0.5157320000000  0.4871150000000  0.5253580000000 1.0
C      1  0.4365430000000  0.4890770000000  0.4611960000000 1.0
C      1  0.5078060000000  0.4417660000000  0.5403720000000 1.0
C      1  0.5638320000000  0.5125530000000  0.4588910000000 1.0
C      1  0.4922030000000  0.5599440000000  0.5416610000000 1.0
C      1  0.4678940000000  0.5444840000000  0.5465690000000 1.0
C      1  0.4570990000000  0.4696820000000  0.4568930000000 1.0
C      1  0.5320660000000  0.4572860000000  0.5463830000000 1.0
C      1  0.5423660000000  0.5310110000000  0.4536150000000 1.0
C      1  0.4647520000000  0.5585410000000  0.5027540000000 1.0
C      1  0.4402220000000  0.4667420000000  0.4992510000000 1.0
C      1  0.5384220000000  0.4421150000000  0.5029010000000 1.0
C      1  0.5571820000000  0.5365580000000  0.4967150000000 1.0
C      1  0.5484570000000  0.4612200000000  0.5229660000000 1.0
C      1  0.5372240000000  0.5480910000000  0.4766450000000 1.0
C      1  0.4530870000000  0.5400410000000  0.5223450000000 1.0
C      1  0.4636540000000  0.4504710000000  0.4806640000000 1.0
C      1  0.5150920000000  0.5476260000000  0.5544270000000 1.0
C      1  0.4485430000000  0.5161390000000  0.4478300000000 1.0
C      1  0.4841830000000  0.4524820000000  0.5507940000000 1.0
C      1  0.5507650000000  0.4851760000000  0.4467460000000 1.0
C      1  0.5131300000000  0.4793150000000  0.5583540000000 1.0
C      1  0.5200040000000  0.5140700000000  0.4424450000000 1.0
C      1  0.4854610000000  0.5210680000000  0.5565510000000 1.0
C      1  0.4794820000000  0.4855580000000  0.4427820000000 1.0
END
