TITL C-27142-7278-180 -0.000460613003067394 125000 -262.8275529543 0 0 60 (C1) n - 1
REM
REM in /home/nfs/bkarasulu/CARBON/AIRSS/Generating-Clusters/AIREBO/Higher-Symm/Only-C60
REM
REM
REM
REM
REM
REM ./C.cell (28575a23ae977d3b5fae324c64b13b57)
REM
REM compiler GCC version 9.2.1 20190827 (Red Hat 9.2.1-1)
REM options -cpp -mtune=generic -march=x86-64 -g -O0 -fpre-include=/usr/include/finclude/math-vector-fortran.h
REM seed 1681366132 -913905688 -2127799173 -557594520 -1489674457 312274943 1066837133 -2036517870 1323302486 1759494735 -91902890 -7286819 1225718115 -496443455 -1462475044 1184843323 -411300195 -728533851 -1394928552 -750572750 2060846620 232034484 -1712528307 452302702 -1192617028 551637967 451200993 479232046 1310007325 114209188 1359228788 1749421805 1837323211
REM
CELL 1.54180   50.00000   50.00000   50.00000   90.00000   90.00000   90.00000
LATT -1
SFAC C  
C      1  0.5236260000000  0.4898780000000  0.4653320000000 1.0
C      1  0.4780110000000  0.5127320000000  0.4773030000000 1.0
C      1  0.5284680000000  0.5153930000000  0.4878050000000 1.0
C      1  0.4721610000000  0.5340250000000  0.5031780000000 1.0
C      1  0.5257090000000  0.5193330000000  0.5215350000000 1.0
C      1  0.4639830000000  0.4968960000000  0.5429680000000 1.0
C      1  0.5313350000000  0.4901490000000  0.5380580000000 1.0
C      1  0.4727830000000  0.4765600000000  0.5171420000000 1.0
C      1  0.5314120000000  0.4605110000000  0.4806410000000 1.0
C      1  0.4780370000000  0.4786610000000  0.4835810000000 1.0
C      1  0.4452970000000  0.5451140000000  0.5208370000000 1.0
C      1  0.5490480000000  0.5251890000000  0.5455790000000 1.0
C      1  0.4325550000000  0.4988310000000  0.5492330000000 1.0
C      1  0.5568050000000  0.4697320000000  0.5291160000000 1.0
C      1  0.4435390000000  0.4605020000000  0.5133170000000 1.0
C      1  0.5609720000000  0.4514640000000  0.4749900000000 1.0
C      1  0.4526040000000  0.4776620000000  0.4610140000000 1.0
C      1  0.5533790000000  0.4969240000000  0.4504570000000 1.0
C      1  0.4581390000000  0.5380940000000  0.4660700000000 1.0
C      1  0.5527410000000  0.5391660000000  0.4891790000000 1.0
C      1  0.4885050000000  0.5061310000000  0.5651950000000 1.0
C      1  0.5070480000000  0.4794710000000  0.5582740000000 1.0
C      1  0.5048290000000  0.4651780000000  0.5210130000000 1.0
C      1  0.5071540000000  0.4376970000000  0.4877250000000 1.0
C      1  0.4951690000000  0.4625160000000  0.4590020000000 1.0
C      1  0.4980100000000  0.4996970000000  0.4452110000000 1.0
C      1  0.4927850000000  0.5268150000000  0.4499940000000 1.0
C      1  0.5149810000000  0.5448740000000  0.4775110000000 1.0
C      1  0.4923680000000  0.5564610000000  0.5188430000000 1.0
C      1  0.4953870000000  0.5201270000000  0.5351590000000 1.0
C      1  0.5292940000000  0.4610640000000  0.5111100000000 1.0
C      1  0.4833010000000  0.4464290000000  0.4931290000000 1.0
C      1  0.5173950000000  0.4646300000000  0.4434100000000 1.0
C      1  0.4741880000000  0.4878130000000  0.4367750000000 1.0
C      1  0.5151340000000  0.5470660000000  0.4467640000000 1.0
C      1  0.4859580000000  0.5518360000000  0.4800040000000 1.0
C      1  0.5171650000000  0.5520460000000  0.5218950000000 1.0
C      1  0.4661230000000  0.5296220000000  0.5421980000000 1.0
C      1  0.5225110000000  0.5102800000000  0.5628390000000 1.0
C      1  0.4841050000000  0.4610980000000  0.5452470000000 1.0
C      1  0.5601920000000  0.5415710000000  0.5678440000000 1.0
C      1  0.4255520000000  0.5020420000000  0.5762160000000 1.0
C      1  0.5631510000000  0.4493850000000  0.5487550000000 1.0
C      1  0.4462670000000  0.4325160000000  0.5114430000000 1.0
C      1  0.5652970000000  0.4240110000000  0.4716340000000 1.0
C      1  0.4445290000000  0.4521300000000  0.4470180000000 1.0
C      1  0.5519080000000  0.5099480000000  0.4256780000000 1.0
C      1  0.4555040000000  0.5528430000000  0.4407910000000 1.0
C      1  0.5507270000000  0.5624250000000  0.4737770000000 1.0
C      1  0.4408190000000  0.5715080000000  0.5321640000000 1.0
C      1  0.5591280000000  0.5441480000000  0.5192130000000 1.0
C      1  0.4226780000000  0.5219530000000  0.5302090000000 1.0
C      1  0.5701990000000  0.4994100000000  0.5389230000000 1.0
C      1  0.4265660000000  0.4701020000000  0.5377090000000 1.0
C      1  0.5743240000000  0.4645440000000  0.5009570000000 1.0
C      1  0.4314870000000  0.4735570000000  0.4872330000000 1.0
C      1  0.5673890000000  0.4689710000000  0.4499070000000 1.0
C      1  0.4408380000000  0.5095340000000  0.4596310000000 1.0
C      1  0.5658900000000  0.5141160000000  0.4738830000000 1.0
C      1  0.4355420000000  0.5476200000000  0.4883790000000 1.0
END
