TITL C-27132-7279-169 0.000878143516348832 125000 -327.500134785033 0 0 60 (C1) n - 1
REM
REM in /home/nfs/bkarasulu/CARBON/AIRSS/Generating-Clusters/AIREBO/Higher-Symm/Only-C60
REM
REM
REM
REM
REM
REM ./C.cell (28575a23ae977d3b5fae324c64b13b57)
REM
REM compiler GCC version 9.2.1 20190827 (Red Hat 9.2.1-1)
REM options -cpp -mtune=generic -march=x86-64 -g -O0 -fpre-include=/usr/include/finclude/math-vector-fortran.h
REM seed 1647940543 598894176 894441824 -1422447383 1241364164 -1340609012 -993883287 120776160 -1710258774 327821787 436253148 865031503 35675854 965141570 -1339357574 1836405346 39692028 -1397581286 1092834954 1774827482 1963867986 -1370426296 -1823265202 -421546086 1708406454 -1631323492 163997172 -1106108767 1110469453 -1460807607 -1467639460 -1524711228 -1915686927
REM
CELL 1.54180   50.00000   50.00000   50.00000   90.00000   90.00000   90.00000
LATT -1
SFAC C  
C      1  0.4787530000000  0.4302280000000  0.4657000000000 1.0
C      1  0.5086810000000  0.4198400000000  0.5245420000000 1.0
C      1  0.5056870000000  0.4243340000000  0.4684460000000 1.0
C      1  0.4848820000000  0.4330220000000  0.5296700000000 1.0
C      1  0.4431150000000  0.5572610000000  0.4808750000000 1.0
C      1  0.5405330000000  0.5753370000000  0.5205920000000 1.0
C      1  0.5268230000000  0.5541320000000  0.4729380000000 1.0
C      1  0.4710640000000  0.5779230000000  0.5319380000000 1.0
C      1  0.5260390000000  0.4666780000000  0.5257010000000 1.0
C      1  0.4908500000000  0.4794130000000  0.4700400000000 1.0
C      1  0.4939620000000  0.4654380000000  0.5252810000000 1.0
C      1  0.5229080000000  0.4697680000000  0.4757410000000 1.0
C      1  0.4512500000000  0.4780700000000  0.4651260000000 1.0
C      1  0.5575120000000  0.4753150000000  0.5487160000000 1.0
C      1  0.5579300000000  0.4637530000000  0.4574630000000 1.0
C      1  0.4576210000000  0.4600090000000  0.5403990000000 1.0
C      1  0.5460020000000  0.5412140000000  0.4864430000000 1.0
C      1  0.4514910000000  0.5510360000000  0.5288190000000 1.0
C      1  0.4353290000000  0.5440130000000  0.5046470000000 1.0
C      1  0.5460030000000  0.5403640000000  0.5204880000000 1.0
C      1  0.5005360000000  0.5202130000000  0.4234910000000 1.0
C      1  0.5143390000000  0.5217070000000  0.5579610000000 1.0
C      1  0.5286110000000  0.5254100000000  0.4250370000000 1.0
C      1  0.4878340000000  0.5277000000000  0.5639730000000 1.0
C      1  0.4680840000000  0.5498570000000  0.4707600000000 1.0
C      1  0.5149800000000  0.5534480000000  0.5156860000000 1.0
C      1  0.4976220000000  0.5503040000000  0.4722770000000 1.0
C      1  0.4851230000000  0.5487870000000  0.5241250000000 1.0
C      1  0.4667340000000  0.4524900000000  0.5085110000000 1.0
C      1  0.5223240000000  0.4410840000000  0.4839010000000 1.0
C      1  0.5257800000000  0.4382200000000  0.5111430000000 1.0
C      1  0.4689920000000  0.4564430000000  0.4797520000000 1.0
C      1  0.5390580000000  0.4788820000000  0.5686140000000 1.0
C      1  0.4604690000000  0.4789290000000  0.4376810000000 1.0
C      1  0.4661710000000  0.4574840000000  0.5662100000000 1.0
C      1  0.5424870000000  0.4687330000000  0.4349740000000 1.0
C      1  0.5416920000000  0.5191470000000  0.4475580000000 1.0
C      1  0.4553250000000  0.5305470000000  0.5535810000000 1.0
C      1  0.4845040000000  0.5270500000000  0.4023440000000 1.0
C      1  0.5371660000000  0.5364500000000  0.5530860000000 1.0
C      1  0.4455310000000  0.5077870000000  0.5302760000000 1.0
C      1  0.5602850000000  0.5137820000000  0.4754560000000 1.0
C      1  0.5607270000000  0.5120770000000  0.5094130000000 1.0
C      1  0.4348610000000  0.5152670000000  0.5042730000000 1.0
C      1  0.4905090000000  0.4783240000000  0.4303570000000 1.0
C      1  0.5092070000000  0.4815640000000  0.5699710000000 1.0
C      1  0.5186870000000  0.4837420000000  0.4387320000000 1.0
C      1  0.4811640000000  0.4801720000000  0.5754670000000 1.0
C      1  0.4473430000000  0.5020380000000  0.4803750000000 1.0
C      1  0.5533870000000  0.4819420000000  0.5172040000000 1.0
C      1  0.5532760000000  0.4826880000000  0.4839940000000 1.0
C      1  0.4698720000000  0.4881960000000  0.5258530000000 1.0
C      1  0.5230410000000  0.5023980000000  0.4668350000000 1.0
C      1  0.4692970000000  0.5030750000000  0.5661590000000 1.0
C      1  0.4873160000000  0.5061140000000  0.4492440000000 1.0
C      1  0.5167560000000  0.4949530000000  0.5396250000000 1.0
C      1  0.4790870000000  0.5176300000000  0.5115180000000 1.0
C      1  0.5085040000000  0.5206000000000  0.4847690000000 1.0
C      1  0.5118520000000  0.5196790000000  0.5181430000000 1.0
C      1  0.4750320000000  0.5179390000000  0.4781060000000 1.0
END
