TITL C-27138-9601-31 -0.00317586007243983 125000 -322.642464664833 0 0 60 (C1) n - 1
REM
REM in /home/nfs/bkarasulu/CARBON/AIRSS/Generating-Clusters/AIREBO/Higher-Symm/Only-C60
REM
REM
REM
REM
REM
REM ./C.cell (28575a23ae977d3b5fae324c64b13b57)
REM
REM compiler GCC version 9.2.1 20190827 (Red Hat 9.2.1-1)
REM options -cpp -mtune=generic -march=x86-64 -g -O0 -fpre-include=/usr/include/finclude/math-vector-fortran.h
REM seed 370434937 -2140629126 888054780 280709849 -1728693216 -1663493885 -103022534 1282363934 -1335190106 1942774999 -932541861 253610458 1744255831 -1520901177 1759549449 -398775611 1857992073 -1032064820 552356479 -1020117675 -1571139510 1334916956 -2036533366 -1414893175 1314923657 -581126158 -1817373848 -1306590395 530422528 -872571020 1062100202 -290885654 -2030401983
REM
CELL 1.54180   50.00000   50.00000   50.00000   90.00000   90.00000   90.00000
LATT -1
SFAC C  
C      1  0.5205700000000  0.4994970000000  0.5334980000000 1.0
C      1  0.4823630000000  0.4994640000000  0.4673900000000 1.0
C      1  0.4888710000000  0.5006370000000  0.5330160000000 1.0
C      1  0.5159210000000  0.4994140000000  0.4676380000000 1.0
C      1  0.4766040000000  0.4940100000000  0.5640270000000 1.0
C      1  0.5249870000000  0.4939810000000  0.4363950000000 1.0
C      1  0.5261970000000  0.5071850000000  0.5650420000000 1.0
C      1  0.4744770000000  0.5057070000000  0.4359390000000 1.0
C      1  0.5045410000000  0.5548610000000  0.4708800000000 1.0
C      1  0.4938950000000  0.5584850000000  0.5328720000000 1.0
C      1  0.4942480000000  0.4423360000000  0.4683420000000 1.0
C      1  0.5060970000000  0.4432240000000  0.5299560000000 1.0
C      1  0.4485240000000  0.4956980000000  0.4650050000000 1.0
C      1  0.5538800000000  0.4992760000000  0.5372790000000 1.0
C      1  0.5498460000000  0.5032900000000  0.4668980000000 1.0
C      1  0.4561230000000  0.5047900000000  0.5322350000000 1.0
C      1  0.5137850000000  0.4798930000000  0.5675840000000 1.0
C      1  0.4877470000000  0.4799320000000  0.4329180000000 1.0
C      1  0.4885160000000  0.5201860000000  0.5679050000000 1.0
C      1  0.5117630000000  0.5198490000000  0.4335300000000 1.0
C      1  0.4495560000000  0.5199190000000  0.5050080000000 1.0
C      1  0.5396870000000  0.5110070000000  0.4973030000000 1.0
C      1  0.5477230000000  0.4810000000000  0.5111290000000 1.0
C      1  0.4571670000000  0.4880000000000  0.4960290000000 1.0
C      1  0.4951360000000  0.5380330000000  0.4470970000000 1.0
C      1  0.5040130000000  0.5393900000000  0.5549200000000 1.0
C      1  0.5041660000000  0.4612250000000  0.4459490000000 1.0
C      1  0.4974950000000  0.4622270000000  0.5522090000000 1.0
C      1  0.5776060000000  0.4357140000000  0.5201110000000 1.0
C      1  0.4273060000000  0.4446640000000  0.4731550000000 1.0
C      1  0.4212120000000  0.5644730000000  0.5222840000000 1.0
C      1  0.5716610000000  0.5517900000000  0.4720390000000 1.0
C      1  0.4369050000000  0.4820410000000  0.5310490000000 1.0
C      1  0.5673580000000  0.4748070000000  0.4637470000000 1.0
C      1  0.5685190000000  0.5287920000000  0.5375680000000 1.0
C      1  0.4311720000000  0.5244760000000  0.4623220000000 1.0
C      1  0.5138010000000  0.4791620000000  0.5093780000000 1.0
C      1  0.4902320000000  0.4818290000000  0.4936990000000 1.0
C      1  0.4834910000000  0.5194170000000  0.5074980000000 1.0
C      1  0.5073620000000  0.5196070000000  0.4911920000000 1.0
C      1  0.5227790000000  0.5545240000000  0.5235110000000 1.0
C      1  0.4758120000000  0.5508710000000  0.4792550000000 1.0
C      1  0.4772800000000  0.4475990000000  0.5213610000000 1.0
C      1  0.5235380000000  0.4447750000000  0.4763030000000 1.0
C      1  0.4414250000000  0.5499720000000  0.5167850000000 1.0
C      1  0.5525230000000  0.5394770000000  0.4836610000000 1.0
C      1  0.5571100000000  0.4500830000000  0.5153000000000 1.0
C      1  0.4468560000000  0.4593690000000  0.4806750000000 1.0
C      1  0.4625620000000  0.5315740000000  0.4545200000000 1.0
C      1  0.5366060000000  0.5339630000000  0.5468050000000 1.0
C      1  0.5364000000000  0.4677090000000  0.4547210000000 1.0
C      1  0.4646970000000  0.4682210000000  0.5453330000000 1.0
C      1  0.4211750000000  0.5008310000000  0.4846170000000 1.0
C      1  0.5783210000000  0.5063450000000  0.5139820000000 1.0
C      1  0.5758990000000  0.4972010000000  0.4878920000000 1.0
C      1  0.4170970000000  0.4885330000000  0.5104950000000 1.0
C      1  0.4756210000000  0.4531110000000  0.4905690000000 1.0
C      1  0.5266370000000  0.4477870000000  0.5067330000000 1.0
C      1  0.5242100000000  0.5474960000000  0.4941210000000 1.0
C      1  0.4729300000000  0.5512650000000  0.5113270000000 1.0
END
