TITL C-27134-4977-173 -0.00276831555051305 125000 -379.029969721656 0 0 60 (C1) n - 1
REM
REM in /home/nfs/bkarasulu/CARBON/AIRSS/Generating-Clusters/AIREBO/Higher-Symm/Only-C60
REM
REM
REM
REM
REM
REM ./C.cell (28575a23ae977d3b5fae324c64b13b57)
REM
REM compiler GCC version 9.2.1 20190827 (Red Hat 9.2.1-1)
REM options -cpp -mtune=generic -march=x86-64 -g -O0 -fpre-include=/usr/include/finclude/math-vector-fortran.h
REM seed -1400625785 -229418329 1300644649 -1346065391 1976498486 -674952500 -1617903365 883646148 1781187585 -666657739 1718629693 169941276 257403600 202013130 -1451775865 1780925599 -653241260 865674586 -233472171 -697255783 -1526132530 1264422540 -104936447 -900433701 1012135102 -568050232 1699647537 2070949583 712493645 1698789923 -786908987 1943879440 2123006878
REM
CELL 1.54180   50.00000   50.00000   50.00000   90.00000   90.00000   90.00000
LATT -1
SFAC C  
C      1  0.4866010000000  0.5535020000000  0.4656680000000 1.0
C      1  0.4671900000000  0.4865910000000  0.5515510000000 1.0
C      1  0.5549620000000  0.4661080000000  0.4862480000000 1.0
C      1  0.4833550000000  0.4437090000000  0.5349030000000 1.0
C      1  0.5132480000000  0.4481830000000  0.4693440000000 1.0
C      1  0.5129640000000  0.5524270000000  0.5312470000000 1.0
C      1  0.4649940000000  0.5133770000000  0.4473260000000 1.0
C      1  0.5318160000000  0.5123970000000  0.5520320000000 1.0
C      1  0.5328770000000  0.4877850000000  0.4485160000000 1.0
C      1  0.5525020000000  0.5319270000000  0.5120390000000 1.0
C      1  0.4472730000000  0.5351720000000  0.4871670000000 1.0
C      1  0.4460120000000  0.4641600000000  0.5126080000000 1.0
C      1  0.4864490000000  0.4665210000000  0.5526490000000 1.0
C      1  0.4669050000000  0.5555420000000  0.4852900000000 1.0
C      1  0.5548300000000  0.4855730000000  0.4662980000000 1.0
C      1  0.4833990000000  0.5337910000000  0.4446100000000 1.0
C      1  0.5127170000000  0.4687340000000  0.4488360000000 1.0
C      1  0.5124430000000  0.5319890000000  0.5517290000000 1.0
C      1  0.4644710000000  0.4430120000000  0.5146240000000 1.0
C      1  0.5321540000000  0.5523830000000  0.5114470000000 1.0
C      1  0.5331760000000  0.4481790000000  0.4886300000000 1.0
C      1  0.5523580000000  0.5127150000000  0.5317460000000 1.0
C      1  0.4454620000000  0.4836160000000  0.5323910000000 1.0
C      1  0.4442360000000  0.5161100000000  0.4672000000000 1.0
C      1  0.5683900000000  0.4684350000000  0.5106070000000 1.0
C      1  0.5136650000000  0.5632100000000  0.4654230000000 1.0
C      1  0.4668330000000  0.5133940000000  0.5620350000000 1.0
C      1  0.5669240000000  0.5325700000000  0.4871780000000 1.0
C      1  0.4376980000000  0.5328150000000  0.5130330000000 1.0
C      1  0.4368930000000  0.4668820000000  0.4866660000000 1.0
C      1  0.5084900000000  0.4295230000000  0.5326750000000 1.0
C      1  0.4883980000000  0.4335880000000  0.4681860000000 1.0
C      1  0.4882540000000  0.5670470000000  0.5323970000000 1.0
C      1  0.4658900000000  0.4864220000000  0.4377130000000 1.0
C      1  0.5330430000000  0.4871020000000  0.5660450000000 1.0
C      1  0.5313690000000  0.5132670000000  0.4378410000000 1.0
C      1  0.5684080000000  0.5098970000000  0.4680890000000 1.0
C      1  0.5132790000000  0.4667180000000  0.5630260000000 1.0
C      1  0.4693660000000  0.5687990000000  0.5096890000000 1.0
C      1  0.5668630000000  0.4879120000000  0.5329710000000 1.0
C      1  0.4307620000000  0.5084900000000  0.5303910000000 1.0
C      1  0.4296880000000  0.4910900000000  0.4693260000000 1.0
C      1  0.5080430000000  0.5312540000000  0.4296980000000 1.0
C      1  0.4870560000000  0.4673410000000  0.4350970000000 1.0
C      1  0.4870020000000  0.5333080000000  0.5654650000000 1.0
C      1  0.4683950000000  0.4308490000000  0.4898960000000 1.0
C      1  0.5334590000000  0.5659990000000  0.4858520000000 1.0
C      1  0.5315820000000  0.4379150000000  0.5143100000000 1.0
C      1  0.5553740000000  0.4497280000000  0.5358440000000 1.0
C      1  0.4499880000000  0.5557350000000  0.5350650000000 1.0
C      1  0.5270140000000  0.4429970000000  0.5533510000000 1.0
C      1  0.5269870000000  0.5524440000000  0.4419440000000 1.0
C      1  0.5552940000000  0.5349650000000  0.4489980000000 1.0
C      1  0.4432680000000  0.5269000000000  0.5518140000000 1.0
C      1  0.5588200000000  0.4745050000000  0.5590380000000 1.0
C      1  0.4745830000000  0.5591020000000  0.5582990000000 1.0
C      1  0.4425560000000  0.4725730000000  0.4478890000000 1.0
C      1  0.4751020000000  0.4412710000000  0.4420380000000 1.0
C      1  0.5591030000000  0.5584160000000  0.4733230000000 1.0
C      1  0.4497690000000  0.4440380000000  0.4646880000000 1.0
END
