TITL C-27138-9601-103 -0.000793716562652936 125000 -292.475391366724 0 0 60 (C1) n - 1
REM
REM in /home/nfs/bkarasulu/CARBON/AIRSS/Generating-Clusters/AIREBO/Higher-Symm/Only-C60
REM
REM
REM
REM
REM
REM ./C.cell (28575a23ae977d3b5fae324c64b13b57)
REM
REM compiler GCC version 9.2.1 20190827 (Red Hat 9.2.1-1)
REM options -cpp -mtune=generic -march=x86-64 -g -O0 -fpre-include=/usr/include/finclude/math-vector-fortran.h
REM seed 1445785308 1788288210 -1537106124 -1238143856 1412089243 1150109264 2031499160 341641142 355250163 -1574197665 -1379872628 957466653 -2117535002 654043016 -1396315552 1960694830 1298322521 675601586 1339768241 1522912206 925943326 -1911490486 -132762293 482561088 -1415969262 75088672 -1056895853 220752330 2120277781 113371506 2107095179 1708498331 1081749565
REM
CELL 1.54180   50.00000   50.00000   50.00000   90.00000   90.00000   90.00000
LATT -1
SFAC C  
C      1  0.5280330000000  0.4960880000000  0.4954090000000 1.0
C      1  0.5175340000000  0.5229580000000  0.5051850000000 1.0
C      1  0.4891270000000  0.5274630000000  0.4944240000000 1.0
C      1  0.4707470000000  0.5049750000000  0.5051140000000 1.0
C      1  0.4813770000000  0.4779680000000  0.4949950000000 1.0
C      1  0.5098490000000  0.4735820000000  0.5050080000000 1.0
C      1  0.5344640000000  0.4951000000000  0.4405950000000 1.0
C      1  0.5204540000000  0.5258670000000  0.5602090000000 1.0
C      1  0.4885450000000  0.5285880000000  0.4391800000000 1.0
C      1  0.4683320000000  0.5037730000000  0.5604320000000 1.0
C      1  0.4768580000000  0.4745650000000  0.4398620000000 1.0
C      1  0.5104890000000  0.4665940000000  0.5598290000000 1.0
C      1  0.4787080000000  0.4596470000000  0.4663190000000 1.0
C      1  0.5244680000000  0.4613210000000  0.5333220000000 1.0
C      1  0.5461240000000  0.5034760000000  0.4674280000000 1.0
C      1  0.5197330000000  0.5412540000000  0.5339690000000 1.0
C      1  0.4743290000000  0.5368330000000  0.4647710000000 1.0
C      1  0.4549450000000  0.4958120000000  0.5343220000000 1.0
C      1  0.4907980000000  0.4255700000000  0.5350270000000 1.0
C      1  0.5590330000000  0.4564580000000  0.4641410000000 1.0
C      1  0.5671850000000  0.5289090000000  0.5376400000000 1.0
C      1  0.5099370000000  0.5732400000000  0.4645020000000 1.0
C      1  0.4412120000000  0.5447820000000  0.5345760000000 1.0
C      1  0.4310040000000  0.4710260000000  0.4644000000000 1.0
C      1  0.4223000000000  0.4435190000000  0.4587680000000 1.0
C      1  0.5106970000000  0.4048450000000  0.5411880000000 1.0
C      1  0.5870680000000  0.4628330000000  0.4580420000000 1.0
C      1  0.5753260000000  0.5561440000000  0.5450830000000 1.0
C      1  0.4891780000000  0.5850920000000  0.4445070000000 1.0
C      1  0.4191110000000  0.5330720000000  0.5530650000000 1.0
C      1  0.4748610000000  0.5701420000000  0.4715010000000 1.0
C      1  0.4266600000000  0.5128380000000  0.5267830000000 1.0
C      1  0.4519120000000  0.4406730000000  0.4734860000000 1.0
C      1  0.5273690000000  0.4288010000000  0.5253450000000 1.0
C      1  0.5754500000000  0.4889370000000  0.4749580000000 1.0
C      1  0.5471760000000  0.5596500000000  0.5278270000000 1.0
C      1  0.4595290000000  0.4547520000000  0.5008370000000 1.0
C      1  0.5185880000000  0.4430690000000  0.4984660000000 1.0
C      1  0.5587750000000  0.4881580000000  0.5018950000000 1.0
C      1  0.5402500000000  0.5458260000000  0.5002000000000 1.0
C      1  0.4819590000000  0.5584300000000  0.5009030000000 1.0
C      1  0.4406140000000  0.5138760000000  0.4976020000000 1.0
C      1  0.4593740000000  0.4121850000000  0.4725560000000 1.0
C      1  0.5557500000000  0.4207930000000  0.5250980000000 1.0
C      1  0.5970500000000  0.5089860000000  0.4757150000000 1.0
C      1  0.5405680000000  0.5883910000000  0.5279790000000 1.0
C      1  0.4491200000000  0.5829870000000  0.4739410000000 1.0
C      1  0.4030310000000  0.4964140000000  0.5237460000000 1.0
C      1  0.5660400000000  0.5032950000000  0.5301780000000 1.0
C      1  0.5313370000000  0.5606220000000  0.4721760000000 1.0
C      1  0.4631620000000  0.5570040000000  0.5279300000000 1.0
C      1  0.4324130000000  0.4969300000000  0.4706590000000 1.0
C      1  0.4690050000000  0.4394770000000  0.5283210000000 1.0
C      1  0.5359680000000  0.4446290000000  0.4706210000000 1.0
C      1  0.5483340000000  0.5338110000000  0.4699030000000 1.0
C      1  0.4947690000000  0.5587570000000  0.5316220000000 1.0
C      1  0.4463700000000  0.5252940000000  0.4669470000000 1.0
C      1  0.4515970000000  0.4658850000000  0.5314710000000 1.0
C      1  0.5042950000000  0.4430410000000  0.4680830000000 1.0
C      1  0.5517080000000  0.4749900000000  0.5319450000000 1.0
END
