TITL C-27131-4585-75 -0.000992824991648297 125000 -309.093661424024 0 0 60 (C1) n - 1
REM
REM in /home/nfs/bkarasulu/CARBON/AIRSS/Generating-Clusters/AIREBO/Higher-Symm/Only-C60
REM
REM
REM
REM
REM
REM ./C.cell (28575a23ae977d3b5fae324c64b13b57)
REM
REM compiler GCC version 9.2.1 20190827 (Red Hat 9.2.1-1)
REM options -cpp -mtune=generic -march=x86-64 -g -O0 -fpre-include=/usr/include/finclude/math-vector-fortran.h
REM seed -794911852 -944175142 929171613 1548734043 1071260300 -2133863260 -768913137 224230635 -1934993535 152243313 -1099186055 -1586291539 1588695318 -1697544079 551401789 -827672798 1820774207 -1350508162 561800694 -1473614395 -529659755 -1603964601 -1197237330 1198039990 875209389 -2036336734 -1284963604 -252401078 192635212 1364271959 -2115771393 -44025477 -1760373975
REM
CELL 1.54180   50.00000   50.00000   50.00000   90.00000   90.00000   90.00000
LATT -1
SFAC C  
C      1  0.5616190000000  0.5194300000000  0.5204850000000 1.0
C      1  0.5025540000000  0.5031140000000  0.5817610000000 1.0
C      1  0.5139560000000  0.5738230000000  0.5133910000000 1.0
C      1  0.4278260000000  0.4917470000000  0.5174430000000 1.0
C      1  0.5658990000000  0.4771480000000  0.4734640000000 1.0
C      1  0.4261070000000  0.5102600000000  0.4889670000000 1.0
C      1  0.4846930000000  0.4793590000000  0.5744930000000 1.0
C      1  0.5111770000000  0.4843310000000  0.4213290000000 1.0
C      1  0.4901380000000  0.5112160000000  0.4226040000000 1.0
C      1  0.4877630000000  0.4301180000000  0.5040070000000 1.0
C      1  0.5164300000000  0.4293110000000  0.4870670000000 1.0
C      1  0.4869420000000  0.5759680000000  0.4927620000000 1.0
C      1  0.5187420000000  0.5528560000000  0.4892030000000 1.0
C      1  0.5528720000000  0.4889600000000  0.5229190000000 1.0
C      1  0.4865570000000  0.5205470000000  0.5615520000000 1.0
C      1  0.4818140000000  0.4565530000000  0.4825930000000 1.0
C      1  0.5248900000000  0.4491980000000  0.5278690000000 1.0
C      1  0.4780040000000  0.5581200000000  0.5203070000000 1.0
C      1  0.4449560000000  0.5204520000000  0.5241470000000 1.0
C      1  0.5632180000000  0.5091080000000  0.4698200000000 1.0
C      1  0.4524890000000  0.4888260000000  0.4862880000000 1.0
C      1  0.5240450000000  0.4739980000000  0.5460800000000 1.0
C      1  0.4845820000000  0.4762320000000  0.4411190000000 1.0
C      1  0.5180870000000  0.5192130000000  0.4396370000000 1.0
C      1  0.5100080000000  0.5613770000000  0.5427400000000 1.0
C      1  0.5522520000000  0.5338920000000  0.4989270000000 1.0
C      1  0.5252320000000  0.5094360000000  0.5634870000000 1.0
C      1  0.4878400000000  0.4392360000000  0.5367960000000 1.0
C      1  0.5156220000000  0.4447830000000  0.4630110000000 1.0
C      1  0.4862200000000  0.5526300000000  0.4680040000000 1.0
C      1  0.4408640000000  0.4629420000000  0.5138260000000 1.0
C      1  0.5493680000000  0.4645670000000  0.4910340000000 1.0
C      1  0.4510860000000  0.5319740000000  0.4866920000000 1.0
C      1  0.4607230000000  0.4900660000000  0.5618390000000 1.0
C      1  0.5437070000000  0.4862850000000  0.4253770000000 1.0
C      1  0.4648130000000  0.5094180000000  0.4447420000000 1.0
C      1  0.4578570000000  0.5586360000000  0.4953730000000 1.0
C      1  0.5674480000000  0.4900980000000  0.4434870000000 1.0
C      1  0.4988890000000  0.4605290000000  0.5575750000000 1.0
C      1  0.5369370000000  0.4406630000000  0.5039220000000 1.0
C      1  0.4572620000000  0.4440500000000  0.4983780000000 1.0
C      1  0.5451100000000  0.5634820000000  0.5029560000000 1.0
C      1  0.4424190000000  0.5040420000000  0.4597880000000 1.0
C      1  0.5517910000000  0.5084410000000  0.5494380000000 1.0
C      1  0.4373030000000  0.5007240000000  0.5486540000000 1.0
C      1  0.4915610000000  0.5483580000000  0.5615150000000 1.0
C      1  0.4920080000000  0.5386930000000  0.4429790000000 1.0
C      1  0.5072360000000  0.4545770000000  0.4373130000000 1.0
C      1  0.5092190000000  0.4755600000000  0.4759770000000 1.0
C      1  0.4695550000000  0.4810590000000  0.5116240000000 1.0
C      1  0.4912050000000  0.5013490000000  0.4630640000000 1.0
C      1  0.4988780000000  0.5256680000000  0.4844260000000 1.0
C      1  0.5009430000000  0.5333290000000  0.5257850000000 1.0
C      1  0.4970370000000  0.4661270000000  0.5181230000000 1.0
C      1  0.5312410000000  0.5174810000000  0.4777900000000 1.0
C      1  0.4749310000000  0.5204780000000  0.5080460000000 1.0
C      1  0.5242980000000  0.4822580000000  0.5057270000000 1.0
C      1  0.5296300000000  0.4933870000000  0.4555000000000 1.0
C      1  0.4774010000000  0.5008380000000  0.5357130000000 1.0
C      1  0.5167460000000  0.5036780000000  0.5310630000000 1.0
END
