TITL C-27135-6010-47 -0.00139651573902746 125000 -319.788901084763 0 0 60 (C2) n - 1
REM
REM in /home/nfs/bkarasulu/CARBON/AIRSS/Generating-Clusters/AIREBO/Higher-Symm/Only-C60
REM
REM
REM
REM
REM
REM ./C.cell (28575a23ae977d3b5fae324c64b13b57)
REM
REM compiler GCC version 9.2.1 20190827 (Red Hat 9.2.1-1)
REM options -cpp -mtune=generic -march=x86-64 -g -O0 -fpre-include=/usr/include/finclude/math-vector-fortran.h
REM seed -338144791 1184323241 1641189444 1232027693 483242162 -815179429 199006745 -1305619414 -1933654196 -2091698408 -1339240898 -520438918 -584570169 792030281 -1240765535 1406326886 728469889 -452262363 -1855760126 -1681836802 898941302 -1967165802 740347667 -189047227 502763403 -813594627 -1062586194 -218587266 506639561 -649088935 -409222976 1087822575 -1919511228
REM
CELL 1.54180   50.00000   50.00000   50.00000   90.00000   90.00000   90.00000
LATT -1
SFAC C  
C      1  0.4429740000000  0.4683800000000  0.5275270000000 1.0
C      1  0.4535510000000  0.4989650000000  0.5379620000000 1.0
C      1  0.4500940000000  0.5379160000000  0.5047770000000 1.0
C      1  0.4429520000000  0.5315710000000  0.4724600000000 1.0
C      1  0.4535580000000  0.5009960000000  0.4620270000000 1.0
C      1  0.4501260000000  0.4620470000000  0.4952110000000 1.0
C      1  0.4629420000000  0.5700100000000  0.4936990000000 1.0
C      1  0.4667590000000  0.5356920000000  0.4485240000000 1.0
C      1  0.4621260000000  0.4708590000000  0.4490040000000 1.0
C      1  0.4629920000000  0.4299600000000  0.5062870000000 1.0
C      1  0.4667770000000  0.4642810000000  0.5514690000000 1.0
C      1  0.4620900000000  0.5291090000000  0.5509850000000 1.0
C      1  0.4955930000000  0.4745630000000  0.5164210000000 1.0
C      1  0.4856570000000  0.5047990000000  0.5283900000000 1.0
C      1  0.4805570000000  0.5287150000000  0.5085490000000 1.0
C      1  0.4955770000000  0.5254340000000  0.4835810000000 1.0
C      1  0.4856690000000  0.4951890000000  0.4716110000000 1.0
C      1  0.4805830000000  0.4712690000000  0.4914490000000 1.0
C      1  0.5196470000000  0.4944880000000  0.4763590000000 1.0
C      1  0.5469540000000  0.4764480000000  0.4848150000000 1.0
C      1  0.5279690000000  0.4776960000000  0.5114800000000 1.0
C      1  0.5196350000000  0.5055300000000  0.5236450000000 1.0
C      1  0.5469340000000  0.5235890000000  0.5151970000000 1.0
C      1  0.5279530000000  0.5223270000000  0.4885280000000 1.0
C      1  0.5354880000000  0.4468600000000  0.4820360000000 1.0
C      1  0.5358910000000  0.4540080000000  0.5328790000000 1.0
C      1  0.5359420000000  0.5113410000000  0.5521530000000 1.0
C      1  0.5354450000000  0.5531690000000  0.5179720000000 1.0
C      1  0.5358650000000  0.5460210000000  0.4671310000000 1.0
C      1  0.5359620000000  0.4886900000000  0.4478550000000 1.0
C      1  0.4405220000000  0.4629450000000  0.4683100000000 1.0
C      1  0.4403230000000  0.4369920000000  0.5242380000000 1.0
C      1  0.4431150000000  0.4809770000000  0.5651020000000 1.0
C      1  0.4404860000000  0.5370140000000  0.5316770000000 1.0
C      1  0.4402840000000  0.5629600000000  0.4757430000000 1.0
C      1  0.4431140000000  0.5189760000000  0.4348850000000 1.0
C      1  0.4936900000000  0.5401860000000  0.5450390000000 1.0
C      1  0.4953610000000  0.5642900000000  0.4928840000000 1.0
C      1  0.4968610000000  0.5215700000000  0.4438020000000 1.0
C      1  0.4937300000000  0.4598110000000  0.4549550000000 1.0
C      1  0.4954050000000  0.4357080000000  0.5071130000000 1.0
C      1  0.4968660000000  0.4784270000000  0.5562000000000 1.0
C      1  0.5240650000000  0.5400020000000  0.5432940000000 1.0
C      1  0.5254410000000  0.5618620000000  0.4931950000000 1.0
C      1  0.5278370000000  0.5217010000000  0.4485520000000 1.0
C      1  0.5241050000000  0.4600190000000  0.4567110000000 1.0
C      1  0.5254850000000  0.4381600000000  0.5068110000000 1.0
C      1  0.5278410000000  0.4783250000000  0.5514560000000 1.0
C      1  0.5883180000000  0.4749110000000  0.5105850000000 1.0
C      1  0.5871090000000  0.4971510000000  0.5276460000000 1.0
C      1  0.5761500000000  0.5201920000000  0.5148800000000 1.0
C      1  0.5883020000000  0.5251560000000  0.4894370000000 1.0
C      1  0.5871140000000  0.5029150000000  0.4723760000000 1.0
C      1  0.5761690000000  0.4798660000000  0.4851390000000 1.0
C      1  0.4787440000000  0.4402480000000  0.4778160000000 1.0
C      1  0.4908290000000  0.4489000000000  0.5375110000000 1.0
C      1  0.4894800000000  0.5108020000000  0.5616420000000 1.0
C      1  0.4786940000000  0.5597370000000  0.5221760000000 1.0
C      1  0.4907950000000  0.5510920000000  0.4624890000000 1.0
C      1  0.4895030000000  0.4891880000000  0.4383560000000 1.0
END
