TITL C-27144-3922-50 0.000109442892797454 125000 -334.310585780121 0 0 60 (C3) n - 1
REM
REM in /home/nfs/bkarasulu/CARBON/AIRSS/Generating-Clusters/AIREBO/Higher-Symm/Only-C60
REM
REM
REM
REM
REM
REM ./C.cell (28575a23ae977d3b5fae324c64b13b57)
REM
REM compiler GCC version 9.2.1 20190827 (Red Hat 9.2.1-1)
REM options -cpp -mtune=generic -march=x86-64 -g -O0 -fpre-include=/usr/include/finclude/math-vector-fortran.h
REM seed -221012738 -722413250 -667693353 -746715034 -873264758 -833350617 1050491713 -331817066 -1725858924 477461306 1265021502 -1540346448 -1060467954 -46743863 1143456275 1590943949 190124499 765859582 1490409058 1418626467 1649282475 -406159186 -592379256 -1566877114 -1643494866 -801603997 -559019733 1724205465 2133353594 1624292563 -1787619370 515068132 436395238
REM
CELL 1.54180   50.00000   50.00000   50.00000   90.00000   90.00000   90.00000
LATT -1
SFAC C  
C      1  0.4843900000000  0.5147650000000  0.5674700000000 1.0
C      1  0.5662340000000  0.5147700000000  0.4797810000000 1.0
C      1  0.4493710000000  0.5147560000000  0.4527470000000 1.0
C      1  0.5112360000000  0.5117280000000  0.5727730000000 1.0
C      1  0.4313560000000  0.5117140000000  0.4733450000000 1.0
C      1  0.5574040000000  0.5117280000000  0.4538810000000 1.0
C      1  0.5784310000000  0.4620300000000  0.5093370000000 1.0
C      1  0.4688750000000  0.4620140000000  0.4274140000000 1.0
C      1  0.4527060000000  0.4620190000000  0.5632540000000 1.0
C      1  0.4190040000000  0.4628440000000  0.5073130000000 1.0
C      1  0.5341720000000  0.4628530000000  0.4261980000000 1.0
C      1  0.5468360000000  0.4628610000000  0.5664940000000 1.0
C      1  0.4731020000000  0.5550650000000  0.5007240000000 1.0
C      1  0.5140690000000  0.5550710000000  0.5229230000000 1.0
C      1  0.5128110000000  0.5550690000000  0.4763450000000 1.0
C      1  0.5290200000000  0.5593870000000  0.4993940000000 1.0
C      1  0.4860030000000  0.5593840000000  0.5254370000000 1.0
C      1  0.4849570000000  0.5593820000000  0.4751610000000 1.0
C      1  0.5122670000000  0.4636570000000  0.4717650000000 1.0
C      1  0.4694190000000  0.4636540000000  0.5035000000000 1.0
C      1  0.5183260000000  0.4636600000000  0.5247400000000 1.0
C      1  0.4795890000000  0.4594100000000  0.4768200000000 1.0
C      1  0.5302890000000  0.4594160000000  0.4939120000000 1.0
C      1  0.4901360000000  0.4594140000000  0.5292730000000 1.0
C      1  0.4251270000000  0.4912820000000  0.4998010000000 1.0
C      1  0.5372650000000  0.4912970000000  0.5649430000000 1.0
C      1  0.5376110000000  0.4912920000000  0.4352580000000 1.0
C      1  0.5770300000000  0.4927160000000  0.5018660000000 1.0
C      1  0.4598700000000  0.4927060000000  0.5657770000000 1.0
C      1  0.4631020000000  0.4927000000000  0.4323580000000 1.0
C      1  0.5160040000000  0.4929740000000  0.4583480000000 1.0
C      1  0.4559280000000  0.4929700000000  0.5069670000000 1.0
C      1  0.5280710000000  0.4929790000000  0.5346850000000 1.0
C      1  0.4828350000000  0.4877020000000  0.4593340000000 1.0
C      1  0.5438030000000  0.4877110000000  0.5054670000000 1.0
C      1  0.4733660000000  0.4877040000000  0.5352010000000 1.0
C      1  0.5157100000000  0.5233260000000  0.5280640000000 1.0
C      1  0.5164470000000  0.5233240000000  0.4723590000000 1.0
C      1  0.4678360000000  0.5233200000000  0.4995740000000 1.0
C      1  0.4845300000000  0.5175570000000  0.5276850000000 1.0
C      1  0.4837560000000  0.5175550000000  0.4727610000000 1.0
C      1  0.5317080000000  0.5175610000000  0.4995520000000 1.0
C      1  0.5315510000000  0.5298510000000  0.5574330000000 1.0
C      1  0.5339600000000  0.5298460000000  0.4439550000000 1.0
C      1  0.4344800000000  0.5298370000000  0.4986080000000 1.0
C      1  0.4730390000000  0.5412180000000  0.5492380000000 1.0
C      1  0.4708310000000  0.5412140000000  0.4520330000000 1.0
C      1  0.5561170000000  0.5412250000000  0.4987230000000 1.0
C      1  0.5154620000000  0.4496240000000  0.4413970000000 1.0
C      1  0.4415240000000  0.4496190000000  0.5159190000000 1.0
C      1  0.5430310000000  0.4496310000000  0.5426910000000 1.0
C      1  0.4857380000000  0.4503710000000  0.4453160000000 1.0
C      1  0.5544990000000  0.4503820000000  0.5149890000000 1.0
C      1  0.4597800000000  0.4503730000000  0.5397020000000 1.0
C      1  0.5573220000000  0.5169770000000  0.5474150000000 1.0
C      1  0.5123990000000  0.5169670000000  0.4266480000000 1.0
C      1  0.4302730000000  0.5169620000000  0.5259350000000 1.0
C      1  0.4491410000000  0.5175220000000  0.5462150000000 1.0
C      1  0.4854020000000  0.5175210000000  0.4328480000000 1.0
C      1  0.5654510000000  0.5175340000000  0.5209340000000 1.0
END
