TITL C-27133-8107-193 0.000220425143370829 125000 -331.377007570527 0 0 60 (C1) n - 1
REM
REM in /home/nfs/bkarasulu/CARBON/AIRSS/Generating-Clusters/AIREBO/Higher-Symm/Only-C60
REM
REM
REM
REM
REM
REM ./C.cell (28575a23ae977d3b5fae324c64b13b57)
REM
REM compiler GCC version 9.2.1 20190827 (Red Hat 9.2.1-1)
REM options -cpp -mtune=generic -march=x86-64 -g -O0 -fpre-include=/usr/include/finclude/math-vector-fortran.h
REM seed -1415988377 1483855503 487127575 -1972417415 -1980704931 1832713017 123512312 -1217354121 -818480148 -1648968265 -1022659693 -971039351 -1752785803 125414392 -1077947040 -1824670185 -590391357 788446182 -825596180 2050805085 694096420 1545310919 1195145868 -351969723 1844694114 -1738466813 -1113965146 -1590850910 -1304325671 1060533078 433199705 830839730 -1073806468
REM
CELL 1.54180   50.00000   50.00000   50.00000   90.00000   90.00000   90.00000
LATT -1
SFAC C  
C      1  0.4763530000000  0.5550360000000  0.5053650000000 1.0
C      1  0.4644480000000  0.4408340000000  0.4890270000000 1.0
C      1  0.5252080000000  0.5351990000000  0.4993970000000 1.0
C      1  0.5323110000000  0.4633950000000  0.4995950000000 1.0
C      1  0.4835960000000  0.5278200000000  0.5199770000000 1.0
C      1  0.4691130000000  0.4656960000000  0.4695130000000 1.0
C      1  0.5162750000000  0.5277620000000  0.5294550000000 1.0
C      1  0.5359880000000  0.4807020000000  0.4727970000000 1.0
C      1  0.5527860000000  0.4844940000000  0.5267160000000 1.0
C      1  0.5570600000000  0.5295270000000  0.4762060000000 1.0
C      1  0.4311450000000  0.4866600000000  0.5215450000000 1.0
C      1  0.4466320000000  0.5127820000000  0.4774560000000 1.0
C      1  0.4341570000000  0.5130590000000  0.5512810000000 1.0
C      1  0.4261970000000  0.4833110000000  0.4476440000000 1.0
C      1  0.5644810000000  0.5118010000000  0.5534590000000 1.0
C      1  0.5812080000000  0.4933590000000  0.4531040000000 1.0
C      1  0.5191300000000  0.4837300000000  0.5217780000000 1.0
C      1  0.5294450000000  0.5119190000000  0.4744660000000 1.0
C      1  0.4897270000000  0.4966490000000  0.5105300000000 1.0
C      1  0.4740750000000  0.4960140000000  0.4802930000000 1.0
C      1  0.4319820000000  0.5096320000000  0.4536310000000 1.0
C      1  0.4114570000000  0.4978090000000  0.5469280000000 1.0
C      1  0.5768210000000  0.5207850000000  0.4519120000000 1.0
C      1  0.5750520000000  0.4866940000000  0.5531690000000 1.0
C      1  0.5609880000000  0.4489530000000  0.5104470000000 1.0
C      1  0.5483020000000  0.5601450000000  0.5003870000000 1.0
C      1  0.4370260000000  0.4406700000000  0.4999250000000 1.0
C      1  0.4477260000000  0.5541060000000  0.4976840000000 1.0
C      1  0.5277030000000  0.5457020000000  0.4526240000000 1.0
C      1  0.5215930000000  0.4482410000000  0.5401540000000 1.0
C      1  0.4723280000000  0.5490770000000  0.4600900000000 1.0
C      1  0.4690340000000  0.4549680000000  0.5315780000000 1.0
C      1  0.5101710000000  0.4424390000000  0.5133540000000 1.0
C      1  0.5169720000000  0.5552930000000  0.4769350000000 1.0
C      1  0.4828430000000  0.4402680000000  0.5109870000000 1.0
C      1  0.4900710000000  0.5602520000000  0.4800800000000 1.0
C      1  0.4537010000000  0.5124300000000  0.5256070000000 1.0
C      1  0.4363870000000  0.4661620000000  0.4675720000000 1.0
C      1  0.5489090000000  0.5182790000000  0.5265990000000 1.0
C      1  0.5670900000000  0.4801130000000  0.4734640000000 1.0
C      1  0.4411570000000  0.5267330000000  0.5004970000000 1.0
C      1  0.4225860000000  0.4681630000000  0.4941820000000 1.0
C      1  0.5643740000000  0.5343180000000  0.5062650000000 1.0
C      1  0.5727570000000  0.4753650000000  0.5001500000000 1.0
C      1  0.5154980000000  0.5399390000000  0.5581260000000 1.0
C      1  0.5175210000000  0.4661470000000  0.4524850000000 1.0
C      1  0.5142500000000  0.5361330000000  0.5834450000000 1.0
C      1  0.4933350000000  0.4607460000000  0.4509320000000 1.0
C      1  0.4461610000000  0.5604590000000  0.4684260000000 1.0
C      1  0.4415770000000  0.4564190000000  0.5266810000000 1.0
C      1  0.5569190000000  0.5451700000000  0.4459370000000 1.0
C      1  0.5489570000000  0.4527690000000  0.5383560000000 1.0
C      1  0.5074990000000  0.4721100000000  0.5540760000000 1.0
C      1  0.5126030000000  0.5186480000000  0.4478030000000 1.0
C      1  0.4829500000000  0.4782840000000  0.5371870000000 1.0
C      1  0.4795550000000  0.5189690000000  0.4557850000000 1.0
C      1  0.4974940000000  0.5061930000000  0.4225240000000 1.0
C      1  0.5096260000000  0.4823510000000  0.5815580000000 1.0
C      1  0.4700310000000  0.5066480000000  0.4254510000000 1.0
C      1  0.5096600000000  0.5026680000000  0.5974020000000 1.0
END
