TITL C-27136-4842-7 5.56947837102124e-05 125000 -314.504471460827 0 0 60 (C1) n - 1
REM
REM in /home/nfs/bkarasulu/CARBON/AIRSS/Generating-Clusters/AIREBO/Higher-Symm/Only-C60
REM
REM
REM
REM
REM
REM ./C.cell (28575a23ae977d3b5fae324c64b13b57)
REM
REM compiler GCC version 9.2.1 20190827 (Red Hat 9.2.1-1)
REM options -cpp -mtune=generic -march=x86-64 -g -O0 -fpre-include=/usr/include/finclude/math-vector-fortran.h
REM seed -797775946 760977051 -1263046540 1519708568 134388319 -346400524 -523456835 -2021460715 -2014835678 1923842008 -752326196 1262449602 1432817681 -375858444 -105841055 -1709665310 -1796750973 1835995644 -504436366 -893779204 -1623830846 201626755 766465460 -112671515 695183247 -713737538 1011127659 -1412968014 -845351381 -1619221636 1474949992 -473289904 -1547450909
REM
CELL 1.54180   50.00000   50.00000   50.00000   90.00000   90.00000   90.00000
LATT -1
SFAC C  
C      1  0.5006900000000  0.4633450000000  0.4923410000000 1.0
C      1  0.5269140000000  0.5182420000000  0.4967210000000 1.0
C      1  0.4634400000000  0.5133570000000  0.4926280000000 1.0
C      1  0.5065190000000  0.5399960000000  0.4919920000000 1.0
C      1  0.5223940000000  0.4862390000000  0.4925890000000 1.0
C      1  0.4669140000000  0.4800820000000  0.4863860000000 1.0
C      1  0.4971890000000  0.5304350000000  0.4249320000000 1.0
C      1  0.4706190000000  0.4906430000000  0.4203670000000 1.0
C      1  0.5182680000000  0.4859140000000  0.4337540000000 1.0
C      1  0.4945260000000  0.4725840000000  0.4217460000000 1.0
C      1  0.4756370000000  0.5173830000000  0.4123270000000 1.0
C      1  0.5217450000000  0.5137190000000  0.4311920000000 1.0
C      1  0.4939310000000  0.5436730000000  0.5233730000000 1.0
C      1  0.4689700000000  0.4772230000000  0.5202090000000 1.0
C      1  0.5400600000000  0.4825840000000  0.5215680000000 1.0
C      1  0.4958620000000  0.4576360000000  0.5240750000000 1.0
C      1  0.4679560000000  0.5241110000000  0.5230270000000 1.0
C      1  0.5365380000000  0.5157880000000  0.5279890000000 1.0
C      1  0.5751700000000  0.5134050000000  0.5188230000000 1.0
C      1  0.4524720000000  0.5605530000000  0.5176630000000 1.0
C      1  0.4777130000000  0.4226820000000  0.5188870000000 1.0
C      1  0.5794700000000  0.4836050000000  0.5155810000000 1.0
C      1  0.4532120000000  0.4405230000000  0.5215130000000 1.0
C      1  0.4767980000000  0.5787190000000  0.5151990000000 1.0
C      1  0.5298910000000  0.5303880000000  0.5579740000000 1.0
C      1  0.4578970000000  0.5150330000000  0.5537790000000 1.0
C      1  0.5123320000000  0.4555790000000  0.5537610000000 1.0
C      1  0.5347710000000  0.4685360000000  0.5521000000000 1.0
C      1  0.4558710000000  0.4864930000000  0.5502320000000 1.0
C      1  0.5067830000000  0.5449360000000  0.5548600000000 1.0
C      1  0.4944120000000  0.5716500000000  0.4948280000000 1.0
C      1  0.4474930000000  0.4538710000000  0.4960200000000 1.0
C      1  0.5731910000000  0.4738030000000  0.4895770000000 1.0
C      1  0.4925870000000  0.4304290000000  0.4949710000000 1.0
C      1  0.4484620000000  0.5438560000000  0.4944380000000 1.0
C      1  0.5603850000000  0.5242660000000  0.4971140000000 1.0
C      1  0.5353660000000  0.5265620000000  0.4545310000000 1.0
C      1  0.4773790000000  0.5130010000000  0.4642350000000 1.0
C      1  0.4957820000000  0.4593870000000  0.4530550000000 1.0
C      1  0.5254930000000  0.4734570000000  0.4625500000000 1.0
C      1  0.4729200000000  0.4846590000000  0.4529180000000 1.0
C      1  0.5020740000000  0.5355840000000  0.4581890000000 1.0
C      1  0.5217890000000  0.5631700000000  0.5226550000000 1.0
C      1  0.4372610000000  0.4883210000000  0.5149490000000 1.0
C      1  0.5445110000000  0.4498440000000  0.5156670000000 1.0
C      1  0.5227580000000  0.4372490000000  0.5198330000000 1.0
C      1  0.4357750000000  0.5132680000000  0.5209570000000 1.0
C      1  0.5429980000000  0.5489060000000  0.5237240000000 1.0
C      1  0.4642870000000  0.5442520000000  0.4678720000000 1.0
C      1  0.4822510000000  0.4364140000000  0.4675320000000 1.0
C      1  0.5553810000000  0.5135020000000  0.4691930000000 1.0
C      1  0.4537210000000  0.4388330000000  0.4710720000000 1.0
C      1  0.4862360000000  0.5644260000000  0.4667680000000 1.0
C      1  0.5552370000000  0.4846400000000  0.4699340000000 1.0
C      1  0.5622940000000  0.5194760000000  0.5500860000000 1.0
C      1  0.4506710000000  0.5479060000000  0.5491750000000 1.0
C      1  0.4820160000000  0.4392810000000  0.5490390000000 1.0
C      1  0.5637830000000  0.4862390000000  0.5456540000000 1.0
C      1  0.4531130000000  0.4557840000000  0.5496590000000 1.0
C      1  0.4798210000000  0.5645580000000  0.5462150000000 1.0
END
