TITL C-27132-7279-24 3.97257948453825e-05 125000 -337.062817764742 0 0 60 (C2) n - 1
REM
REM in /home/nfs/bkarasulu/CARBON/AIRSS/Generating-Clusters/AIREBO/Higher-Symm/Only-C60
REM
REM
REM
REM
REM
REM ./C.cell (28575a23ae977d3b5fae324c64b13b57)
REM
REM compiler GCC version 9.2.1 20190827 (Red Hat 9.2.1-1)
REM options -cpp -mtune=generic -march=x86-64 -g -O0 -fpre-include=/usr/include/finclude/math-vector-fortran.h
REM seed -640301720 973773908 1292923151 -1749907581 7512352 300587754 1296912051 -1509586975 -2108402669 -894095085 -569582104 -22342680 -522099411 2007516350 -797216703 1954898577 -536534791 -712215941 -1284701265 1136563447 -2078867947 429860548 -919552795 1742127689 340802720 326268764 -979935818 -1843883730 1932420480 -1425816210 741001755 -1031807869 -1204833830
REM
CELL 1.54180   50.00000   50.00000   50.00000   90.00000   90.00000   90.00000
LATT -1
SFAC C  
C      1  0.3745910000000  0.4581550000000  0.4265640000000 1.0
C      1  0.4592970000000  0.6181840000000  0.4160830000000 1.0
C      1  0.6255890000000  0.5419970000000  0.4252880000000 1.0
C      1  0.5408350000000  0.3811710000000  0.4178080000000 1.0
C      1  0.3743950000000  0.5419410000000  0.5749580000000 1.0
C      1  0.4592110000000  0.3811480000000  0.5824230000000 1.0
C      1  0.6254250000000  0.4581970000000  0.5736750000000 1.0
C      1  0.5406570000000  0.6181920000000  0.5841690000000 1.0
C      1  0.3988890000000  0.4659580000000  0.4325410000000 1.0
C      1  0.4671670000000  0.5947650000000  0.4248370000000 1.0
C      1  0.6013780000000  0.5341810000000  0.4315940000000 1.0
C      1  0.5330110000000  0.4047340000000  0.4262100000000 1.0
C      1  0.3986090000000  0.5341360000000  0.5686520000000 1.0
C      1  0.4670260000000  0.4047140000000  0.5740230000000 1.0
C      1  0.6011240000000  0.4659910000000  0.5676980000000 1.0
C      1  0.5327970000000  0.5947710000000  0.5754140000000 1.0
C      1  0.5162990000000  0.5497480000000  0.5548790000000 1.0
C      1  0.5540020000000  0.4824430000000  0.5525210000000 1.0
C      1  0.4834450000000  0.4500690000000  0.5541670000000 1.0
C      1  0.4455250000000  0.5176960000000  0.5528370000000 1.0
C      1  0.5165750000000  0.4500800000000  0.4460710000000 1.0
C      1  0.5544680000000  0.5177220000000  0.4474070000000 1.0
C      1  0.4836820000000  0.5497460000000  0.4453680000000 1.0
C      1  0.4460050000000  0.4824270000000  0.4477190000000 1.0
C      1  0.4768060000000  0.5722420000000  0.4352910000000 1.0
C      1  0.5778820000000  0.5245670000000  0.4396560000000 1.0
C      1  0.5234100000000  0.4274290000000  0.4363210000000 1.0
C      1  0.4224960000000  0.4755790000000  0.4402640000000 1.0
C      1  0.4766180000000  0.4274140000000  0.5639140000000 1.0
C      1  0.5775140000000  0.4756040000000  0.5599760000000 1.0
C      1  0.5231660000000  0.5722450000000  0.5649570000000 1.0
C      1  0.4221080000000  0.5245310000000  0.5605880000000 1.0
C      1  0.5099560000000  0.5306040000000  0.5277790000000 1.0
C      1  0.5323860000000  0.4893570000000  0.5276060000000 1.0
C      1  0.4898000000000  0.4695550000000  0.5272970000000 1.0
C      1  0.4669030000000  0.5110390000000  0.5276780000000 1.0
C      1  0.5102120000000  0.4695620000000  0.4729420000000 1.0
C      1  0.5330930000000  0.5110550000000  0.4725650000000 1.0
C      1  0.4900330000000  0.5306030000000  0.4724660000000 1.0
C      1  0.4676180000000  0.4893470000000  0.4726350000000 1.0
C      1  0.4815710000000  0.5349390000000  0.5123250000000 1.0
C      1  0.5348640000000  0.5177070000000  0.5119530000000 1.0
C      1  0.5182480000000  0.4653440000000  0.5118980000000 1.0
C      1  0.4648150000000  0.4827790000000  0.5119690000000 1.0
C      1  0.4817650000000  0.4653380000000  0.4883410000000 1.0
C      1  0.5351920000000  0.4827930000000  0.4882710000000 1.0
C      1  0.5184160000000  0.5349470000000  0.4879200000000 1.0
C      1  0.4651290000000  0.5176950000000  0.4882910000000 1.0
C      1  0.4939140000000  0.5188110000000  0.4418420000000 1.0
C      1  0.5240570000000  0.5078840000000  0.4407370000000 1.0
C      1  0.5065480000000  0.4810190000000  0.4421290000000 1.0
C      1  0.4764060000000  0.4919780000000  0.4406670000000 1.0
C      1  0.4934590000000  0.4810110000000  0.5581120000000 1.0
C      1  0.5235970000000  0.4919820000000  0.5595740000000 1.0
C      1  0.5060780000000  0.5188080000000  0.5584020000000 1.0
C      1  0.4759400000000  0.5078690000000  0.5595060000000 1.0
C      1  0.5593370000000  0.5002240000000  0.5004400000000 1.0
C      1  0.5000110000000  0.4423010000000  0.5001180000000 1.0
C      1  0.4406630000000  0.5002010000000  0.4998020000000 1.0
C      1  0.4999890000000  0.5574730000000  0.5001240000000 1.0
END
