TITL C-27145-253-73 0.00041317931956566 125000 -352.526604992355 0 0 60 (C3i) n - 1
REM
REM in /home/nfs/bkarasulu/CARBON/AIRSS/Generating-Clusters/AIREBO/Higher-Symm/Only-C60
REM
REM
REM
REM
REM
REM ./C.cell (28575a23ae977d3b5fae324c64b13b57)
REM
REM compiler GCC version 9.2.1 20190827 (Red Hat 9.2.1-1)
REM options -cpp -mtune=generic -march=x86-64 -g -O0 -fpre-include=/usr/include/finclude/math-vector-fortran.h
REM seed -1841605505 482880923 -457436136 1591188684 -37065378 -613530271 -299415982 -106303795 -244966334 1932556546 -1736762718 1816205716 -1575870508 1238679046 1241896758 -119053091 -1639348873 807706259 -974383070 1594682471 -488887719 985986541 -1759914822 1415731578 -1289236325 145576149 -1745965438 -1466324298 1246055786 -2120874324 -1592916878 -1157587302 -830018653
REM
CELL 1.54180   50.00000   50.00000   50.00000   90.00000   90.00000   90.00000
LATT -1
SFAC C  
C      1  0.4699780000000  0.4487790000000  0.4779560000000 1.0
C      1  0.4659390000000  0.5512470000000  0.5149770000000 1.0
C      1  0.4959100000000  0.4487700000000  0.5370070000000 1.0
C      1  0.5300240000000  0.5512250000000  0.5220400000000 1.0
C      1  0.5340750000000  0.4487650000000  0.4850310000000 1.0
C      1  0.5040770000000  0.5512270000000  0.4630020000000 1.0
C      1  0.5396980000000  0.5180080000000  0.5667260000000 1.0
C      1  0.5776270000000  0.4819680000000  0.4989880000000 1.0
C      1  0.5379340000000  0.5180170000000  0.4322700000000 1.0
C      1  0.4603170000000  0.4819790000000  0.4332550000000 1.0
C      1  0.4224430000000  0.5180350000000  0.5009640000000 1.0
C      1  0.4620590000000  0.4820020000000  0.5677370000000 1.0
C      1  0.5211480000000  0.5006340000000  0.5217750000000 1.0
C      1  0.5294220000000  0.4993550000000  0.4925760000000 1.0
C      1  0.5082750000000  0.5006360000000  0.4708050000000 1.0
C      1  0.4788470000000  0.4993610000000  0.4782270000000 1.0
C      1  0.4705860000000  0.5006410000000  0.5074320000000 1.0
C      1  0.4917240000000  0.4993610000000  0.5292050000000 1.0
C      1  0.4557720000000  0.5128010000000  0.5549020000000 1.0
C      1  0.5254450000000  0.4872090000000  0.5657600000000 1.0
C      1  0.5696680000000  0.5127700000000  0.5108420000000 1.0
C      1  0.5442240000000  0.4872110000000  0.4450790000000 1.0
C      1  0.4745560000000  0.5127820000000  0.4342580000000 1.0
C      1  0.4302810000000  0.4871900000000  0.4891890000000 1.0
C      1  0.4845320000000  0.5247180000000  0.5494030000000 1.0
C      1  0.5350380000000  0.4752810000000  0.5381050000000 1.0
C      1  0.5505190000000  0.5246990000000  0.4887030000000 1.0
C      1  0.5154760000000  0.4752930000000  0.4506010000000 1.0
C      1  0.4649440000000  0.5247140000000  0.4619070000000 1.0
C      1  0.4494780000000  0.4753030000000  0.5112940000000 1.0
C      1  0.5125420000000  0.5253660000000  0.4523580000000 1.0
C      1  0.4649930000000  0.4746420000000  0.4653000000000 1.0
C      1  0.4524910000000  0.5253870000000  0.5129660000000 1.0
C      1  0.4874480000000  0.4746330000000  0.5476530000000 1.0
C      1  0.5350000000000  0.5253600000000  0.5346920000000 1.0
C      1  0.5475310000000  0.4746240000000  0.4870450000000 1.0
C      1  0.4916570000000  0.4350670000000  0.4669550000000 1.0
C      1  0.4672380000000  0.5649550000000  0.4907000000000 1.0
C      1  0.4755410000000  0.4350660000000  0.5237270000000 1.0
C      1  0.5083540000000  0.5649440000000  0.5330490000000 1.0
C      1  0.5327600000000  0.4350530000000  0.5093060000000 1.0
C      1  0.5244480000000  0.5649350000000  0.4762740000000 1.0
C      1  0.4419190000000  0.4848650000000  0.5403610000000 1.0
C      1  0.5059200000000  0.5151440000000  0.5704800000000 1.0
C      1  0.5639880000000  0.4848410000000  0.5301170000000 1.0
C      1  0.5580810000000  0.5151370000000  0.4596390000000 1.0
C      1  0.4940940000000  0.4848600000000  0.4295190000000 1.0
C      1  0.4359940000000  0.5151170000000  0.4699150000000 1.0
C      1  0.5712670000000  0.4843490000000  0.4654910000000 1.0
C      1  0.5057460000000  0.5156500000000  0.4210220000000 1.0
C      1  0.4344620000000  0.4843730000000  0.4554770000000 1.0
C      1  0.4287350000000  0.5156480000000  0.5344790000000 1.0
C      1  0.4942480000000  0.4843620000000  0.5789830000000 1.0
C      1  0.5655300000000  0.5156250000000  0.5444710000000 1.0
C      1  0.5160490000000  0.4485810000000  0.4643680000000 1.0
C      1  0.4771690000000  0.5514240000000  0.4682810000000 1.0
C      1  0.4611080000000  0.4485920000000  0.5039020000000 1.0
C      1  0.4839620000000  0.5514330000000  0.5356400000000 1.0
C      1  0.5228160000000  0.4485740000000  0.5317240000000 1.0
C      1  0.5388920000000  0.5514120000000  0.4960940000000 1.0
END
