TITL C-27142-7278-167 0.0010805275528241 125000 -362.454491154971 0 0 60 (C1) n - 1
REM
REM in /home/nfs/bkarasulu/CARBON/AIRSS/Generating-Clusters/AIREBO/Higher-Symm/Only-C60
REM
REM
REM
REM
REM
REM ./C.cell (28575a23ae977d3b5fae324c64b13b57)
REM
REM compiler GCC version 9.2.1 20190827 (Red Hat 9.2.1-1)
REM options -cpp -mtune=generic -march=x86-64 -g -O0 -fpre-include=/usr/include/finclude/math-vector-fortran.h
REM seed 1693508211 2012852999 1811438209 460543656 1675441488 -1972866345 386342096 -697561223 -2004703290 1968240708 -51366711 1807413548 703076345 -607898544 -403762481 1850731276 -90495510 -1774815042 -350991911 2037142777 -209088142 1786574463 797818814 -640040022 2130118047 -469168448 2002816003 -426954875 726337487 2018284046 -522684938 974356543 -517160054
REM
CELL 1.54180   50.00000   50.00000   50.00000   90.00000   90.00000   90.00000
LATT -1
SFAC C  
C      1  0.5132630000000  0.4974570000000  0.4319460000000 1.0
C      1  0.4325330000000  0.5007200000000  0.5206520000000 1.0
C      1  0.5560930000000  0.4983220000000  0.5487670000000 1.0
C      1  0.4843340000000  0.4981260000000  0.4294040000000 1.0
C      1  0.5725740000000  0.4949300000000  0.5229700000000 1.0
C      1  0.4462210000000  0.5002100000000  0.5486170000000 1.0
C      1  0.5457900000000  0.5215400000000  0.5100630000000 1.0
C      1  0.4804260000000  0.5288110000000  0.4673060000000 1.0
C      1  0.4785630000000  0.5318330000000  0.5372630000000 1.0
C      1  0.4599470000000  0.5354600000000  0.4913540000000 1.0
C      1  0.5104900000000  0.5427720000000  0.4643140000000 1.0
C      1  0.5291150000000  0.5380430000000  0.5333460000000 1.0
C      1  0.5773910000000  0.5192180000000  0.4741310000000 1.0
C      1  0.4401790000000  0.5117330000000  0.4446390000000 1.0
C      1  0.4845290000000  0.5108520000000  0.5771050000000 1.0
C      1  0.4270780000000  0.5057630000000  0.4720220000000 1.0
C      1  0.5570960000000  0.5094000000000  0.4567060000000 1.0
C      1  0.5162380000000  0.5097280000000  0.5748020000000 1.0
C      1  0.5239320000000  0.5741280000000  0.5006880000000 1.0
C      1  0.4818020000000  0.5777890000000  0.4821590000000 1.0
C      1  0.4857240000000  0.5562160000000  0.5250960000000 1.0
C      1  0.4701320000000  0.5612070000000  0.5020120000000 1.0
C      1  0.5087320000000  0.5698420000000  0.4770280000000 1.0
C      1  0.5138370000000  0.5611590000000  0.5238960000000 1.0
C      1  0.5373130000000  0.5196850000000  0.5571110000000 1.0
C      1  0.5301910000000  0.5237070000000  0.4441530000000 1.0
C      1  0.4341390000000  0.5183720000000  0.4966840000000 1.0
C      1  0.4643250000000  0.5212430000000  0.5592420000000 1.0
C      1  0.4681410000000  0.5193960000000  0.4409120000000 1.0
C      1  0.5746260000000  0.5177180000000  0.5023820000000 1.0
C      1  0.5147030000000  0.5088090000000  0.4701810000000 1.0
C      1  0.4712980000000  0.5039330000000  0.4971990000000 1.0
C      1  0.5162700000000  0.5101880000000  0.5203030000000 1.0
C      1  0.4868660000000  0.4954810000000  0.4692250000000 1.0
C      1  0.5280090000000  0.4982020000000  0.4935990000000 1.0
C      1  0.4874200000000  0.5046150000000  0.5229520000000 1.0
C      1  0.4838340000000  0.4493930000000  0.4369970000000 1.0
C      1  0.4652540000000  0.4557150000000  0.5354510000000 1.0
C      1  0.5635410000000  0.4475950000000  0.5263140000000 1.0
C      1  0.5133990000000  0.4511160000000  0.4473990000000 1.0
C      1  0.5399730000000  0.4537860000000  0.5413350000000 1.0
C      1  0.4499480000000  0.4547450000000  0.5131310000000 1.0
C      1  0.4600720000000  0.4730740000000  0.4880560000000 1.0
C      1  0.5177910000000  0.4603270000000  0.5252110000000 1.0
C      1  0.5089980000000  0.4494930000000  0.4774840000000 1.0
C      1  0.5249480000000  0.4656000000000  0.4963350000000 1.0
C      1  0.4924390000000  0.4745030000000  0.5352870000000 1.0
C      1  0.4816540000000  0.4636240000000  0.4678300000000 1.0
C      1  0.5230270000000  0.4798180000000  0.5790980000000 1.0
C      1  0.5517380000000  0.4812220000000  0.4581000000000 1.0
C      1  0.4285100000000  0.4735900000000  0.4754220000000 1.0
C      1  0.4918040000000  0.4791190000000  0.5677630000000 1.0
C      1  0.4417000000000  0.4805260000000  0.4447740000000 1.0
C      1  0.5542280000000  0.4696320000000  0.4845010000000 1.0
C      1  0.5289510000000  0.4740620000000  0.4402780000000 1.0
C      1  0.4266700000000  0.4741750000000  0.5095450000000 1.0
C      1  0.5448410000000  0.4736460000000  0.5611890000000 1.0
C      1  0.4674490000000  0.4740050000000  0.4319960000000 1.0
C      1  0.5705210000000  0.4691800000000  0.5087300000000 1.0
C      1  0.4593900000000  0.4754420000000  0.5575440000000 1.0
END
