TITL C-27131-4585-61 0.000200806720136189 125000 -337.937327549301 0 0 60 (C5) n - 1
REM
REM in /home/nfs/bkarasulu/CARBON/AIRSS/Generating-Clusters/AIREBO/Higher-Symm/Only-C60
REM
REM
REM
REM
REM
REM ./C.cell (28575a23ae977d3b5fae324c64b13b57)
REM
REM compiler GCC version 9.2.1 20190827 (Red Hat 9.2.1-1)
REM options -cpp -mtune=generic -march=x86-64 -g -O0 -fpre-include=/usr/include/finclude/math-vector-fortran.h
REM seed -2072917669 -217023066 -869702281 924271972 1863652063 -1290359965 1154792673 -312332966 2024937798 -1938110500 -1864272759 -2026623410 -1120100548 -1083576496 1310890258 -2122156536 -926295822 -2002324969 1642188011 1783419250 -411102794 1365582040 754269471 2107769222 408575083 -2124377391 -2111717313 -504915510 1366010149 -513518695 8470399 2109766312 -1477351545
REM
CELL 1.54180   50.00000   50.00000   50.00000   90.00000   90.00000   90.00000
LATT -1
SFAC C  
C      1  0.5231480000000  0.5424910000000  0.5135840000000 1.0
C      1  0.5475640000000  0.4911160000000  0.5135840000000 1.0
C      1  0.5062490000000  0.4520190000000  0.5135860000000 1.0
C      1  0.4562980000000  0.4792310000000  0.5135880000000 1.0
C      1  0.4667430000000  0.5351450000000  0.5135860000000 1.0
C      1  0.5231470000000  0.5424900000000  0.4864130000000 1.0
C      1  0.5475630000000  0.4911150000000  0.4864130000000 1.0
C      1  0.5062480000000  0.4520180000000  0.4864150000000 1.0
C      1  0.4562970000000  0.4792300000000  0.4864170000000 1.0
C      1  0.4667420000000  0.5351450000000  0.4864150000000 1.0
C      1  0.5195930000000  0.5918890000000  0.4861790000000 1.0
C      1  0.5934460000000  0.5097600000000  0.4861780000000 1.0
C      1  0.5381590000000  0.4141430000000  0.4861820000000 1.0
C      1  0.4301360000000  0.4371770000000  0.4861860000000 1.0
C      1  0.4186620000000  0.5470300000000  0.4861840000000 1.0
C      1  0.5195940000000  0.5918900000000  0.5138150000000 1.0
C      1  0.5934470000000  0.5097610000000  0.5138140000000 1.0
C      1  0.5381600000000  0.4141430000000  0.5138180000000 1.0
C      1  0.4301380000000  0.4371770000000  0.5138220000000 1.0
C      1  0.4186630000000  0.5470310000000  0.5138200000000 1.0
C      1  0.5490680000000  0.5098240000000  0.5488250000000 1.0
C      1  0.5245060000000  0.4563720000000  0.5488270000000 1.0
C      1  0.4660800000000  0.4632140000000  0.5488290000000 1.0
C      1  0.4545330000000  0.5208950000000  0.5488290000000 1.0
C      1  0.5058220000000  0.5497010000000  0.5488260000000 1.0
C      1  0.5490640000000  0.5098220000000  0.4511710000000 1.0
C      1  0.5245020000000  0.4563700000000  0.4511730000000 1.0
C      1  0.4660760000000  0.4632120000000  0.4511750000000 1.0
C      1  0.4545290000000  0.5208930000000  0.4511740000000 1.0
C      1  0.5058180000000  0.5496990000000  0.4511720000000 1.0
C      1  0.5233170000000  0.4838970000000  0.5326440000000 1.0
C      1  0.4918910000000  0.4728500000000  0.5326450000000 1.0
C      1  0.4716730000000  0.4993240000000  0.5326450000000 1.0
C      1  0.4906040000000  0.5267330000000  0.5326440000000 1.0
C      1  0.5225220000000  0.5171990000000  0.5326430000000 1.0
C      1  0.5233140000000  0.4838960000000  0.4673550000000 1.0
C      1  0.4918880000000  0.4728490000000  0.4673570000000 1.0
C      1  0.4716700000000  0.4993230000000  0.4673570000000 1.0
C      1  0.4906010000000  0.5267320000000  0.4673560000000 1.0
C      1  0.5225190000000  0.5171970000000  0.4673540000000 1.0
C      1  0.4465300000000  0.4546690000000  0.4721510000000 1.0
C      1  0.4403650000000  0.5368430000000  0.4721500000000 1.0
C      1  0.5166110000000  0.5681000000000  0.4721460000000 1.0
C      1  0.5699000000000  0.5052450000000  0.4721450000000 1.0
C      1  0.5265880000000  0.4351400000000  0.4721480000000 1.0
C      1  0.4465330000000  0.4546700000000  0.5278550000000 1.0
C      1  0.4403670000000  0.5368440000000  0.5278540000000 1.0
C      1  0.5166130000000  0.5681010000000  0.5278500000000 1.0
C      1  0.5699020000000  0.5052460000000  0.5278490000000 1.0
C      1  0.5265900000000  0.4351410000000  0.5278520000000 1.0
C      1  0.4559580000000  0.4803790000000  0.4322660000000 1.0
C      1  0.4677290000000  0.5358200000000  0.4322640000000 1.0
C      1  0.5240940000000  0.5417570000000  0.4322620000000 1.0
C      1  0.5471580000000  0.4899860000000  0.4322620000000 1.0
C      1  0.5050480000000  0.4520520000000  0.4322650000000 1.0
C      1  0.4559640000000  0.4803820000000  0.5677380000000 1.0
C      1  0.4677350000000  0.5358220000000  0.5677370000000 1.0
C      1  0.5240990000000  0.5417590000000  0.5677340000000 1.0
C      1  0.5471630000000  0.4899880000000  0.5677340000000 1.0
C      1  0.5050530000000  0.4520550000000  0.5677370000000 1.0
END
