TITL C-27138-9601-98 0.00501188234773702 125000 -344.667499934983 0 0 60 (C1) n - 1
REM
REM in /home/nfs/bkarasulu/CARBON/AIRSS/Generating-Clusters/AIREBO/Higher-Symm/Only-C60
REM
REM
REM
REM
REM
REM ./C.cell (28575a23ae977d3b5fae324c64b13b57)
REM
REM compiler GCC version 9.2.1 20190827 (Red Hat 9.2.1-1)
REM options -cpp -mtune=generic -march=x86-64 -g -O0 -fpre-include=/usr/include/finclude/math-vector-fortran.h
REM seed -420059429 2064464906 -417437363 -748132224 623849305 1942120848 1457067581 421604481 1414368539 -341146681 -1507952890 -234168241 718351268 -1082157189 1539622142 -577150939 -2109882057 -1831365806 -1728654279 1980693193 -133206185 -118628600 -2084856922 -1137442049 -1978814884 -126430510 -108552882 1258154543 969935399 1610727702 -160376173 559689809 46484046
REM
CELL 1.54180   50.00000   50.00000   50.00000   90.00000   90.00000   90.00000
LATT -1
SFAC C  
C      1  0.4408870000000  0.5281900000000  0.4796780000000 1.0
C      1  0.5623760000000  0.4645160000000  0.4719310000000 1.0
C      1  0.5598790000000  0.5359290000000  0.5282610000000 1.0
C      1  0.4357720000000  0.4728260000000  0.5250890000000 1.0
C      1  0.5278490000000  0.4317760000000  0.4793180000000 1.0
C      1  0.4689540000000  0.5647800000000  0.4747850000000 1.0
C      1  0.5249650000000  0.5704540000000  0.5192900000000 1.0
C      1  0.4707530000000  0.4351900000000  0.5243040000000 1.0
C      1  0.5305870000000  0.5006320000000  0.4455070000000 1.0
C      1  0.4676190000000  0.5009060000000  0.4359950000000 1.0
C      1  0.4635890000000  0.4832370000000  0.5635690000000 1.0
C      1  0.5266990000000  0.4998660000000  0.5519590000000 1.0
C      1  0.4835790000000  0.5288550000000  0.4329440000000 1.0
C      1  0.5054130000000  0.4779870000000  0.4411180000000 1.0
C      1  0.4838410000000  0.4628980000000  0.5626120000000 1.0
C      1  0.5018710000000  0.5227480000000  0.5579370000000 1.0
C      1  0.5066390000000  0.4201870000000  0.5153780000000 1.0
C      1  0.4939480000000  0.5847590000000  0.4987280000000 1.0
C      1  0.4928990000000  0.4195100000000  0.4941910000000 1.0
C      1  0.5061550000000  0.5790810000000  0.4772260000000 1.0
C      1  0.4223550000000  0.5093130000000  0.5160790000000 1.0
C      1  0.5809180000000  0.4951830000000  0.5132170000000 1.0
C      1  0.4217270000000  0.4964140000000  0.4940210000000 1.0
C      1  0.5815250000000  0.5070270000000  0.4880540000000 1.0
C      1  0.5374090000000  0.5279480000000  0.5411850000000 1.0
C      1  0.4475660000000  0.4919130000000  0.5417990000000 1.0
C      1  0.4665070000000  0.5147960000000  0.4656400000000 1.0
C      1  0.5400960000000  0.4725840000000  0.4588630000000 1.0
C      1  0.5124820000000  0.5473760000000  0.5371560000000 1.0
C      1  0.4902500000000  0.4468390000000  0.5405800000000 1.0
C      1  0.5118090000000  0.4548340000000  0.4635900000000 1.0
C      1  0.4868000000000  0.5419400000000  0.4623720000000 1.0
C      1  0.4875960000000  0.5190650000000  0.5851940000000 1.0
C      1  0.5045460000000  0.4654910000000  0.5819520000000 1.0
C      1  0.5039730000000  0.5305680000000  0.4151920000000 1.0
C      1  0.4938190000000  0.4717800000000  0.4130120000000 1.0
C      1  0.5248490000000  0.4838220000000  0.5792720000000 1.0
C      1  0.4665070000000  0.5013550000000  0.5853710000000 1.0
C      1  0.5266750000000  0.5153080000000  0.4177750000000 1.0
C      1  0.4708120000000  0.4835600000000  0.4115730000000 1.0
C      1  0.5605920000000  0.4563150000000  0.4991290000000 1.0
C      1  0.4446310000000  0.5401020000000  0.5038400000000 1.0
C      1  0.4457080000000  0.4653470000000  0.5003170000000 1.0
C      1  0.5579110000000  0.5442950000000  0.5010880000000 1.0
C      1  0.4617630000000  0.5613660000000  0.5010490000000 1.0
C      1  0.5396710000000  0.4386070000000  0.5029350000000 1.0
C      1  0.4627000000000  0.4449040000000  0.4996430000000 1.0
C      1  0.5360300000000  0.5607690000000  0.4962380000000 1.0
C      1  0.4512860000000  0.5218560000000  0.5288030000000 1.0
C      1  0.5608520000000  0.4763980000000  0.5190740000000 1.0
C      1  0.5609000000000  0.5247350000000  0.4809570000000 1.0
C      1  0.4508490000000  0.4878310000000  0.4786650000000 1.0
C      1  0.5201810000000  0.4483880000000  0.5287250000000 1.0
C      1  0.4856430000000  0.5625410000000  0.5227820000000 1.0
C      1  0.5175810000000  0.5476810000000  0.4709310000000 1.0
C      1  0.4829250000000  0.4464420000000  0.4760530000000 1.0
C      1  0.4767790000000  0.5338340000000  0.5388000000000 1.0
C      1  0.5357520000000  0.4768830000000  0.5324490000000 1.0
C      1  0.4782280000000  0.4770390000000  0.4615830000000 1.0
C      1  0.5375240000000  0.5232270000000  0.4652240000000 1.0
END
