TITL C-27142-7278-86 0.0013505662974732 125000 -324.577531246341 0 0 60 (C1) n - 1
REM
REM in /home/nfs/bkarasulu/CARBON/AIRSS/Generating-Clusters/AIREBO/Higher-Symm/Only-C60
REM
REM
REM
REM
REM
REM ./C.cell (28575a23ae977d3b5fae324c64b13b57)
REM
REM compiler GCC version 9.2.1 20190827 (Red Hat 9.2.1-1)
REM options -cpp -mtune=generic -march=x86-64 -g -O0 -fpre-include=/usr/include/finclude/math-vector-fortran.h
REM seed 128254201 1966703830 91550490 -1549341619 -1753701820 -1786710389 -328889932 1292987226 -582648067 755380113 617358659 1218345410 277861706 -2054054236 -505524270 163270775 282218778 -83552229 2034632436 -765639465 -1992067555 -1607025389 1782009924 -1169004985 1714079572 -784221573 -1101573037 142029631 1923528868 -785804864 1162233056 1013200025 268503408
REM
CELL 1.54180   50.00000   50.00000   50.00000   90.00000   90.00000   90.00000
LATT -1
SFAC C  
C      1  0.5173340000000  0.5045390000000  0.4341670000000 1.0
C      1  0.5042620000000  0.5590060000000  0.5413890000000 1.0
C      1  0.5094270000000  0.4499690000000  0.5244490000000 1.0
C      1  0.4936580000000  0.5047220000000  0.4475700000000 1.0
C      1  0.4814620000000  0.4467180000000  0.5157520000000 1.0
C      1  0.4773920000000  0.5456660000000  0.5387450000000 1.0
C      1  0.5559720000000  0.4764510000000  0.5146210000000 1.0
C      1  0.5643870000000  0.4949980000000  0.4618850000000 1.0
C      1  0.5626250000000  0.5234600000000  0.5036070000000 1.0
C      1  0.4324880000000  0.5212960000000  0.5229080000000 1.0
C      1  0.4382210000000  0.5084700000000  0.4677560000000 1.0
C      1  0.4504200000000  0.4708180000000  0.5089090000000 1.0
C      1  0.5645340000000  0.5064580000000  0.5268900000000 1.0
C      1  0.5640570000000  0.4710930000000  0.4861010000000 1.0
C      1  0.5738550000000  0.5242220000000  0.4717920000000 1.0
C      1  0.4388990000000  0.4915020000000  0.5288420000000 1.0
C      1  0.4406360000000  0.5364940000000  0.5018180000000 1.0
C      1  0.4431560000000  0.4815370000000  0.4711780000000 1.0
C      1  0.4750980000000  0.4290680000000  0.4903830000000 1.0
C      1  0.4833060000000  0.5329030000000  0.4548010000000 1.0
C      1  0.4715630000000  0.5205170000000  0.5610120000000 1.0
C      1  0.5211360000000  0.5424370000000  0.4950930000000 1.0
C      1  0.5180860000000  0.4636730000000  0.4644020000000 1.0
C      1  0.5207370000000  0.4859910000000  0.5637310000000 1.0
C      1  0.5486360000000  0.4685960000000  0.4499420000000 1.0
C      1  0.5515270000000  0.5512450000000  0.4894430000000 1.0
C      1  0.5502010000000  0.4796300000000  0.5480000000000 1.0
C      1  0.4325310000000  0.5379990000000  0.4629320000000 1.0
C      1  0.4448510000000  0.4400410000000  0.5016390000000 1.0
C      1  0.4382750000000  0.5219620000000  0.5542220000000 1.0
C      1  0.5104990000000  0.5315350000000  0.5219560000000 1.0
C      1  0.5235770000000  0.4769680000000  0.5178160000000 1.0
C      1  0.5408660000000  0.5161400000000  0.4509540000000 1.0
C      1  0.4805710000000  0.4772750000000  0.5232380000000 1.0
C      1  0.4792040000000  0.5297010000000  0.5087800000000 1.0
C      1  0.4913350000000  0.4846090000000  0.4658420000000 1.0
C      1  0.4726980000000  0.4788340000000  0.4844890000000 1.0
C      1  0.4647280000000  0.5234310000000  0.4816780000000 1.0
C      1  0.4811850000000  0.5064950000000  0.5317450000000 1.0
C      1  0.5366550000000  0.5147710000000  0.4828400000000 1.0
C      1  0.5270790000000  0.4860830000000  0.4883420000000 1.0
C      1  0.5133650000000  0.5001600000000  0.5348600000000 1.0
C      1  0.5041870000000  0.4173210000000  0.4826180000000 1.0
C      1  0.5079300000000  0.5510560000000  0.4399270000000 1.0
C      1  0.5001580000000  0.5297030000000  0.5769780000000 1.0
C      1  0.5008080000000  0.5651040000000  0.4854080000000 1.0
C      1  0.4937260000000  0.4488560000000  0.4458700000000 1.0
C      1  0.4952440000000  0.4761100000000  0.5784860000000 1.0
C      1  0.5347820000000  0.5461100000000  0.4422490000000 1.0
C      1  0.5237820000000  0.5177630000000  0.5707650000000 1.0
C      1  0.5252780000000  0.4327370000000  0.4765470000000 1.0
C      1  0.4716860000000  0.4404230000000  0.4590580000000 1.0
C      1  0.4718650000000  0.4885990000000  0.5737200000000 1.0
C      1  0.4772050000000  0.5600020000000  0.4723450000000 1.0
C      1  0.4486020000000  0.5596340000000  0.4786030000000 1.0
C      1  0.4458180000000  0.4900590000000  0.5589670000000 1.0
C      1  0.4467950000000  0.4509720000000  0.4725490000000 1.0
C      1  0.5525680000000  0.4454850000000  0.4729080000000 1.0
C      1  0.5498990000000  0.5121420000000  0.5565570000000 1.0
C      1  0.5591730000000  0.5504400000000  0.4599310000000 1.0
END
