TITL C-27134-4977-179 -0.000135153269305824 125000 -295.736625161742 0 0 60 (C1) n - 1
REM
REM in /home/nfs/bkarasulu/CARBON/AIRSS/Generating-Clusters/AIREBO/Higher-Symm/Only-C60
REM
REM
REM
REM
REM
REM ./C.cell (28575a23ae977d3b5fae324c64b13b57)
REM
REM compiler GCC version 9.2.1 20190827 (Red Hat 9.2.1-1)
REM options -cpp -mtune=generic -march=x86-64 -g -O0 -fpre-include=/usr/include/finclude/math-vector-fortran.h
REM seed -1326330882 -254563873 -723801319 -317800008 -1714907850 -1573028863 -1648394434 -1974591456 -1912552050 626874317 -1348571970 1883915178 -601835624 -658261791 2066562845 -1976309974 1437165524 967436361 -1500711190 1217262585 -1667245606 -635221199 1906580412 -1296975315 824297380 -431205777 -1544133753 366852379 871933504 -925317258 915499602 523532396 1597783156
REM
CELL 1.54180   50.00000   50.00000   50.00000   90.00000   90.00000   90.00000
LATT -1
SFAC C  
C      1  0.4254580000000  0.5007680000000  0.5261830000000 1.0
C      1  0.4766640000000  0.4285660000000  0.5250510000000 1.0
C      1  0.5505950000000  0.4608960000000  0.5377530000000 1.0
C      1  0.5408760000000  0.5385540000000  0.5173890000000 1.0
C      1  0.4856430000000  0.5572260000000  0.5381470000000 1.0
C      1  0.4722230000000  0.4587470000000  0.4599560000000 1.0
C      1  0.5311460000000  0.4610400000000  0.4625890000000 1.0
C      1  0.5478580000000  0.5135820000000  0.4529650000000 1.0
C      1  0.4988880000000  0.5460090000000  0.4569920000000 1.0
C      1  0.4540650000000  0.5125160000000  0.4534110000000 1.0
C      1  0.5014220000000  0.4719360000000  0.5301280000000 1.0
C      1  0.5316090000000  0.4880240000000  0.5300070000000 1.0
C      1  0.5182420000000  0.5190860000000  0.5338120000000 1.0
C      1  0.4843030000000  0.5235900000000  0.5333010000000 1.0
C      1  0.4734830000000  0.4913170000000  0.5301830000000 1.0
C      1  0.4743100000000  0.5056510000000  0.4870370000000 1.0
C      1  0.4856150000000  0.4774560000000  0.4923460000000 1.0
C      1  0.5160990000000  0.4803870000000  0.4939380000000 1.0
C      1  0.5204310000000  0.5105500000000  0.4843400000000 1.0
C      1  0.4970430000000  0.5274650000000  0.4945110000000 1.0
C      1  0.4471700000000  0.5251830000000  0.4842050000000 1.0
C      1  0.4570920000000  0.4597290000000  0.4904600000000 1.0
C      1  0.5276100000000  0.4482800000000  0.4939240000000 1.0
C      1  0.5537780000000  0.5170980000000  0.4862730000000 1.0
C      1  0.5070370000000  0.5587390000000  0.4874750000000 1.0
C      1  0.4291560000000  0.5284500000000  0.5094020000000 1.0
C      1  0.4503210000000  0.4378810000000  0.5091780000000 1.0
C      1  0.5453420000000  0.4384660000000  0.5157770000000 1.0
C      1  0.5727620000000  0.5271290000000  0.5116980000000 1.0
C      1  0.5013450000000  0.5734050000000  0.5158040000000 1.0
C      1  0.5479860000000  0.4866370000000  0.5002220000000 1.0
C      1  0.5370000000000  0.5549970000000  0.4923380000000 1.0
C      1  0.4677700000000  0.5386750000000  0.5076840000000 1.0
C      1  0.4500130000000  0.4893310000000  0.5056310000000 1.0
C      1  0.4959580000000  0.4482430000000  0.5063430000000 1.0
C      1  0.4751390000000  0.4881750000000  0.4447400000000 1.0
C      1  0.5020770000000  0.4687410000000  0.4468360000000 1.0
C      1  0.5271780000000  0.4894980000000  0.4442000000000 1.0
C      1  0.5165810000000  0.5212450000000  0.4427440000000 1.0
C      1  0.4831050000000  0.5210430000000  0.4411970000000 1.0
C      1  0.5595040000000  0.4665650000000  0.4785770000000 1.0
C      1  0.5545440000000  0.5444140000000  0.4660140000000 1.0
C      1  0.4796970000000  0.5707210000000  0.4711810000000 1.0
C      1  0.4254630000000  0.5011430000000  0.4608900000000 1.0
C      1  0.4851340000000  0.4345630000000  0.4771590000000 1.0
C      1  0.4331750000000  0.5272280000000  0.5417690000000 1.0
C      1  0.4531900000000  0.4444200000000  0.5405150000000 1.0
C      1  0.5328670000000  0.4359580000000  0.5457440000000 1.0
C      1  0.5617000000000  0.5266220000000  0.5414730000000 1.0
C      1  0.5143610000000  0.5677490000000  0.5457820000000 1.0
C      1  0.4882730000000  0.4098730000000  0.4696590000000 1.0
C      1  0.5833880000000  0.4580640000000  0.4736180000000 1.0
C      1  0.5601380000000  0.5736190000000  0.4786320000000 1.0
C      1  0.4583420000000  0.5633570000000  0.4882560000000 1.0
C      1  0.4242890000000  0.4896260000000  0.4833880000000 1.0
C      1  0.5281170000000  0.5439100000000  0.5545330000000 1.0
C      1  0.4582030000000  0.5286880000000  0.5544930000000 1.0
C      1  0.4590210000000  0.4701700000000  0.5505380000000 1.0
C      1  0.5066310000000  0.4463890000000  0.5501280000000 1.0
C      1  0.5535730000000  0.5026110000000  0.5514810000000 1.0
END
