TITL C-100744-6336-1 -0.0121369023865499 125000 -216.937742425979 0 0 32 (C2) n - 1
REM
REM in /rds/project/t2_vol4/rds-t2-cs072/BORA/CARBON/from-Arr/AIRSS/Generating-Clusters/GAP-ML-2020/Higher-Symm/SD-CG/HFTN-CG
REM
REM
REM
REM
REM
REM ./C.cell (b20cbc046b6831c77cfcea5457e17084)
REM AIRSS Version 0.9.1 bugfix July 2018 build 013d7b7c2542+ Fri, 06 Jul 2018 19:26:36 +0100
REM compiler GCC version 9.3.0
REM options -cpp -mtune=generic -march=x86-64 -g -O0
REM seed 200782563 1122668086 -1483606244 730973696 -136993250 1945661697 -1996386287 -1659041398 -1815102511 2030377090 61871670 1649086987 1786267710 1645157854 1909662762 562624195 534032960 1514841875 -1770552816 2096607249 42772705 2048545653 -2035216429 -1165220662 1235941977 1971988419 -345649045 -1084741645 452652281 -2073447735 -1702365771 -557409807 -1915163367
REM
CELL 1.54180   50.00000   50.00000   50.00000   90.00000   90.00000   90.00000
LATT -1
SFAC C  
C      1  0.4603980000000  0.4938400000000  0.5521670000000 1.0
C      1  0.4591040000000  0.4489510000000  0.5013200000000 1.0
C      1  0.4624140000000  0.4818000000000  0.4564940000000 1.0
C      1  0.4652560000000  0.5336810000000  0.4711350000000 1.0
C      1  0.4659000000000  0.5413290000000  0.5239760000000 1.0
C      1  0.5323660000000  0.4874630000000  0.5462070000000 1.0
C      1  0.5311940000000  0.4539220000000  0.5046770000000 1.0
C      1  0.5328290000000  0.4784330000000  0.4566090000000 1.0
C      1  0.5371220000000  0.5335840000000  0.4628800000000 1.0
C      1  0.5381060000000  0.5403450000000  0.5303740000000 1.0
C      1  0.4882190000000  0.5500540000000  0.5298540000000 1.0
C      1  0.4837760000000  0.4888450000000  0.5590000000000 1.0
C      1  0.4825390000000  0.4412740000000  0.5046660000000 1.0
C      1  0.4840900000000  0.4764550000000  0.4456990000000 1.0
C      1  0.4869300000000  0.5419700000000  0.4628500000000 1.0
C      1  0.5148930000000  0.5490810000000  0.5321100000000 1.0
C      1  0.5103730000000  0.4861520000000  0.5573180000000 1.0
C      1  0.5093830000000  0.4425180000000  0.5058250000000 1.0
C      1  0.5107420000000  0.4744610000000  0.4460570000000 1.0
C      1  0.5137020000000  0.5415880000000  0.4602830000000 1.0
C      1  0.5561380000000  0.5168710000000  0.4753190000000 1.0
C      1  0.5563780000000  0.5212350000000  0.5207060000000 1.0
C      1  0.5501220000000  0.4928450000000  0.5258480000000 1.0
C      1  0.5484910000000  0.4755410000000  0.5023040000000 1.0
C      1  0.5503650000000  0.4878500000000  0.4757460000000 1.0
C      1  0.4481980000000  0.5174830000000  0.4859280000000 1.0
C      1  0.4475730000000  0.5229960000000  0.5146620000000 1.0
C      1  0.4415550000000  0.5000070000000  0.5321800000000 1.0
C      1  0.4402660000000  0.4697030000000  0.4981350000000 1.0
C      1  0.4456410000000  0.4896700000000  0.4769660000000 1.0
C      1  0.4263210000000  0.4799650000000  0.5200210000000 1.0
C      1  0.5709270000000  0.5257370000000  0.4972610000000 1.0
END
