TITL C-105259-9145-9 -0.00768221975307656 125000 -41.8553018821351 0 0 7 (D7h) n - 1
REM
REM in /rds/project/t2_vol4/rds-t2-cs072/BORA/CARBON/from-Arr/AIRSS/Generating-Clusters/GAP-ML-2020/Higher-Symm/SD-CG/HFTN-CG
REM
REM
REM
REM
REM
REM ./C.cell (b20cbc046b6831c77cfcea5457e17084)
REM AIRSS Version 0.9.1 bugfix July 2018 build 013d7b7c2542+ Fri, 06 Jul 2018 19:26:36 +0100
REM compiler GCC version 9.3.0
REM options -cpp -mtune=generic -march=x86-64 -g -O0
REM seed 1042759499 -1589998800 -392004861 371923431 86411467 969515153 -112056114 1859095667 -1565128090 -1733340402 -484004677 -1450672266 -1738910332 1058211229 659306383 1099491602 788747463 -2108225852 -81096359 112424751 264068314 2116901764 123980925 -845927076 -495444799 -2026371217 -766849419 890878166 -821686626 -1679783741 1162708093 1572233569 -498472118
REM
CELL 1.54180   50.00000   50.00000   50.00000   90.00000   90.00000   90.00000
LATT -1
SFAC C  
C      1  0.5036400000000  0.5275640000000  0.5069110000000 1.0
C      1  0.5217550000000  0.5187510000000  0.4898510000000 1.0
C      1  0.5093950000000  0.4732070000000  0.4838750000000 1.0
C      1  0.4882270000000  0.4707710000000  0.4994590000000 1.0
C      1  0.4767530000000  0.4890870000000  0.5146170000000 1.0
C      1  0.4836120000000  0.5143620000000  0.5179330000000 1.0
C      1  0.5243160000000  0.4945600000000  0.4795990000000 1.0
END
