TITL C-100357-5123-3 -0.132321187202131 125000 -749.687595558917 0 0 106 (C1) n - 1
REM
REM in /rds/project/t2_vol4/rds-t2-cs072/BORA/CARBON/from-Arr/AIRSS/Generating-Clusters/GAP-ML-2020/Higher-Symm/SD-CG/HFTN-CG
REM
REM
REM
REM
REM
REM ./C.cell (b20cbc046b6831c77cfcea5457e17084)
REM AIRSS Version 0.9.1 bugfix July 2018 build 013d7b7c2542+ Fri, 06 Jul 2018 19:26:36 +0100
REM compiler GCC version 9.3.0
REM options -cpp -mtune=generic -march=x86-64 -g -O0
REM seed -1366160951 715656271 -969087933 1348264270 -1689018418 1674885597 1064844395 818024077 -1971607781 477645161 -914798193 513433109 -1817941441 -1132523593 325848335 299621327 909204030 1325677409 -945012139 159988921 -43732298 -470144156 322961902 305719804 71373389 -1119132218 873118774 -851518483 -1970475875 -343293356 -424482829 801709118 1305191380
REM
CELL 1.54180   50.00000   50.00000   50.00000   90.00000   90.00000   90.00000
LATT -1
SFAC C  
C      1  0.5063320000000  0.5276720000000  0.4891460000000 1.0
C      1  0.4946460000000  0.5137660000000  0.5356470000000 1.0
C      1  0.5026300000000  0.4659610000000  0.5210380000000 1.0
C      1  0.4975600000000  0.4822500000000  0.4734480000000 1.0
C      1  0.4162110000000  0.5578140000000  0.4815680000000 1.0
C      1  0.5887320000000  0.5246060000000  0.5400780000000 1.0
C      1  0.4122400000000  0.4468640000000  0.5134060000000 1.0
C      1  0.5839490000000  0.4839700000000  0.4518620000000 1.0
C      1  0.5156290000000  0.5193340000000  0.5153750000000 1.0
C      1  0.4832130000000  0.4874650000000  0.5277820000000 1.0
C      1  0.5155320000000  0.4741430000000  0.4953670000000 1.0
C      1  0.4861490000000  0.5080220000000  0.4810910000000 1.0
C      1  0.4956320000000  0.4216250000000  0.4947130000000 1.0
C      1  0.5063460000000  0.5061840000000  0.4268490000000 1.0
C      1  0.4967370000000  0.5772930000000  0.5034550000000 1.0
C      1  0.4936420000000  0.4945720000000  0.5810160000000 1.0
C      1  0.4468270000000  0.5481810000000  0.4483980000000 1.0
C      1  0.5580950000000  0.5591880000000  0.5415900000000 1.0
C      1  0.4359730000000  0.4508870000000  0.5539170000000 1.0
C      1  0.5572780000000  0.4433150000000  0.4520210000000 1.0
C      1  0.5705030000000  0.4547700000000  0.5303410000000 1.0
C      1  0.4353430000000  0.4644350000000  0.4505760000000 1.0
C      1  0.5663810000000  0.5522900000000  0.4558370000000 1.0
C      1  0.4276350000000  0.5378090000000  0.5435790000000 1.0
C      1  0.5779090000000  0.4592060000000  0.4646870000000 1.0
C      1  0.4254800000000  0.5363230000000  0.4645060000000 1.0
C      1  0.5808030000000  0.5484450000000  0.5274760000000 1.0
C      1  0.4179320000000  0.4637820000000  0.5355950000000 1.0
C      1  0.5747980000000  0.5275980000000  0.4475820000000 1.0
C      1  0.4239230000000  0.5578340000000  0.5245670000000 1.0
C      1  0.5800580000000  0.4801830000000  0.5364990000000 1.0
C      1  0.4270680000000  0.4475230000000  0.4704970000000 1.0
C      1  0.4802700000000  0.4439510000000  0.5630710000000 1.0
C      1  0.5115090000000  0.4369000000000  0.4476880000000 1.0
C      1  0.4923490000000  0.5560690000000  0.4406430000000 1.0
C      1  0.5132280000000  0.5615940000000  0.5504820000000 1.0
C      1  0.4651290000000  0.5403810000000  0.5059910000000 1.0
C      1  0.5342800000000  0.4899870000000  0.5486600000000 1.0
C      1  0.4640610000000  0.4575860000000  0.4966380000000 1.0
C      1  0.5378290000000  0.5009340000000  0.4650850000000 1.0
C      1  0.5340370000000  0.5726910000000  0.5332600000000 1.0
C      1  0.4579850000000  0.4610330000000  0.5697780000000 1.0
C      1  0.5337090000000  0.4282940000000  0.4630850000000 1.0
C      1  0.4703090000000  0.5396520000000  0.4329090000000 1.0
C      1  0.4852440000000  0.4419790000000  0.5138740000000 1.0
C      1  0.5146220000000  0.4868490000000  0.4482320000000 1.0
C      1  0.4888490000000  0.5523810000000  0.4904230000000 1.0
C      1  0.5118010000000  0.5098790000000  0.5613940000000 1.0
C      1  0.4750910000000  0.5368550000000  0.5354800000000 1.0
C      1  0.5231490000000  0.4617690000000  0.5452280000000 1.0
C      1  0.4770630000000  0.4620780000000  0.4691530000000 1.0
C      1  0.5301720000000  0.5271550000000  0.4732420000000 1.0
C      1  0.4781940000000  0.5131400000000  0.4246070000000 1.0
C      1  0.5257160000000  0.5799060000000  0.5060510000000 1.0
C      1  0.4646580000000  0.4887550000000  0.5763410000000 1.0
C      1  0.5247580000000  0.4204130000000  0.4904370000000 1.0
C      1  0.5541520000000  0.5128420000000  0.4324810000000 1.0
C      1  0.4500960000000  0.5683670000000  0.5107890000000 1.0
C      1  0.5625040000000  0.4924580000000  0.5567170000000 1.0
C      1  0.4471020000000  0.4316950000000  0.4875880000000 1.0
C      1  0.5417420000000  0.4855900000000  0.4927410000000 1.0
C      1  0.4600410000000  0.5112270000000  0.4932470000000 1.0
C      1  0.5368910000000  0.5014520000000  0.5174210000000 1.0
C      1  0.4593350000000  0.4860030000000  0.5114690000000 1.0
C      1  0.4349100000000  0.4933190000000  0.4490520000000 1.0
C      1  0.5705120000000  0.5628720000000  0.4822640000000 1.0
C      1  0.4256490000000  0.5087650000000  0.5464960000000 1.0
C      1  0.5681820000000  0.4406750000000  0.5053740000000 1.0
C      1  0.5643690000000  0.4859670000000  0.4308950000000 1.0
C      1  0.4396680000000  0.5758990000000  0.4848210000000 1.0
C      1  0.5703040000000  0.5189840000000  0.5613160000000 1.0
C      1  0.4320430000000  0.4267220000000  0.5123420000000 1.0
C      1  0.4731000000000  0.4181960000000  0.4778490000000 1.0
C      1  0.5277920000000  0.5243850000000  0.4245740000000 1.0
C      1  0.4757920000000  0.5809820000000  0.5217860000000 1.0
C      1  0.5056920000000  0.4718140000000  0.5888620000000 1.0
C      1  0.5426580000000  0.5724120000000  0.4843770000000 1.0
C      1  0.4475470000000  0.5075740000000  0.5661810000000 1.0
C      1  0.5428220000000  0.4275250000000  0.5110420000000 1.0
C      1  0.4596040000000  0.4943760000000  0.4334810000000 1.0
C      1  0.5371800000000  0.5547720000000  0.4591950000000 1.0
C      1  0.4533940000000  0.5339180000000  0.5553780000000 1.0
C      1  0.5443840000000  0.4434640000000  0.5359840000000 1.0
C      1  0.4625880000000  0.4671680000000  0.4434260000000 1.0
C      1  0.5232460000000  0.5379600000000  0.5653750000000 1.0
C      1  0.4732680000000  0.4303330000000  0.5388550000000 1.0
C      1  0.5212510000000  0.4611230000000  0.4349970000000 1.0
C      1  0.4834480000000  0.5679880000000  0.4655310000000 1.0
C      1  0.5062500000000  0.4532120000000  0.5688650000000 1.0
C      1  0.4857810000000  0.4354310000000  0.4599730000000 1.0
C      1  0.5196510000000  0.5497590000000  0.4361040000000 1.0
C      1  0.4870770000000  0.5635640000000  0.5409590000000 1.0
C      1  0.4454480000000  0.4288470000000  0.5377960000000 1.0
C      1  0.5488750000000  0.4613600000000  0.4317870000000 1.0
C      1  0.4559110000000  0.5711250000000  0.4630500000000 1.0
C      1  0.5513120000000  0.5402050000000  0.5625350000000 1.0
C      1  0.5677990000000  0.4640590000000  0.4899600000000 1.0
C      1  0.4308490000000  0.5082940000000  0.4750490000000 1.0
C      1  0.5848270000000  0.5449900000000  0.4993850000000 1.0
C      1  0.4264390000000  0.4892270000000  0.5239270000000 1.0
C      1  0.4109970000000  0.4622770000000  0.4892270000000 1.0
C      1  0.5886160000000  0.5090770000000  0.4655160000000 1.0
C      1  0.4033940000000  0.5583600000000  0.5055380000000 1.0
C      1  0.5930320000000  0.5033080000000  0.5212400000000 1.0
C      1  0.4151130000000  0.4901960000000  0.4948730000000 1.0
C      1  0.5921700000000  0.5170000000000  0.4935620000000 1.0
END
