TITL C-109499-6414-8 -0.0377545213074796 125000 -551.750169151324 0 0 79 (C1) n - 1
REM
REM in /rds/project/t2_vol4/rds-t2-cs072/BORA/CARBON/from-Arr/AIRSS/Generating-Clusters/GAP-ML-2020/Higher-Symm/SD-CG/HFTN-CG
REM
REM
REM
REM
REM
REM ./C.cell (b20cbc046b6831c77cfcea5457e17084)
REM AIRSS Version 0.9.1 bugfix July 2018 build 013d7b7c2542+ Fri, 06 Jul 2018 19:26:36 +0100
REM compiler GCC version 9.3.0
REM options -cpp -mtune=generic -march=x86-64 -g -O0
REM seed 940635512 -967992131 2004307252 -1430375502 -597657293 1875009372 1588757192 318454088 2064041142 179760991 773976348 743143001 -1328860942 -1433672393 1006875747 1537934152 1099205209 1883770883 1287736987 1297718172 797333215 -1582923892 420440120 -227616825 591524465 1350259754 -2059724801 357170763 -613378589 144857364 339902654 1865182109 -1383066227
REM
CELL 1.54180   50.00000   50.00000   50.00000   90.00000   90.00000   90.00000
LATT -1
SFAC C  
C      1  0.5838860000000  0.5322040000000  0.5061790000000 1.0
C      1  0.5872090000000  0.5161480000000  0.5292440000000 1.0
C      1  0.5878270000000  0.4879140000000  0.5315360000000 1.0
C      1  0.5871600000000  0.4690770000000  0.5110500000000 1.0
C      1  0.5866970000000  0.4735190000000  0.4832970000000 1.0
C      1  0.5854740000000  0.4979970000000  0.4687660000000 1.0
C      1  0.5839210000000  0.5242960000000  0.4793450000000 1.0
C      1  0.4030620000000  0.4973790000000  0.5235130000000 1.0
C      1  0.4255010000000  0.4781330000000  0.5164640000000 1.0
C      1  0.4264710000000  0.4727710000000  0.4876620000000 1.0
C      1  0.4129280000000  0.4922360000000  0.4721860000000 1.0
C      1  0.4266790000000  0.5153120000000  0.4682040000000 1.0
C      1  0.4258470000000  0.5304880000000  0.4936910000000 1.0
C      1  0.4069640000000  0.5199770000000  0.5116770000000 1.0
C      1  0.4672420000000  0.5579290000000  0.4673530000000 1.0
C      1  0.4773620000000  0.5759690000000  0.5364640000000 1.0
C      1  0.4743650000000  0.5215840000000  0.5870690000000 1.0
C      1  0.4714960000000  0.4503610000000  0.5695580000000 1.0
C      1  0.4695210000000  0.4335340000000  0.5013540000000 1.0
C      1  0.4845780000000  0.4455300000000  0.4321380000000 1.0
C      1  0.4861110000000  0.5098600000000  0.4184790000000 1.0
C      1  0.5247370000000  0.4546480000000  0.5453590000000 1.0
C      1  0.5226610000000  0.4441680000000  0.4954930000000 1.0
C      1  0.5255360000000  0.4600250000000  0.4468340000000 1.0
C      1  0.5232580000000  0.5261940000000  0.4461270000000 1.0
C      1  0.5182280000000  0.5619360000000  0.4808770000000 1.0
C      1  0.5255440000000  0.5485210000000  0.5461540000000 1.0
C      1  0.5244900000000  0.5031430000000  0.5585080000000 1.0
C      1  0.5538710000000  0.5027680000000  0.5596130000000 1.0
C      1  0.5530260000000  0.4567460000000  0.5417840000000 1.0
C      1  0.5521220000000  0.4428040000000  0.4942900000000 1.0
C      1  0.5532790000000  0.4680270000000  0.4502650000000 1.0
C      1  0.5509450000000  0.5214610000000  0.4466210000000 1.0
C      1  0.5476150000000  0.5549160000000  0.4849780000000 1.0
C      1  0.5520880000000  0.5471730000000  0.5375470000000 1.0
C      1  0.5133610000000  0.4371650000000  0.4667850000000 1.0
C      1  0.5079650000000  0.4607760000000  0.4231300000000 1.0
C      1  0.5107840000000  0.5514670000000  0.4528060000000 1.0
C      1  0.5051960000000  0.5860080000000  0.4939250000000 1.0
C      1  0.5167410000000  0.5314340000000  0.5680980000000 1.0
C      1  0.5132800000000  0.4753750000000  0.5624250000000 1.0
C      1  0.5102530000000  0.4415260000000  0.5243830000000 1.0
C      1  0.5675050000000  0.5256400000000  0.5486290000000 1.0
C      1  0.5673320000000  0.4797100000000  0.5510020000000 1.0
C      1  0.5661830000000  0.4493770000000  0.5176950000000 1.0
C      1  0.5662080000000  0.4556090000000  0.4723650000000 1.0
C      1  0.5641490000000  0.4953650000000  0.4485220000000 1.0
C      1  0.5627840000000  0.5393130000000  0.4657560000000 1.0
C      1  0.5608270000000  0.5501760000000  0.5101290000000 1.0
C      1  0.5119370000000  0.4797430000000  0.4648380000000 1.0
C      1  0.5075030000000  0.5067010000000  0.4608790000000 1.0
C      1  0.4997130000000  0.5431380000000  0.4979770000000 1.0
C      1  0.5043000000000  0.5391910000000  0.5271030000000 1.0
C      1  0.5107840000000  0.5104360000000  0.5307650000000 1.0
C      1  0.5090460000000  0.4963750000000  0.5072880000000 1.0
C      1  0.5144280000000  0.4736550000000  0.4917320000000 1.0
C      1  0.4533650000000  0.4790170000000  0.4490380000000 1.0
C      1  0.4542630000000  0.5087380000000  0.4566910000000 1.0
C      1  0.4533790000000  0.5332730000000  0.5040990000000 1.0
C      1  0.4580000000000  0.5285430000000  0.5325840000000 1.0
C      1  0.4560600000000  0.5033770000000  0.5458280000000 1.0
C      1  0.4471960000000  0.4782700000000  0.5351810000000 1.0
C      1  0.4464280000000  0.4612390000000  0.4700960000000 1.0
C      1  0.4718520000000  0.5559870000000  0.4945330000000 1.0
C      1  0.4788960000000  0.5466330000000  0.5435050000000 1.0
C      1  0.4707980000000  0.5000630000000  0.5700740000000 1.0
C      1  0.4641680000000  0.4549400000000  0.5432500000000 1.0
C      1  0.4643460000000  0.4390150000000  0.4758520000000 1.0
C      1  0.4679710000000  0.4682880000000  0.4276540000000 1.0
C      1  0.4713590000000  0.5244450000000  0.4365550000000 1.0
C      1  0.4814390000000  0.4403310000000  0.5242550000000 1.0
C      1  0.4868950000000  0.4345010000000  0.4578240000000 1.0
C      1  0.4903430000000  0.4837710000000  0.4158480000000 1.0
C      1  0.4830150000000  0.5482730000000  0.4480420000000 1.0
C      1  0.4830730000000  0.5813980000000  0.5106940000000 1.0
C      1  0.4890380000000  0.5355380000000  0.5695080000000 1.0
C      1  0.4859690000000  0.4742480000000  0.5700720000000 1.0
C      1  0.4672150000000  0.5125960000000  0.4847880000000 1.0
C      1  0.4961680000000  0.5148940000000  0.4872480000000 1.0
END
