TITL C-102482-7197-9 -35.044495145822 125000 -478.535725442089 0 0 71 (C1) n - 1
REM
REM in /rds/project/t2_vol4/rds-t2-cs072/BORA/CARBON/from-Arr/AIRSS/Generating-Clusters/GAP-ML-2020/Higher-Symm/SD-CG/HFTN-CG
REM
REM
REM
REM
REM
REM ./C.cell (b20cbc046b6831c77cfcea5457e17084)
REM AIRSS Version 0.9.1 bugfix July 2018 build 013d7b7c2542+ Fri, 06 Jul 2018 19:26:36 +0100
REM compiler GCC version 9.3.0
REM options -cpp -mtune=generic -march=x86-64 -g -O0
REM seed -1411966468 -1397569952 -1215497970 407026459 -144010418 -1715719446 -517232351 825088971 801567240 1495580824 2100220528 -950657054 -1510397526 393695869 -1311837955 1809862211 572598050 -1068828954 -1772025352 -1787247911 -1840684871 1065795069 -104032823 129365929 -958185504 -1668861841 219102875 -1858882654 -1279224458 735682974 1459260625 -737703020 -1789522167
REM
CELL 1.54180   50.00000   50.00000   50.00000   90.00000   90.00000   90.00000
LATT -1
SFAC C  
C      1  0.4271680000000  0.5120610000000  0.4882160000000 1.0
C      1  0.4935340000000  0.5145570000000  0.5653580000000 1.0
C      1  0.5581450000000  0.5170920000000  0.5287070000000 1.0
C      1  0.5511240000000  0.5141130000000  0.4525530000000 1.0
C      1  0.4776810000000  0.5097930000000  0.4366390000000 1.0
C      1  0.5467920000000  0.4505520000000  0.4868800000000 1.0
C      1  0.5036070000000  0.4451720000000  0.4540190000000 1.0
C      1  0.4588070000000  0.4498830000000  0.5068380000000 1.0
C      1  0.4803090000000  0.4459560000000  0.5534740000000 1.0
C      1  0.5388140000000  0.4455140000000  0.5392460000000 1.0
C      1  0.5178280000000  0.5479880000000  0.4582880000000 1.0
C      1  0.4853940000000  0.5488340000000  0.4640250000000 1.0
C      1  0.4547360000000  0.5454050000000  0.5251620000000 1.0
C      1  0.5010260000000  0.5486370000000  0.5351960000000 1.0
C      1  0.5378150000000  0.5527540000000  0.5028890000000 1.0
C      1  0.4715480000000  0.5222350000000  0.4647700000000 1.0
C      1  0.4524950000000  0.5196860000000  0.5381710000000 1.0
C      1  0.5114310000000  0.5215500000000  0.5427010000000 1.0
C      1  0.5505110000000  0.5249470000000  0.5005850000000 1.0
C      1  0.5215980000000  0.5195900000000  0.4498400000000 1.0
C      1  0.5359530000000  0.4401310000000  0.5114540000000 1.0
C      1  0.5293370000000  0.4498550000000  0.4648300000000 1.0
C      1  0.4838450000000  0.4516240000000  0.4725640000000 1.0
C      1  0.4582070000000  0.4482360000000  0.5348240000000 1.0
C      1  0.5075490000000  0.4477070000000  0.5432870000000 1.0
C      1  0.4528350000000  0.4745560000000  0.5456520000000 1.0
C      1  0.5151510000000  0.4773700000000  0.5457370000000 1.0
C      1  0.5543590000000  0.4838560000000  0.5011560000000 1.0
C      1  0.5265670000000  0.4766000000000  0.4523710000000 1.0
C      1  0.4678060000000  0.4745970000000  0.4663220000000 1.0
C      1  0.5603660000000  0.4890400000000  0.5291120000000 1.0
C      1  0.5543960000000  0.4865770000000  0.4548960000000 1.0
C      1  0.4783370000000  0.4821340000000  0.4382630000000 1.0
C      1  0.4361090000000  0.4903930000000  0.5016050000000 1.0
C      1  0.4959950000000  0.4870000000000  0.5669640000000 1.0
C      1  0.5137190000000  0.4987180000000  0.4720360000000 1.0
C      1  0.4846310000000  0.4984090000000  0.4791530000000 1.0
C      1  0.4562240000000  0.4948520000000  0.5243810000000 1.0
C      1  0.5099890000000  0.4977090000000  0.5211590000000 1.0
C      1  0.5291760000000  0.5010900000000  0.4975200000000 1.0
C      1  0.4688630000000  0.5274790000000  0.5605040000000 1.0
C      1  0.5395500000000  0.5320170000000  0.5437310000000 1.0
C      1  0.5592250000000  0.5317280000000  0.4728870000000 1.0
C      1  0.5002450000000  0.5238540000000  0.4283740000000 1.0
C      1  0.4472570000000  0.5287110000000  0.4802750000000 1.0
C      1  0.4463780000000  0.4682830000000  0.4882860000000 1.0
C      1  0.4726750000000  0.4713530000000  0.5664000000000 1.0
C      1  0.5446400000000  0.4724850000000  0.5457750000000 1.0
C      1  0.5646080000000  0.4732120000000  0.4783960000000 1.0
C      1  0.5028940000000  0.4684440000000  0.4358220000000 1.0
C      1  0.5273130000000  0.5562750000000  0.5283690000000 1.0
C      1  0.5396990000000  0.5553330000000  0.4747960000000 1.0
C      1  0.4979570000000  0.5529010000000  0.4383390000000 1.0
C      1  0.4558070000000  0.5496070000000  0.4977990000000 1.0
C      1  0.4751770000000  0.5522170000000  0.5441820000000 1.0
C      1  0.4865190000000  0.4563710000000  0.5012150000000 1.0
C      1  0.4997730000000  0.3874190000000  0.5036710000000 1.0
C      1  0.5061240000000  0.4369580000000  0.5146990000000 1.0
C      1  0.5161440000000  0.7123720000000  0.5132110000000 1.0
C      1  0.4979100000000  0.3616990000000  0.4972700000000 1.0
C      1  0.4979240000000  0.6391600000000  0.5004720000000 1.0
C      1  0.5030930000000  0.6633000000000  0.5042020000000 1.0
C      1  0.4946180000000  0.2872830000000  0.4805410000000 1.0
C      1  0.4958460000000  0.3373520000000  0.4926000000000 1.0
C      1  0.4826740000000  0.5917290000000  0.4903460000000 1.0
C      1  0.4846690000000  0.4898250000000  0.5080100000000 1.0
C      1  0.4962450000000  0.4103700000000  0.5128870000000 1.0
C      1  0.5095890000000  0.6881990000000  0.5087180000000 1.0
C      1  0.4921460000000  0.6138690000000  0.4963760000000 1.0
C      1  0.4949010000000  0.3119680000000  0.4867270000000 1.0
C      1  0.4752750000000  0.5657630000000  0.4847220000000 1.0
END
