TITL C-101427-5116-6 75.3101471007975 125000 -577.662775691722 0 0 81 (C1) n - 1
REM
REM in /rds/project/t2_vol4/rds-t2-cs072/BORA/CARBON/from-Arr/AIRSS/Generating-Clusters/GAP-ML-2020/Higher-Symm/SD-CG/HFTN-CG
REM
REM
REM
REM
REM
REM ./C.cell (b20cbc046b6831c77cfcea5457e17084)
REM AIRSS Version 0.9.1 bugfix July 2018 build 013d7b7c2542+ Fri, 06 Jul 2018 19:26:36 +0100
REM compiler GCC version 9.3.0
REM options -cpp -mtune=generic -march=x86-64 -g -O0
REM seed -1908940004 1168643195 36460458 189058543 1360394685 -452000225 918143130 -2004279426 1369495345 -622754213 -1167963958 -519941631 -1157144312 663228768 -8086395 -165328135 2102817293 -1880807459 1830310747 -1625378993 -479609798 -1228834233 -2135695990 -1815000750 2064499817 -1201327214 -367409949 699140261 1125027220 -1253949407 194017830 1380058168 2095818280
REM
CELL 1.54180   50.00000   50.00000   50.00000   90.00000   90.00000   90.00000
LATT -1
SFAC C  
C      1  0.4381130000000  0.4761140000000  0.5451710000000 1.0
C      1  0.4375890000000  0.5257090000000  0.4588930000000 1.0
C      1  0.5602600000000  0.4763070000000  0.4578200000000 1.0
C      1  0.5634930000000  0.5230990000000  0.5432490000000 1.0
C      1  0.4511590000000  0.4778030000000  0.4471520000000 1.0
C      1  0.4501280000000  0.5244460000000  0.5574760000000 1.0
C      1  0.5480710000000  0.4760130000000  0.5530730000000 1.0
C      1  0.5498160000000  0.5237800000000  0.4442190000000 1.0
C      1  0.4840680000000  0.4278930000000  0.5030140000000 1.0
C      1  0.4853780000000  0.5724000000000  0.4993550000000 1.0
C      1  0.5137470000000  0.4270950000000  0.4993500000000 1.0
C      1  0.5152670000000  0.5713180000000  0.5015760000000 1.0
C      1  0.5291580000000  0.5649260000000  0.5278450000000 1.0
C      1  0.5253060000000  0.4320590000000  0.4731160000000 1.0
C      1  0.4710430000000  0.5672260000000  0.4734480000000 1.0
C      1  0.4709820000000  0.4331530000000  0.5298050000000 1.0
C      1  0.5312430000000  0.5663200000000  0.4786040000000 1.0
C      1  0.5316660000000  0.4305530000000  0.5215980000000 1.0
C      1  0.4692860000000  0.5679330000000  0.5224400000000 1.0
C      1  0.4676370000000  0.4323060000000  0.4801570000000 1.0
C      1  0.5163680000000  0.4372210000000  0.5451550000000 1.0
C      1  0.5167970000000  0.5603210000000  0.4541570000000 1.0
C      1  0.4820160000000  0.4374140000000  0.4556690000000 1.0
C      1  0.4843660000000  0.5607560000000  0.5460310000000 1.0
C      1  0.5058880000000  0.5187310000000  0.4325620000000 1.0
C      1  0.4819460000000  0.4921100000000  0.5606290000000 1.0
C      1  0.4948870000000  0.5172450000000  0.5618870000000 1.0
C      1  0.5183800000000  0.4931040000000  0.4357260000000 1.0
C      1  0.5461020000000  0.4947480000000  0.4416660000000 1.0
C      1  0.5449590000000  0.5046350000000  0.5537430000000 1.0
C      1  0.4537320000000  0.4949630000000  0.5596490000000 1.0
C      1  0.4545790000000  0.5071600000000  0.4454210000000 1.0
C      1  0.4905450000000  0.4286450000000  0.5483350000000 1.0
C      1  0.4903280000000  0.5646700000000  0.4548640000000 1.0
C      1  0.5073820000000  0.4264280000000  0.4533120000000 1.0
C      1  0.5109170000000  0.5674570000000  0.5476370000000 1.0
C      1  0.5481560000000  0.4532520000000  0.4748590000000 1.0
C      1  0.5548010000000  0.5492900000000  0.5300520000000 1.0
C      1  0.4461170000000  0.4502450000000  0.5316190000000 1.0
C      1  0.4454970000000  0.5517200000000  0.4719840000000 1.0
C      1  0.5254480000000  0.5379890000000  0.4383460000000 1.0
C      1  0.5221930000000  0.4642540000000  0.5512500000000 1.0
C      1  0.4756480000000  0.5374430000000  0.5597650000000 1.0
C      1  0.4762760000000  0.4640830000000  0.4462360000000 1.0
C      1  0.4164560000000  0.5176610000000  0.5244270000000 1.0
C      1  0.4161890000000  0.4844240000000  0.4794590000000 1.0
C      1  0.5833810000000  0.5152270000000  0.4784680000000 1.0
C      1  0.5856320000000  0.4812650000000  0.5232800000000 1.0
C      1  0.5679090000000  0.4632220000000  0.5375910000000 1.0
C      1  0.5666930000000  0.5336080000000  0.4640560000000 1.0
C      1  0.4331690000000  0.4663470000000  0.4652930000000 1.0
C      1  0.4332170000000  0.5359070000000  0.5385450000000 1.0
C      1  0.5572260000000  0.5548520000000  0.4810730000000 1.0
C      1  0.5588290000000  0.4410380000000  0.5203010000000 1.0
C      1  0.4427870000000  0.5574670000000  0.5210130000000 1.0
C      1  0.4418720000000  0.4442780000000  0.4824740000000 1.0
C      1  0.4173470000000  0.5126920000000  0.4751100000000 1.0
C      1  0.4178230000000  0.4894150000000  0.5287320000000 1.0
C      1  0.5841640000000  0.5101500000000  0.5276120000000 1.0
C      1  0.5815040000000  0.4871640000000  0.4742280000000 1.0
C      1  0.5443180000000  0.4942180000000  0.5064130000000 1.0
C      1  0.5321260000000  0.4727220000000  0.4935850000000 1.0
C      1  0.4655640000000  0.5164090000000  0.4995890000000 1.0
C      1  0.4644250000000  0.4909910000000  0.5054320000000 1.0
C      1  0.5696440000000  0.5494580000000  0.5061770000000 1.0
C      1  0.5692880000000  0.4474930000000  0.4947040000000 1.0
C      1  0.4308480000000  0.5518700000000  0.4959430000000 1.0
C      1  0.4308160000000  0.4501410000000  0.5080170000000 1.0
C      1  0.5062920000000  0.4824290000000  0.4853790000000 1.0
C      1  0.5254870000000  0.5152380000000  0.5123310000000 1.0
C      1  0.4886190000000  0.4782920000000  0.5091240000000 1.0
C      1  0.4862460000000  0.5243090000000  0.4809850000000 1.0
C      1  0.4143670000000  0.5284220000000  0.4982810000000 1.0
C      1  0.4144170000000  0.4737910000000  0.5057170000000 1.0
C      1  0.5863600000000  0.5259400000000  0.5043720000000 1.0
C      1  0.5858640000000  0.4708170000000  0.4967130000000 1.0
C      1  0.4825000000000  0.5129850000000  0.4505220000000 1.0
C      1  0.5019920000000  0.4827500000000  0.5395670000000 1.0
C      1  0.5175700000000  0.5099460000000  0.5427230000000 1.0
C      1  0.4966190000000  0.4832880000000  0.4540550000000 1.0
C      1  0.5104920000000  0.5135340000000  0.4887800000000 1.0
END
