TITL C-109508-6403-2 -78.9865686919893 125000 -504.325181386036 0 0 74 (C3i) n - 1
REM
REM in /rds/project/t2_vol4/rds-t2-cs072/BORA/CARBON/from-Arr/AIRSS/Generating-Clusters/GAP-ML-2020/Higher-Symm/SD-CG/HFTN-CG
REM
REM
REM
REM
REM
REM ./C.cell (b20cbc046b6831c77cfcea5457e17084)
REM AIRSS Version 0.9.1 bugfix July 2018 build 013d7b7c2542+ Fri, 06 Jul 2018 19:26:36 +0100
REM compiler GCC version 9.3.0
REM options -cpp -mtune=generic -march=x86-64 -g -O0
REM seed -1182568218 -175168312 -84052705 -328205498 685332717 -1525895455 -1314717241 -90963483 2049819467 -636243282 -401610195 -524114547 -717150220 841610392 -2049526897 1349034387 -1235165456 -1156915868 -1717125644 33025156 1147453570 1443906137 -2080168599 409433560 742208961 985285704 1496834574 1620928186 -1467683931 -224514145 600849898 -1410019030 639606389
REM
CELL 1.54180   50.00000   50.00000   50.00000   90.00000   90.00000   90.00000
LATT -1
SFAC C  
C      1  0.5044770000000  0.5666530000000  0.4863130000000 1.0
C      1  0.5599020000000  0.5292550000000  0.5136870000000 1.0
C      1  0.5552260000000  0.4625570000000  0.4863120000000 1.0
C      1  0.4951260000000  0.4332560000000  0.5136870000000 1.0
C      1  0.4397010000000  0.4706550000000  0.4863130000000 1.0
C      1  0.4443770000000  0.5373530000000  0.5136880000000 1.0
C      1  0.5408300000000  0.4385450000000  0.5252420000000 1.0
C      1  0.4671330000000  0.4337190000000  0.4747570000000 1.0
C      1  0.4261060000000  0.4951280000000  0.5252430000000 1.0
C      1  0.4587740000000  0.5613640000000  0.4747580000000 1.0
C      1  0.5324700000000  0.5661910000000  0.5252430000000 1.0
C      1  0.5734980000000  0.5047810000000  0.4747570000000 1.0
C      1  0.5079650000000  0.4557270000000  0.4985580000000 1.0
C      1  0.4655810000000  0.4707710000000  0.5014420000000 1.0
C      1  0.4574170000000  0.5149990000000  0.4985580000000 1.0
C      1  0.4916380000000  0.5441830000000  0.5014420000000 1.0
C      1  0.5340230000000  0.5291390000000  0.4985580000000 1.0
C      1  0.5421860000000  0.4849100000000  0.5014420000000 1.0
C      1  0.4302200000000  0.5233140000000  0.5341250000000 1.0
C      1  0.4852400000000  0.5718940000000  0.4658760000000 1.0
C      1  0.5548220000000  0.5485350000000  0.5341250000000 1.0
C      1  0.5693830000000  0.4765960000000  0.4658750000000 1.0
C      1  0.5143630000000  0.4280150000000  0.5341240000000 1.0
C      1  0.4447810000000  0.4513750000000  0.4658750000000 1.0
C      1  0.5507180000000  0.4845440000000  0.4456620000000 1.0
C      1  0.5119130000000  0.4481540000000  0.5543370000000 1.0
C      1  0.4609960000000  0.4635660000000  0.4456630000000 1.0
C      1  0.4488860000000  0.5153660000000  0.5543380000000 1.0
C      1  0.4876900000000  0.5517560000000  0.4456630000000 1.0
C      1  0.5386070000000  0.5363440000000  0.5543370000000 1.0
C      1  0.4663290000000  0.4476260000000  0.5200860000000 1.0
C      1  0.4377470000000  0.5027790000000  0.4799150000000 1.0
C      1  0.4712200000000  0.5551070000000  0.5200860000000 1.0
C      1  0.5332740000000  0.5522830000000  0.4799140000000 1.0
C      1  0.5618560000000  0.4971310000000  0.5200850000000 1.0
C      1  0.5283830000000  0.4448030000000  0.4799140000000 1.0
C      1  0.4896020000000  0.5125860000000  0.5755230000000 1.0
C      1  0.5056410000000  0.5151040000000  0.4244780000000 1.0
C      1  0.5158410000000  0.5024720000000  0.5755220000000 1.0
C      1  0.5100010000000  0.4873230000000  0.4244780000000 1.0
C      1  0.4939620000000  0.4848060000000  0.5755220000000 1.0
C      1  0.4837620000000  0.4974380000000  0.4244780000000 1.0
C      1  0.5492440000000  0.4370030000000  0.4987950000000 1.0
C      1  0.4700050000000  0.4256600000000  0.5012050000000 1.0
C      1  0.4205620000000  0.4886130000000  0.4987950000000 1.0
C      1  0.4503590000000  0.5629070000000  0.5012050000000 1.0
C      1  0.5295990000000  0.5742490000000  0.4987950000000 1.0
C      1  0.5790410000000  0.5112970000000  0.5012050000000 1.0
C      1  0.4646220000000  0.5361430000000  0.4590910000000 1.0
C      1  0.5135520000000  0.5485150000000  0.5409090000000 1.0
C      1  0.5487310000000  0.5123270000000  0.4590910000000 1.0
C      1  0.5349820000000  0.4637660000000  0.5409090000000 1.0
C      1  0.4860510000000  0.4513940000000  0.4590910000000 1.0
C      1  0.4508720000000  0.4875820000000  0.5409090000000 1.0
C      1  0.4591340000000  0.4907960000000  0.4374210000000 1.0
C      1  0.4715360000000  0.5305940000000  0.5625800000000 1.0
C      1  0.5122030000000  0.5397530000000  0.4374210000000 1.0
C      1  0.5404690000000  0.5091140000000  0.5625790000000 1.0
C      1  0.5280670000000  0.4693160000000  0.4374210000000 1.0
C      1  0.4874010000000  0.4601560000000  0.5625790000000 1.0
C      1  0.5522880000000  0.4888130000000  0.5460140000000 1.0
C      1  0.5163950000000  0.4489290000000  0.4539860000000 1.0
C      1  0.4639090000000  0.4600710000000  0.5460140000000 1.0
C      1  0.4473150000000  0.5110970000000  0.4539860000000 1.0
C      1  0.4832080000000  0.5509800000000  0.5460140000000 1.0
C      1  0.5356940000000  0.5398390000000  0.4539860000000 1.0
C      1  0.5108970000000  0.5288110000000  0.5175440000000 1.0
C      1  0.5303390000000  0.5047740000000  0.4824560000000 1.0
C      1  0.5192440000000  0.4759180000000  0.5175430000000 1.0
C      1  0.4887070000000  0.4710990000000  0.4824560000000 1.0
C      1  0.4692640000000  0.4951350000000  0.5175440000000 1.0
C      1  0.4803590000000  0.5239910000000  0.4824570000000 1.0
C      1  0.4998020000000  0.4999550000000  0.5162040000000 1.0
C      1  0.4998020000000  0.4999550000000  0.4837960000000 1.0
END
