TITL C-105236-9115-6 60.3088745220894 125000 -912.918243773108 0 0 134 (C1) n - 1
REM
REM in /rds/project/t2_vol4/rds-t2-cs072/BORA/CARBON/from-Arr/AIRSS/Generating-Clusters/GAP-ML-2020/Higher-Symm/SD-CG/HFTN-CG
REM
REM
REM
REM
REM
REM ./C.cell (b20cbc046b6831c77cfcea5457e17084)
REM AIRSS Version 0.9.1 bugfix July 2018 build 013d7b7c2542+ Fri, 06 Jul 2018 19:26:36 +0100
REM compiler GCC version 9.3.0
REM options -cpp -mtune=generic -march=x86-64 -g -O0
REM seed 907599719 -694354897 1765360862 -777452589 -752344111 -1330985584 2039434285 -380091094 -1400004659 1163539792 1433941070 -1644503796 -2017995202 -1612894936 -715772623 -1932942850 -61403111 -539603546 -1838434835 12408871 -1667008292 -547694934 -157559140 -1929801683 -1233987582 -416067662 -1696295561 -1158342759 -326842286 -817751587 -590242394 716948767 -1067317283
REM
CELL 1.54180   50.00000   50.00000   50.00000   90.00000   90.00000   90.00000
LATT -1
SFAC C  
C      1  0.5581420000000  0.4929310000000  0.5312410000000 1.0
C      1  0.5609760000000  0.5077060000000  0.4716350000000 1.0
C      1  0.4320890000000  0.5143020000000  0.5267000000000 1.0
C      1  0.4324600000000  0.4952620000000  0.4638470000000 1.0
C      1  0.5614020000000  0.5291450000000  0.4940720000000 1.0
C      1  0.5581190000000  0.4707470000000  0.5095770000000 1.0
C      1  0.4326540000000  0.5346800000000  0.5042700000000 1.0
C      1  0.4303370000000  0.4727380000000  0.4836120000000 1.0
C      1  0.4132100000000  0.4751510000000  0.5463830000000 1.0
C      1  0.4163740000000  0.5202190000000  0.4591490000000 1.0
C      1  0.5770120000000  0.5160560000000  0.5375020000000 1.0
C      1  0.5824440000000  0.4872430000000  0.4667440000000 1.0
C      1  0.4161090000000  0.5400540000000  0.4796490000000 1.0
C      1  0.4135600000000  0.4556460000000  0.5258420000000 1.0
C      1  0.5790800000000  0.5353730000000  0.5176480000000 1.0
C      1  0.5800350000000  0.4645690000000  0.4893660000000 1.0
C      1  0.5392790000000  0.4621430000000  0.5941460000000 1.0
C      1  0.5350510000000  0.5336970000000  0.4098440000000 1.0
C      1  0.4665220000000  0.5380960000000  0.5889130000000 1.0
C      1  0.4651230000000  0.4704270000000  0.4059610000000 1.0
C      1  0.5347180000000  0.5904220000000  0.4677450000000 1.0
C      1  0.5413150000000  0.4075690000000  0.5409190000000 1.0
C      1  0.4646770000000  0.5926570000000  0.5308240000000 1.0
C      1  0.4632470000000  0.4162460000000  0.4609500000000 1.0
C      1  0.5182410000000  0.5242660000000  0.5583130000000 1.0
C      1  0.5304320000000  0.4792720000000  0.4419580000000 1.0
C      1  0.4832850000000  0.4649390000000  0.5711770000000 1.0
C      1  0.4672530000000  0.5234540000000  0.4390810000000 1.0
C      1  0.5289030000000  0.5586960000000  0.5200820000000 1.0
C      1  0.5245190000000  0.4428780000000  0.4777030000000 1.0
C      1  0.4668570000000  0.5608260000000  0.4766340000000 1.0
C      1  0.4835070000000  0.4287540000000  0.5356570000000 1.0
C      1  0.4348350000000  0.5600120000000  0.5178490000000 1.0
C      1  0.4309970000000  0.4453000000000  0.4734350000000 1.0
C      1  0.5578490000000  0.4452450000000  0.5226940000000 1.0
C      1  0.5615040000000  0.5551570000000  0.4809990000000 1.0
C      1  0.4386160000000  0.5237750000000  0.5538030000000 1.0
C      1  0.4356690000000  0.4831180000000  0.4381260000000 1.0
C      1  0.5618620000000  0.5211140000000  0.4455860000000 1.0
C      1  0.5566720000000  0.4804080000000  0.5568930000000 1.0
C      1  0.5399840000000  0.5604590000000  0.4629030000000 1.0
C      1  0.5374650000000  0.4392290000000  0.5414530000000 1.0
C      1  0.4472800000000  0.4388870000000  0.4511140000000 1.0
C      1  0.4579090000000  0.5631720000000  0.5352720000000 1.0
C      1  0.5367600000000  0.4608490000000  0.5624260000000 1.0
C      1  0.5400250000000  0.5386170000000  0.4402690000000 1.0
C      1  0.4574020000000  0.4631120000000  0.4358360000000 1.0
C      1  0.4608630000000  0.5421440000000  0.5584430000000 1.0
C      1  0.5483390000000  0.5617790000000  0.5414850000000 1.0
C      1  0.5502180000000  0.4399120000000  0.4612780000000 1.0
C      1  0.4561370000000  0.4384400000000  0.5415070000000 1.0
C      1  0.4468510000000  0.5650660000000  0.4556400000000 1.0
C      1  0.5449690000000  0.5418250000000  0.5618200000000 1.0
C      1  0.5520600000000  0.4598140000000  0.4404520000000 1.0
C      1  0.4471560000000  0.5448140000000  0.4353280000000 1.0
C      1  0.4560660000000  0.4584890000000  0.5616280000000 1.0
C      1  0.5728930000000  0.4788250000000  0.4378140000000 1.0
C      1  0.5669470000000  0.5234160000000  0.5644420000000 1.0
C      1  0.4257210000000  0.5268780000000  0.4319050000000 1.0
C      1  0.4342550000000  0.4769440000000  0.5649290000000 1.0
C      1  0.5708590000000  0.4367990000000  0.4801500000000 1.0
C      1  0.5707000000000  0.5629420000000  0.5237920000000 1.0
C      1  0.4336840000000  0.4363130000000  0.5232740000000 1.0
C      1  0.4255790000000  0.5675160000000  0.4740400000000 1.0
C      1  0.5604850000000  0.4029660000000  0.5215100000000 1.0
C      1  0.5537400000000  0.5980730000000  0.4856750000000 1.0
C      1  0.4464200000000  0.6013140000000  0.5123800000000 1.0
C      1  0.4526170000000  0.4095040000000  0.4852450000000 1.0
C      1  0.5544000000000  0.5160740000000  0.4024760000000 1.0
C      1  0.5564190000000  0.4831470000000  0.5996360000000 1.0
C      1  0.4500220000000  0.5176600000000  0.5960910000000 1.0
C      1  0.4469350000000  0.4889340000000  0.3971040000000 1.0
C      1  0.5121810000000  0.5501380000000  0.4720440000000 1.0
C      1  0.5077500000000  0.4478290000000  0.5308370000000 1.0
C      1  0.4958660000000  0.4512620000000  0.4675940000000 1.0
C      1  0.4845120000000  0.5514270000000  0.5239570000000 1.0
C      1  0.5071570000000  0.4699280000000  0.5526500000000 1.0
C      1  0.5123510000000  0.5283080000000  0.4500740000000 1.0
C      1  0.4851020000000  0.4728220000000  0.4477810000000 1.0
C      1  0.4886660000000  0.5311020000000  0.5463030000000 1.0
C      1  0.5102750000000  0.5071390000000  0.4715960000000 1.0
C      1  0.5062550000000  0.4905670000000  0.5299580000000 1.0
C      1  0.4840390000000  0.4924990000000  0.4703790000000 1.0
C      1  0.4821930000000  0.5073960000000  0.5272040000000 1.0
C      1  0.5070130000000  0.4695510000000  0.5094430000000 1.0
C      1  0.5100780000000  0.5280310000000  0.4920740000000 1.0
C      1  0.4835740000000  0.4693830000000  0.4905670000000 1.0
C      1  0.4837360000000  0.5285620000000  0.5053120000000 1.0
C      1  0.5293620000000  0.5090460000000  0.5319720000000 1.0
C      1  0.5336180000000  0.4901440000000  0.4701910000000 1.0
C      1  0.4564880000000  0.4949920000000  0.5213570000000 1.0
C      1  0.4612360000000  0.5111900000000  0.4659970000000 1.0
C      1  0.5321420000000  0.5302910000000  0.5104110000000 1.0
C      1  0.5318380000000  0.4693450000000  0.4927360000000 1.0
C      1  0.4609890000000  0.5331500000000  0.4875760000000 1.0
C      1  0.4566130000000  0.4748440000000  0.5018780000000 1.0
C      1  0.4385280000000  0.5041940000000  0.5742350000000 1.0
C      1  0.4326080000000  0.5017340000000  0.4173800000000 1.0
C      1  0.5632380000000  0.4981840000000  0.5777870000000 1.0
C      1  0.5669990000000  0.5034070000000  0.4239920000000 1.0
C      1  0.4320040000000  0.5811820000000  0.4996330000000 1.0
C      1  0.4356680000000  0.4273500000000  0.4962250000000 1.0
C      1  0.5663020000000  0.5767670000000  0.4985650000000 1.0
C      1  0.5658430000000  0.4243950000000  0.5053870000000 1.0
C      1  0.5004400000000  0.4120950000000  0.5161190000000 1.0
C      1  0.4938350000000  0.5724520000000  0.4815210000000 1.0
C      1  0.5036110000000  0.5724480000000  0.5143360000000 1.0
C      1  0.5093820000000  0.4170070000000  0.4883650000000 1.0
C      1  0.4943630000000  0.5186360000000  0.4278340000000 1.0
C      1  0.4984120000000  0.4844560000000  0.5887130000000 1.0
C      1  0.5075740000000  0.5129460000000  0.5840730000000 1.0
C      1  0.5040820000000  0.4852310000000  0.4275770000000 1.0
C      1  0.5006150000000  0.5825350000000  0.5629420000000 1.0
C      1  0.5025470000000  0.4226890000000  0.4331870000000 1.0
C      1  0.4975480000000  0.4189140000000  0.5613620000000 1.0
C      1  0.4999080000000  0.5834000000000  0.4351030000000 1.0
C      1  0.5021180000000  0.5644910000000  0.5810450000000 1.0
C      1  0.5009010000000  0.4397300000000  0.4144340000000 1.0
C      1  0.4997440000000  0.5654080000000  0.4172020000000 1.0
C      1  0.4973450000000  0.4392740000000  0.5814550000000 1.0
C      1  0.4917530000000  0.4197860000000  0.4614590000000 1.0
C      1  0.4936990000000  0.5919690000000  0.5367480000000 1.0
C      1  0.5057520000000  0.5921130000000  0.4614010000000 1.0
C      1  0.5142050000000  0.4016420000000  0.5415330000000 1.0
C      1  0.4942580000000  0.4658430000000  0.4060000000000 1.0
C      1  0.4948580000000  0.5395850000000  0.5931700000000 1.0
C      1  0.5123030000000  0.4595320000000  0.5995640000000 1.0
C      1  0.5060050000000  0.5392400000000  0.4083160000000 1.0
C      1  0.6068040000000  0.4647680000000  0.5039670000000 1.0
C      1  0.6102740000000  0.4973460000000  0.4723930000000 1.0
C      1  0.4069570000000  0.4993350000000  0.5312520000000 1.0
C      1  0.4068600000000  0.4704620000000  0.5015790000000 1.0
C      1  0.3934630000000  0.4930890000000  0.5084660000000 1.0
C      1  0.6214720000000  0.4832160000000  0.4919370000000 1.0
END
