TITL C-102474-7252-9 1145.11219203045 125000 -649.275805733275 0 0 91 (C1) n - 1
REM
REM in /rds/project/t2_vol4/rds-t2-cs072/BORA/CARBON/from-Arr/AIRSS/Generating-Clusters/GAP-ML-2020/Higher-Symm/SD-CG/HFTN-CG
REM
REM
REM
REM
REM
REM ./C.cell (b20cbc046b6831c77cfcea5457e17084)
REM AIRSS Version 0.9.1 bugfix July 2018 build 013d7b7c2542+ Fri, 06 Jul 2018 19:26:36 +0100
REM compiler GCC version 9.3.0
REM options -cpp -mtune=generic -march=x86-64 -g -O0
REM seed 644968635 -680314789 -608561674 -492817303 -544773705 1451876006 721920187 1096478920 414527911 1455124878 1817622780 -1955433999 -1944105432 1912323481 -1660823942 -1817806566 -662021221 1567221371 647739760 802088801 446314625 1186691136 1552894835 -136661880 172244916 1141327648 2104188693 1386565099 1823161210 -1786225735 -745721845 108244964 1649342234
REM
CELL 1.54180   50.00000   50.00000   50.00000   90.00000   90.00000   90.00000
LATT -1
SFAC C  
C      1  0.4434900000000  0.4685540000000  0.4510500000000 1.0
C      1  0.5733210000000  0.4798150000000  0.4775360000000 1.0
C      1  0.4845340000000  0.4750740000000  0.5722120000000 1.0
C      1  0.4991400000000  0.4326220000000  0.5483370000000 1.0
C      1  0.4617010000000  0.4285300000000  0.4744250000000 1.0
C      1  0.5437610000000  0.4372310000000  0.4797740000000 1.0
C      1  0.4512980000000  0.5322150000000  0.5572380000000 1.0
C      1  0.4708540000000  0.5328980000000  0.4296390000000 1.0
C      1  0.5762650000000  0.5375500000000  0.5160300000000 1.0
C      1  0.5725480000000  0.5335530000000  0.4872980000000 1.0
C      1  0.4797360000000  0.5281840000000  0.5673940000000 1.0
C      1  0.4491630000000  0.5389390000000  0.4483030000000 1.0
C      1  0.4646820000000  0.5706160000000  0.5343380000000 1.0
C      1  0.4899080000000  0.5745430000000  0.4411410000000 1.0
C      1  0.5543440000000  0.5728170000000  0.5148150000000 1.0
C      1  0.5027860000000  0.4149990000000  0.5011250000000 1.0
C      1  0.5009950000000  0.4717200000000  0.5118920000000 1.0
C      1  0.4850720000000  0.4763540000000  0.4899630000000 1.0
C      1  0.5130050000000  0.4807360000000  0.5737430000000 1.0
C      1  0.4261690000000  0.4747270000000  0.4742960000000 1.0
C      1  0.5627380000000  0.4851020000000  0.4505650000000 1.0
C      1  0.4496890000000  0.4937260000000  0.4397090000000 1.0
C      1  0.5796380000000  0.5041000000000  0.4913740000000 1.0
C      1  0.4684340000000  0.4977320000000  0.5707590000000 1.0
C      1  0.4313770000000  0.4939990000000  0.5322630000000 1.0
C      1  0.4982150000000  0.4926660000000  0.4203820000000 1.0
C      1  0.5685230000000  0.4965410000000  0.5429200000000 1.0
C      1  0.4719120000000  0.5048980000000  0.4245700000000 1.0
C      1  0.5809530000000  0.5092490000000  0.5204670000000 1.0
C      1  0.4446130000000  0.5046060000000  0.5559910000000 1.0
C      1  0.5039500000000  0.4649390000000  0.4262310000000 1.0
C      1  0.5628430000000  0.4679170000000  0.5432780000000 1.0
C      1  0.4346230000000  0.4650920000000  0.5294780000000 1.0
C      1  0.4891950000000  0.5712030000000  0.5479500000000 1.0
C      1  0.4755440000000  0.5776450000000  0.4635230000000 1.0
C      1  0.5400060000000  0.5727610000000  0.4920280000000 1.0
C      1  0.5532240000000  0.5511880000000  0.4729560000000 1.0
C      1  0.4977150000000  0.5539960000000  0.5717100000000 1.0
C      1  0.4512870000000  0.5612980000000  0.4655790000000 1.0
C      1  0.5426750000000  0.4300950000000  0.5250030000000 1.0
C      1  0.4609850000000  0.4268180000000  0.5230800000000 1.0
C      1  0.5028030000000  0.4284840000000  0.4548060000000 1.0
C      1  0.5279290000000  0.4349790000000  0.5486760000000 1.0
C      1  0.4478370000000  0.4314000000000  0.4986880000000 1.0
C      1  0.5291990000000  0.4374260000000  0.4553960000000 1.0
C      1  0.5297140000000  0.5034820000000  0.5008800000000 1.0
C      1  0.4829360000000  0.5147650000000  0.5207350000000 1.0
C      1  0.4854810000000  0.5199990000000  0.4739110000000 1.0
C      1  0.5481700000000  0.5123110000000  0.5551590000000 1.0
C      1  0.4277550000000  0.5126200000000  0.5083880000000 1.0
C      1  0.5207390000000  0.5093630000000  0.4260660000000 1.0
C      1  0.5201650000000  0.5420710000000  0.5325670000000 1.0
C      1  0.4638670000000  0.5773600000000  0.5068370000000 1.0
C      1  0.5211520000000  0.5296430000000  0.5055950000000 1.0
C      1  0.4071180000000  0.4583540000000  0.4866940000000 1.0
C      1  0.5564070000000  0.4664700000000  0.4311420000000 1.0
C      1  0.5340420000000  0.4672670000000  0.5858360000000 1.0
C      1  0.4602400000000  0.4454980000000  0.4507550000000 1.0
C      1  0.5641210000000  0.4552040000000  0.4912350000000 1.0
C      1  0.4777830000000  0.4501520000000  0.5587910000000 1.0
C      1  0.5225660000000  0.4860630000000  0.5219260000000 1.0
C      1  0.4775780000000  0.4878660000000  0.5146320000000 1.0
C      1  0.4954910000000  0.4941190000000  0.4707730000000 1.0
C      1  0.5106610000000  0.5707710000000  0.5291270000000 1.0
C      1  0.4860700000000  0.5843890000000  0.4900630000000 1.0
C      1  0.5121270000000  0.5800530000000  0.5015600000000 1.0
C      1  0.5199940000000  0.5374310000000  0.4308610000000 1.0
C      1  0.5438550000000  0.5416710000000  0.5529290000000 1.0
C      1  0.4338330000000  0.5409830000000  0.5119180000000 1.0
C      1  0.5252000000000  0.5522730000000  0.5727850000000 1.0
C      1  0.4441070000000  0.5609860000000  0.4932610000000 1.0
C      1  0.5422570000000  0.5372750000000  0.4503540000000 1.0
C      1  0.4279360000000  0.5030400000000  0.4810150000000 1.0
C      1  0.5409330000000  0.5063830000000  0.4502460000000 1.0
C      1  0.5205420000000  0.5003240000000  0.5521490000000 1.0
C      1  0.5628160000000  0.4502030000000  0.5201680000000 1.0
C      1  0.4542630000000  0.4470770000000  0.5420870000000 1.0
C      1  0.4865470000000  0.4454050000000  0.4385670000000 1.0
C      1  0.4446790000000  0.5499630000000  0.5373520000000 1.0
C      1  0.4940260000000  0.5503010000000  0.4296160000000 1.0
C      1  0.5640340000000  0.5560750000000  0.5335160000000 1.0
C      1  0.5305000000000  0.4225120000000  0.5007570000000 1.0
C      1  0.4882550000000  0.4191430000000  0.5252920000000 1.0
C      1  0.4884300000000  0.4184700000000  0.4769340000000 1.0
C      1  0.5429120000000  0.4567630000000  0.5616490000000 1.0
C      1  0.4283160000000  0.4522460000000  0.5040690000000 1.0
C      1  0.5306960000000  0.4568580000000  0.4341740000000 1.0
C      1  0.5239860000000  0.4948270000000  0.4735110000000 1.0
C      1  0.4996010000000  0.5217580000000  0.5446920000000 1.0
C      1  0.4381450000000  0.5139580000000  0.4564240000000 1.0
C      1  0.4927010000000  0.5286200000000  0.4984600000000 1.0
END
