TITL C-105254-9200-8 -0.00115418457577962 125000 -41.8553018805349 0 0 7 (D7h) n - 1
REM
REM in /rds/project/t2_vol4/rds-t2-cs072/BORA/CARBON/from-Arr/AIRSS/Generating-Clusters/GAP-ML-2020/Higher-Symm/SD-CG/HFTN-CG
REM
REM
REM
REM
REM
REM ./C.cell (b20cbc046b6831c77cfcea5457e17084)
REM AIRSS Version 0.9.1 bugfix July 2018 build 013d7b7c2542+ Fri, 06 Jul 2018 19:26:36 +0100
REM compiler GCC version 9.3.0
REM options -cpp -mtune=generic -march=x86-64 -g -O0
REM seed 1348879099 1803430945 -123358191 1895578831 1072624075 838841833 -616195650 674400063 1798755054 2092539521 1664236526 -1801572501 -1281232279 -1999866268 -999790958 -890327925 -468182261 -2054507444 1027770567 -597711632 1840496454 -1865048673 604276152 2012191872 -1197066123 -825216461 1320470695 906260751 1739901096 -1344212814 -1092465385 -93412446 -1124748076
REM
CELL 1.54180   50.00000   50.00000   50.00000   90.00000   90.00000   90.00000
LATT -1
SFAC C  
C      1  0.5273200000000  0.5069470000000  0.4799560000000 1.0
C      1  0.4846800000000  0.4997860000000  0.5205650000000 1.0
C      1  0.5082000000000  0.5229500000000  0.4712830000000 1.0
C      1  0.5274350000000  0.4915580000000  0.5014050000000 1.0
C      1  0.4740060000000  0.5172070000000  0.5038490000000 1.0
C      1  0.4844730000000  0.5275160000000  0.4819160000000 1.0
C      1  0.5084580000000  0.4883710000000  0.5194780000000 1.0
END
