TITL C-100361-5798-8 -43.6820594955305 125000 -165.624771060499 0 0 26 (C1) n - 1
REM
REM in /rds/project/t2_vol4/rds-t2-cs072/BORA/CARBON/from-Arr/AIRSS/Generating-Clusters/GAP-ML-2020/Higher-Symm/SD-CG/HFTN-CG
REM
REM
REM
REM
REM
REM ./C.cell (b20cbc046b6831c77cfcea5457e17084)
REM AIRSS Version 0.9.1 bugfix July 2018 build 013d7b7c2542+ Fri, 06 Jul 2018 19:26:36 +0100
REM compiler GCC version 9.3.0
REM options -cpp -mtune=generic -march=x86-64 -g -O0
REM seed 1741682528 1782276092 -1084886970 -1420601702 1432458537 -2120294199 811556325 1524355243 940191508 -1264633265 -136366104 -4366569 2066138160 -1447733405 275442515 -837837425 -1910705887 1037503984 -367940781 1670627893 -887358890 1429008103 1436220462 -1166952059 -590365861 -719379871 -1096401896 -1721421740 813876738 -799769921 -1796876472 611129506 -1428765814
REM
CELL 1.54180   50.00000   50.00000   50.00000   90.00000   90.00000   90.00000
LATT -1
SFAC C  
C      1  0.5251720000000  0.4659780000000  0.4710390000000 1.0
C      1  0.4761210000000  0.4665950000000  0.4663110000000 1.0
C      1  0.5171350000000  0.5276450000000  0.5557010000000 1.0
C      1  0.4769400000000  0.5468830000000  0.5531420000000 1.0
C      1  0.5157140000000  0.5532270000000  0.4992660000000 1.0
C      1  0.5047530000000  0.5531730000000  0.4726850000000 1.0
C      1  0.5309710000000  0.5418140000000  0.4772910000000 1.0
C      1  0.4848670000000  0.5499310000000  0.4550870000000 1.0
C      1  0.5433310000000  0.4698680000000  0.5067740000000 1.0
C      1  0.4554340000000  0.4662760000000  0.5005250000000 1.0
C      1  0.5032160000000  0.5051550000000  0.4639080000000 1.0
C      1  0.4810930000000  0.5234470000000  0.4628940000000 1.0
C      1  0.5221030000000  0.5165940000000  0.5335010000000 1.0
C      1  0.4678900000000  0.5369000000000  0.5315140000000 1.0
C      1  0.4654340000000  0.5138100000000  0.4847640000000 1.0
C      1  0.5243660000000  0.5132070000000  0.4823580000000 1.0
C      1  0.5086220000000  0.5248440000000  0.5091670000000 1.0
C      1  0.4771360000000  0.5241070000000  0.5096490000000 1.0
C      1  0.5258620000000  0.4486240000000  0.4929040000000 1.0
C      1  0.4751060000000  0.4486730000000  0.4889670000000 1.0
C      1  0.4588300000000  0.4864290000000  0.4817550000000 1.0
C      1  0.5390540000000  0.4878270000000  0.4863120000000 1.0
C      1  0.5012390000000  0.4775760000000  0.4610840000000 1.0
C      1  0.4973030000000  0.4411590000000  0.5290780000000 1.0
C      1  0.4995350000000  0.4398020000000  0.5026770000000 1.0
C      1  0.4991530000000  0.5440800000000  0.5674300000000 1.0
END
