TITL C-100749-6503-7 0.0308190044718025 125000 -94.994853893916 0 0 15 (Cs) n - 1
REM
REM in /rds/project/t2_vol4/rds-t2-cs072/BORA/CARBON/from-Arr/AIRSS/Generating-Clusters/GAP-ML-2020/Higher-Symm/SD-CG/HFTN-CG
REM
REM
REM
REM
REM
REM ./C.cell (b20cbc046b6831c77cfcea5457e17084)
REM AIRSS Version 0.9.1 bugfix July 2018 build 013d7b7c2542+ Fri, 06 Jul 2018 19:26:36 +0100
REM compiler GCC version 9.3.0
REM options -cpp -mtune=generic -march=x86-64 -g -O0
REM seed 1863272687 1233103661 142633897 -986766958 -1275103956 932126888 2146078132 -875226506 1944248574 2144700179 543909281 -508582067 1431651037 -681986367 213340693 -1606309860 -1944535574 -808820953 1943749139 -160752793 1978488368 1253163652 -293672903 -462383610 -1995854662 -83233568 -1259021707 109744393 1926532443 -433861714 262920081 1496316080 -1993808906
REM
CELL 1.54180   50.00000   50.00000   50.00000   90.00000   90.00000   90.00000
LATT -1
SFAC C  
C      1  0.5258370000000  0.5110190000000  0.5191220000000 1.0
C      1  0.4974520000000  0.4702020000000  0.5158250000000 1.0
C      1  0.4755080000000  0.5152300000000  0.5213240000000 1.0
C      1  0.4641180000000  0.5180050000000  0.4946910000000 1.0
C      1  0.5319160000000  0.5193670000000  0.4915800000000 1.0
C      1  0.5026430000000  0.4633910000000  0.4875880000000 1.0
C      1  0.4837160000000  0.5324930000000  0.4835670000000 1.0
C      1  0.5420780000000  0.4984870000000  0.4769400000000 1.0
C      1  0.4791480000000  0.4731590000000  0.4791250000000 1.0
C      1  0.5236390000000  0.4824690000000  0.5169850000000 1.0
C      1  0.4732340000000  0.4856900000000  0.5191130000000 1.0
C      1  0.5018380000000  0.5271630000000  0.5200900000000 1.0
C      1  0.5286900000000  0.4774630000000  0.4884430000000 1.0
C      1  0.4618580000000  0.4886530000000  0.4924930000000 1.0
C      1  0.5083260000000  0.5372090000000  0.4931140000000 1.0
END
