TITL C-102470-7283-1 -0.0692975150431259 125000 -830.617166965451 0 0 122 (C1) n - 1
REM
REM in /rds/project/t2_vol4/rds-t2-cs072/BORA/CARBON/from-Arr/AIRSS/Generating-Clusters/GAP-ML-2020/Higher-Symm/SD-CG/HFTN-CG
REM
REM
REM
REM
REM
REM ./C.cell (b20cbc046b6831c77cfcea5457e17084)
REM AIRSS Version 0.9.1 bugfix July 2018 build 013d7b7c2542+ Fri, 06 Jul 2018 19:26:36 +0100
REM compiler GCC version 9.3.0
REM options -cpp -mtune=generic -march=x86-64 -g -O0
REM seed 1063620602 -94439167 689660695 -707563822 522987450 600810443 -1376651738 357284646 376212427 -1283029401 -480645578 966242429 -641851139 1362085862 -1890454789 -744585071 -1120415964 696669884 757001236 1400139884 -642021490 2109632201 1978116229 -928181328 -909897588 879054660 1006921875 1918089363 -2069700886 -1766881385 175863466 -1564978736 -593414240
REM
CELL 1.54180   50.00000   50.00000   50.00000   90.00000   90.00000   90.00000
LATT -1
SFAC C  
C      1  0.5548950000000  0.5640020000000  0.5484830000000 1.0
C      1  0.5535620000000  0.5473070000000  0.4344360000000 1.0
C      1  0.5555900000000  0.4361900000000  0.4517580000000 1.0
C      1  0.5547220000000  0.4538180000000  0.5647800000000 1.0
C      1  0.4436750000000  0.5648650000000  0.5463390000000 1.0
C      1  0.4435240000000  0.5484770000000  0.4358210000000 1.0
C      1  0.4447030000000  0.4343720000000  0.4527280000000 1.0
C      1  0.4427020000000  0.4516950000000  0.5635820000000 1.0
C      1  0.5752310000000  0.5541680000000  0.4776910000000 1.0
C      1  0.5751920000000  0.4776500000000  0.4355420000000 1.0
C      1  0.5768990000000  0.4477520000000  0.5220370000000 1.0
C      1  0.5757430000000  0.5232580000000  0.5642050000000 1.0
C      1  0.4231210000000  0.5643080000000  0.4767150000000 1.0
C      1  0.4230430000000  0.4776460000000  0.4458910000000 1.0
C      1  0.4226690000000  0.4355770000000  0.5222430000000 1.0
C      1  0.4215550000000  0.5220190000000  0.5523270000000 1.0
C      1  0.5124750000000  0.4660900000000  0.5541540000000 1.0
C      1  0.5135400000000  0.5532520000000  0.5346130000000 1.0
C      1  0.5122850000000  0.5331250000000  0.4461310000000 1.0
C      1  0.5143910000000  0.4463140000000  0.4667320000000 1.0
C      1  0.4843460000000  0.4657500000000  0.5535390000000 1.0
C      1  0.4856070000000  0.5537940000000  0.5338820000000 1.0
C      1  0.4844470000000  0.5337030000000  0.4466790000000 1.0
C      1  0.4863520000000  0.4457250000000  0.4667840000000 1.0
C      1  0.5771180000000  0.4708920000000  0.4641950000000 1.0
C      1  0.5770420000000  0.4744430000000  0.5337710000000 1.0
C      1  0.5768980000000  0.5301150000000  0.5355870000000 1.0
C      1  0.5759770000000  0.5272000000000  0.4660410000000 1.0
C      1  0.4224100000000  0.4659890000000  0.4728140000000 1.0
C      1  0.4212440000000  0.4640920000000  0.5290840000000 1.0
C      1  0.4213040000000  0.5338030000000  0.5256170000000 1.0
C      1  0.4214640000000  0.5355390000000  0.4699310000000 1.0
C      1  0.5288340000000  0.4596350000000  0.5758600000000 1.0
C      1  0.5297920000000  0.5751820000000  0.5408780000000 1.0
C      1  0.5279590000000  0.5399750000000  0.4240450000000 1.0
C      1  0.5307450000000  0.4246720000000  0.4599290000000 1.0
C      1  0.4677130000000  0.4595840000000  0.5751590000000 1.0
C      1  0.4695280000000  0.5757920000000  0.5399270000000 1.0
C      1  0.4685040000000  0.5406140000000  0.4247100000000 1.0
C      1  0.4704060000000  0.4239320000000  0.4595040000000 1.0
C      1  0.4171240000000  0.5743600000000  0.5012020000000 1.0
C      1  0.4164060000000  0.5024280000000  0.4370510000000 1.0
C      1  0.4166570000000  0.4257050000000  0.4976480000000 1.0
C      1  0.4141550000000  0.4972170000000  0.5607960000000 1.0
C      1  0.5818150000000  0.5630600000000  0.5024670000000 1.0
C      1  0.5808720000000  0.5022710000000  0.4256250000000 1.0
C      1  0.5843470000000  0.4392170000000  0.4972650000000 1.0
C      1  0.5820720000000  0.4987960000000  0.5742010000000 1.0
C      1  0.5091190000000  0.4735210000000  0.3932830000000 1.0
C      1  0.5064970000000  0.3925790000000  0.5222350000000 1.0
C      1  0.5164260000000  0.5247880000000  0.6135590000000 1.0
C      1  0.5148980000000  0.6057730000000  0.4741130000000 1.0
C      1  0.4835740000000  0.4737010000000  0.3942810000000 1.0
C      1  0.4819410000000  0.3865100000000  0.5251190000000 1.0
C      1  0.4919110000000  0.5217190000000  0.6074080000000 1.0
C      1  0.4893430000000  0.6067260000000  0.4739900000000 1.0
C      1  0.5523970000000  0.5606900000000  0.4605500000000 1.0
C      1  0.5515790000000  0.4603620000000  0.4350880000000 1.0
C      1  0.5541100000000  0.4400230000000  0.5391230000000 1.0
C      1  0.5515530000000  0.5398560000000  0.5651470000000 1.0
C      1  0.4470540000000  0.5650740000000  0.4600010000000 1.0
C      1  0.4457940000000  0.4603840000000  0.4393460000000 1.0
C      1  0.4465290000000  0.4349440000000  0.5394440000000 1.0
C      1  0.4444000000000  0.5390150000000  0.5600540000000 1.0
C      1  0.4436040000000  0.4792300000000  0.5184860000000 1.0
C      1  0.4448980000000  0.5270210000000  0.5101120000000 1.0
C      1  0.4435590000000  0.5202110000000  0.4808660000000 1.0
C      1  0.4454320000000  0.4724300000000  0.4894670000000 1.0
C      1  0.5532180000000  0.4900090000000  0.5275620000000 1.0
C      1  0.5545690000000  0.5189900000000  0.5207340000000 1.0
C      1  0.5531660000000  0.5105990000000  0.4729980000000 1.0
C      1  0.5549930000000  0.4812520000000  0.4798570000000 1.0
C      1  0.5125660000000  0.4801110000000  0.5894150000000 1.0
C      1  0.5152030000000  0.5893130000000  0.5200840000000 1.0
C      1  0.5123020000000  0.5193640000000  0.4103000000000 1.0
C      1  0.5157630000000  0.4104800000000  0.4808940000000 1.0
C      1  0.4828810000000  0.4804650000000  0.5892900000000 1.0
C      1  0.4856460000000  0.5895350000000  0.5196630000000 1.0
C      1  0.4828290000000  0.5196890000000  0.4105200000000 1.0
C      1  0.4861700000000  0.4103780000000  0.4803650000000 1.0
C      1  0.4726210000000  0.5183840000000  0.4698220000000 1.0
C      1  0.4742340000000  0.4679060000000  0.4829820000000 1.0
C      1  0.4725810000000  0.4812700000000  0.5304520000000 1.0
C      1  0.4736320000000  0.5315140000000  0.5175630000000 1.0
C      1  0.5243550000000  0.5170150000000  0.4683930000000 1.0
C      1  0.5260240000000  0.4695080000000  0.4819110000000 1.0
C      1  0.5244950000000  0.4824920000000  0.5319490000000 1.0
C      1  0.5254980000000  0.5302080000000  0.5189690000000 1.0
C      1  0.4850480000000  0.5369880000000  0.4897360000000 1.0
C      1  0.4825630000000  0.4893600000000  0.4634990000000 1.0
C      1  0.4853470000000  0.4623830000000  0.5108330000000 1.0
C      1  0.4822110000000  0.5103770000000  0.5372970000000 1.0
C      1  0.5158170000000  0.5365330000000  0.4898220000000 1.0
C      1  0.5133070000000  0.4892100000000  0.4630960000000 1.0
C      1  0.5161210000000  0.4627160000000  0.5108500000000 1.0
C      1  0.5130120000000  0.5103640000000  0.5376460000000 1.0
C      1  0.4738200000000  0.5093430000000  0.5900990000000 1.0
C      1  0.4758520000000  0.5896180000000  0.4909770000000 1.0
C      1  0.4717590000000  0.4916740000000  0.4118410000000 1.0
C      1  0.4750450000000  0.4096350000000  0.5086540000000 1.0
C      1  0.5234670000000  0.5084240000000  0.5903730000000 1.0
C      1  0.5264250000000  0.5880350000000  0.4921350000000 1.0
C      1  0.5223320000000  0.4906740000000  0.4104490000000 1.0
C      1  0.5246710000000  0.4098000000000  0.5098410000000 1.0
C      1  0.5301130000000  0.4351570000000  0.5227340000000 1.0
C      1  0.5276770000000  0.5224240000000  0.5651240000000 1.0
C      1  0.5297310000000  0.5629770000000  0.4788290000000 1.0
C      1  0.5277790000000  0.4775930000000  0.4354140000000 1.0
C      1  0.4706720000000  0.4349330000000  0.5225810000000 1.0
C      1  0.4683410000000  0.5223870000000  0.5647890000000 1.0
C      1  0.4705750000000  0.5647160000000  0.4777930000000 1.0
C      1  0.4685160000000  0.4784670000000  0.4369400000000 1.0
C      1  0.5774890000000  0.5582820000000  0.5291810000000 1.0
C      1  0.5760630000000  0.5272730000000  0.4367260000000 1.0
C      1  0.5783980000000  0.4427760000000  0.4706800000000 1.0
C      1  0.5769670000000  0.4739550000000  0.5629930000000 1.0
C      1  0.4214940000000  0.5630710000000  0.5261570000000 1.0
C      1  0.4208890000000  0.5291460000000  0.4417750000000 1.0
C      1  0.4221690000000  0.4367090000000  0.4727610000000 1.0
C      1  0.4199590000000  0.4706240000000  0.5572010000000 1.0
C      1  0.4367150000000  0.4998600000000  0.4998500000000 1.0
C      1  0.5616300000000  0.5003530000000  0.5000780000000 1.0
END
