TITL C-101429-5100-4 245.178324470828 125000 -498.147583630456 0 0 74 (C1) n - 1
REM
REM in /rds/project/t2_vol4/rds-t2-cs072/BORA/CARBON/from-Arr/AIRSS/Generating-Clusters/GAP-ML-2020/Higher-Symm/SD-CG/HFTN-CG
REM
REM
REM
REM
REM
REM ./C.cell (b20cbc046b6831c77cfcea5457e17084)
REM AIRSS Version 0.9.1 bugfix July 2018 build 013d7b7c2542+ Fri, 06 Jul 2018 19:26:36 +0100
REM compiler GCC version 9.3.0
REM options -cpp -mtune=generic -march=x86-64 -g -O0
REM seed 692757225 -213453803 1718780202 -520536967 280156010 -2082563583 1969607240 1618536539 1880559775 -1069465540 -1405406857 -593135811 -1515997075 472147925 -821331639 -647379742 -1552907070 -765742937 -371405562 380166916 -1962592272 624951124 1784448377 -493834061 -405811670 -386333046 -1761177094 -1582303076 -2090163257 -882706936 -1341628437 -1004562120 -1179541506
REM
CELL 1.54180   50.00000   50.00000   50.00000   90.00000   90.00000   90.00000
LATT -1
SFAC C  
C      1  0.5287540000000  0.5301920000000  0.5557810000000 1.0
C      1  0.5284980000000  0.4567970000000  0.5518170000000 1.0
C      1  0.5272250000000  0.4266320000000  0.5014140000000 1.0
C      1  0.5312980000000  0.4647860000000  0.4360930000000 1.0
C      1  0.5364550000000  0.5398730000000  0.4394530000000 1.0
C      1  0.5278640000000  0.5919560000000  0.4944790000000 1.0
C      1  0.4683300000000  0.5335190000000  0.5605800000000 1.0
C      1  0.4670560000000  0.4588620000000  0.5516180000000 1.0
C      1  0.4667960000000  0.4275780000000  0.5019160000000 1.0
C      1  0.4661830000000  0.4673440000000  0.4358500000000 1.0
C      1  0.4660850000000  0.5408840000000  0.4409340000000 1.0
C      1  0.4670370000000  0.5681210000000  0.5109250000000 1.0
C      1  0.4858750000000  0.5115810000000  0.4663010000000 1.0
C      1  0.4903130000000  0.5328420000000  0.4891390000000 1.0
C      1  0.4919150000000  0.5228970000000  0.5172860000000 1.0
C      1  0.4766700000000  0.4996600000000  0.5236660000000 1.0
C      1  0.4940390000000  0.4625930000000  0.5109800000000 1.0
C      1  0.4841890000000  0.4842800000000  0.4755550000000 1.0
C      1  0.5178250000000  0.5089610000000  0.4645060000000 1.0
C      1  0.5192010000000  0.5345640000000  0.4793360000000 1.0
C      1  0.5203840000000  0.5231560000000  0.5246260000000 1.0
C      1  0.5244040000000  0.4946360000000  0.5259990000000 1.0
C      1  0.5185090000000  0.4765390000000  0.5052210000000 1.0
C      1  0.5152770000000  0.4818920000000  0.4770280000000 1.0
C      1  0.4850120000000  0.5724130000000  0.5323180000000 1.0
C      1  0.4844110000000  0.5104120000000  0.5688080000000 1.0
C      1  0.4825160000000  0.4354010000000  0.5489900000000 1.0
C      1  0.4828330000000  0.4328360000000  0.4776350000000 1.0
C      1  0.4852990000000  0.4885590000000  0.4255400000000 1.0
C      1  0.4847110000000  0.5577930000000  0.4546870000000 1.0
C      1  0.5144770000000  0.5723380000000  0.5335920000000 1.0
C      1  0.5124490000000  0.5090360000000  0.5693240000000 1.0
C      1  0.5118410000000  0.4349370000000  0.5485280000000 1.0
C      1  0.5114260000000  0.4315880000000  0.4773100000000 1.0
C      1  0.5134070000000  0.4873120000000  0.4244520000000 1.0
C      1  0.5151100000000  0.5558940000000  0.4578830000000 1.0
C      1  0.5681990000000  0.4793260000000  0.5229060000000 1.0
C      1  0.5667260000000  0.4665500000000  0.4968730000000 1.0
C      1  0.5664020000000  0.4808020000000  0.4712780000000 1.0
C      1  0.5661110000000  0.5123520000000  0.4744320000000 1.0
C      1  0.5621060000000  0.5228560000000  0.5011800000000 1.0
C      1  0.5678790000000  0.5090790000000  0.5266780000000 1.0
C      1  0.4312350000000  0.4835730000000  0.5236320000000 1.0
C      1  0.4411880000000  0.4738820000000  0.4966200000000 1.0
C      1  0.4339310000000  0.4872290000000  0.4708670000000 1.0
C      1  0.4332790000000  0.5175010000000  0.4746230000000 1.0
C      1  0.4317970000000  0.5277260000000  0.5026470000000 1.0
C      1  0.4308470000000  0.5114900000000  0.5270680000000 1.0
C      1  0.4424190000000  0.5338770000000  0.4541240000000 1.0
C      1  0.4460530000000  0.5492460000000  0.5172950000000 1.0
C      1  0.4459400000000  0.5331740000000  0.5417530000000 1.0
C      1  0.4439980000000  0.4594360000000  0.5349720000000 1.0
C      1  0.4459280000000  0.4466210000000  0.5085880000000 1.0
C      1  0.4427110000000  0.4765890000000  0.4472180000000 1.0
C      1  0.5584370000000  0.5295410000000  0.4533470000000 1.0
C      1  0.5316340000000  0.5693350000000  0.5114640000000 1.0
C      1  0.5562270000000  0.5219620000000  0.5483280000000 1.0
C      1  0.5519510000000  0.4569530000000  0.5345670000000 1.0
C      1  0.5503330000000  0.4439560000000  0.5081120000000 1.0
C      1  0.5557640000000  0.4702430000000  0.4478310000000 1.0
C      1  0.5098070000000  0.5780240000000  0.4809160000000 1.0
C      1  0.5144500000000  0.5556530000000  0.5571370000000 1.0
C      1  0.5144370000000  0.4835310000000  0.5529040000000 1.0
C      1  0.5113920000000  0.4199900000000  0.5235700000000 1.0
C      1  0.5142040000000  0.4555010000000  0.4591270000000 1.0
C      1  0.5170620000000  0.5154740000000  0.4353020000000 1.0
C      1  0.4830860000000  0.5636690000000  0.4851290000000 1.0
C      1  0.4852350000000  0.5555530000000  0.5565510000000 1.0
C      1  0.4824640000000  0.4853800000000  0.5516820000000 1.0
C      1  0.4822710000000  0.4197320000000  0.5240720000000 1.0
C      1  0.4822450000000  0.4571060000000  0.4592410000000 1.0
C      1  0.4845020000000  0.5168200000000  0.4365890000000 1.0
C      1  0.4723830000000  0.4809650000000  0.5018990000000 1.0
C      1  0.5370380000000  0.5390690000000  0.5039790000000 1.0
END
