TITL C-105232-9170-7 -588.441276180724 125000 -683.952097833807 0 0 98 (C1) n - 1
REM
REM in /rds/project/t2_vol4/rds-t2-cs072/BORA/CARBON/from-Arr/AIRSS/Generating-Clusters/GAP-ML-2020/Higher-Symm/SD-CG/HFTN-CG
REM
REM
REM
REM
REM
REM ./C.cell (b20cbc046b6831c77cfcea5457e17084)
REM AIRSS Version 0.9.1 bugfix July 2018 build 013d7b7c2542+ Fri, 06 Jul 2018 19:26:36 +0100
REM compiler GCC version 9.3.0
REM options -cpp -mtune=generic -march=x86-64 -g -O0
REM seed 157815993 -1783111622 1904504578 -1905554898 421896532 1040477703 -1115210861 -1155311687 574038491 1956390019 -1499786330 -1020792100 -88595162 1056556949 389232540 -159046589 -1743964557 -352383894 -1856131927 -293015983 863521727 -1778481555 992247595 342582668 -971568925 -1478885661 790117020 -1748987811 -1723980779 641734682 2130476483 1032416376 -935656848
REM
CELL 1.54180   50.00000   50.00000   50.00000   90.00000   90.00000   90.00000
LATT -1
SFAC C  
C      1  0.4848350000000  0.5292040000000  0.4971370000000 1.0
C      1  0.4829390000000  0.5069700000000  0.4763680000000 1.0
C      1  0.4884030000000  0.4557610000000  0.4844220000000 1.0
C      1  0.4779710000000  0.4882860000000  0.5191260000000 1.0
C      1  0.4820200000000  0.5174000000000  0.5244680000000 1.0
C      1  0.5256410000000  0.5231350000000  0.4949710000000 1.0
C      1  0.5231840000000  0.4998410000000  0.4772140000000 1.0
C      1  0.5272170000000  0.4762460000000  0.4913740000000 1.0
C      1  0.5240570000000  0.4836930000000  0.5186850000000 1.0
C      1  0.5266690000000  0.5125320000000  0.5215260000000 1.0
C      1  0.4501050000000  0.5169140000000  0.4316100000000 1.0
C      1  0.4415040000000  0.4400700000000  0.4613160000000 1.0
C      1  0.4474860000000  0.4471050000000  0.5451180000000 1.0
C      1  0.4498120000000  0.5314810000000  0.5688010000000 1.0
C      1  0.4501750000000  0.5741370000000  0.4941980000000 1.0
C      1  0.5472200000000  0.5144440000000  0.4363710000000 1.0
C      1  0.5524660000000  0.4320080000000  0.4609890000000 1.0
C      1  0.5518560000000  0.4481750000000  0.5436050000000 1.0
C      1  0.5446060000000  0.5301420000000  0.5662280000000 1.0
C      1  0.5464810000000  0.5716450000000  0.4943500000000 1.0
C      1  0.5755830000000  0.4442900000000  0.5001620000000 1.0
C      1  0.5575580000000  0.4875240000000  0.5661060000000 1.0
C      1  0.5575430000000  0.5617580000000  0.5358060000000 1.0
C      1  0.5597800000000  0.5509560000000  0.4563060000000 1.0
C      1  0.5621630000000  0.4690820000000  0.4338500000000 1.0
C      1  0.4391810000000  0.4282000000000  0.5091750000000 1.0
C      1  0.4432880000000  0.4899710000000  0.5679580000000 1.0
C      1  0.4446740000000  0.5640050000000  0.5344980000000 1.0
C      1  0.4453870000000  0.5518230000000  0.4536100000000 1.0
C      1  0.4435370000000  0.4720710000000  0.4359520000000 1.0
C      1  0.4501220000000  0.4254830000000  0.4836860000000 1.0
C      1  0.4571360000000  0.4641870000000  0.5655080000000 1.0
C      1  0.4596090000000  0.5562160000000  0.5584430000000 1.0
C      1  0.4607600000000  0.5717080000000  0.4679580000000 1.0
C      1  0.4604520000000  0.4917440000000  0.4239670000000 1.0
C      1  0.5561540000000  0.4260160000000  0.4892980000000 1.0
C      1  0.5420770000000  0.4652210000000  0.5653150000000 1.0
C      1  0.5411500000000  0.5569470000000  0.5564890000000 1.0
C      1  0.5432080000000  0.5698590000000  0.4657500000000 1.0
C      1  0.5436170000000  0.4870890000000  0.4265450000000 1.0
C      1  0.4597490000000  0.5838120000000  0.5198980000000 1.0
C      1  0.4603960000000  0.5438310000000  0.4301030000000 1.0
C      1  0.4574130000000  0.4464930000000  0.4378820000000 1.0
C      1  0.4600940000000  0.4251030000000  0.5307140000000 1.0
C      1  0.4602950000000  0.5081730000000  0.5830610000000 1.0
C      1  0.5197340000000  0.5714490000000  0.5045010000000 1.0
C      1  0.5203640000000  0.5247180000000  0.4377190000000 1.0
C      1  0.5250970000000  0.4372750000000  0.4560210000000 1.0
C      1  0.5345540000000  0.4293470000000  0.5322240000000 1.0
C      1  0.5182670000000  0.5189900000000  0.5683830000000 1.0
C      1  0.4838580000000  0.4670220000000  0.5776620000000 1.0
C      1  0.4852860000000  0.5700780000000  0.5573220000000 1.0
C      1  0.4867190000000  0.5747090000000  0.4541310000000 1.0
C      1  0.4867400000000  0.4783400000000  0.4189890000000 1.0
C      1  0.4779190000000  0.4288230000000  0.4905090000000 1.0
C      1  0.5147530000000  0.4690810000000  0.5762850000000 1.0
C      1  0.5151430000000  0.5702060000000  0.5542720000000 1.0
C      1  0.5170670000000  0.5719440000000  0.4524790000000 1.0
C      1  0.5170480000000  0.4748350000000  0.4214440000000 1.0
C      1  0.5304670000000  0.4269770000000  0.5020750000000 1.0
C      1  0.4833720000000  0.5871300000000  0.5334320000000 1.0
C      1  0.4844660000000  0.5570690000000  0.4310340000000 1.0
C      1  0.4835620000000  0.4508330000000  0.4279780000000 1.0
C      1  0.4845440000000  0.4189130000000  0.5175770000000 1.0
C      1  0.4831870000000  0.4940080000000  0.5891660000000 1.0
C      1  0.5110850000000  0.5836170000000  0.5280700000000 1.0
C      1  0.5123550000000  0.5508670000000  0.4321870000000 1.0
C      1  0.5122550000000  0.4478660000000  0.4331040000000 1.0
C      1  0.5116410000000  0.4166200000000  0.5248620000000 1.0
C      1  0.5111150000000  0.4975660000000  0.5844600000000 1.0
C      1  0.4147880000000  0.4731010000000  0.5083670000000 1.0
C      1  0.4171610000000  0.5138970000000  0.5289980000000 1.0
C      1  0.4236670000000  0.5280250000000  0.5042430000000 1.0
C      1  0.4235330000000  0.5126400000000  0.4796930000000 1.0
C      1  0.4197330000000  0.4840030000000  0.4815000000000 1.0
C      1  0.5829950000000  0.4852580000000  0.5189280000000 1.0
C      1  0.5795330000000  0.5115070000000  0.5299040000000 1.0
C      1  0.5793860000000  0.5303860000000  0.5070650000000 1.0
C      1  0.5819530000000  0.5157840000000  0.4818620000000 1.0
C      1  0.5835800000000  0.4621450000000  0.4789320000000 1.0
C      1  0.5651750000000  0.5119020000000  0.5563070000000 1.0
C      1  0.5661280000000  0.5566560000000  0.5105430000000 1.0
C      1  0.5683670000000  0.5253840000000  0.4559610000000 1.0
C      1  0.5708960000000  0.4531150000000  0.4537400000000 1.0
C      1  0.5728700000000  0.4581810000000  0.5253250000000 1.0
C      1  0.4313510000000  0.5136440000000  0.5541090000000 1.0
C      1  0.4339410000000  0.5539260000000  0.5084400000000 1.0
C      1  0.4339320000000  0.5247310000000  0.4558540000000 1.0
C      1  0.4278880000000  0.4665760000000  0.4602570000000 1.0
C      1  0.4281610000000  0.4511250000000  0.5223450000000 1.0
C      1  0.5170070000000  0.4499080000000  0.4832940000000 1.0
C      1  0.5078360000000  0.5453570000000  0.4934160000000 1.0
C      1  0.5042030000000  0.5064440000000  0.4573750000000 1.0
C      1  0.5063400000000  0.5218270000000  0.5401460000000 1.0
C      1  0.4998540000000  0.4743580000000  0.5288660000000 1.0
C      1  0.4022890000000  0.4909630000000  0.5255840000000 1.0
C      1  0.5868470000000  0.4882620000000  0.4903580000000 1.0
C      1  0.4767580000000  0.4812900000000  0.4903490000000 1.0
END
