TITL C-100747-6454-3 8.54913331639084 125000 -815.422504525772 0 0 120 (D5) n - 1
REM
REM in /rds/project/t2_vol4/rds-t2-cs072/BORA/CARBON/from-Arr/AIRSS/Generating-Clusters/GAP-ML-2020/Higher-Symm/SD-CG/HFTN-CG
REM
REM
REM
REM
REM
REM ./C.cell (b20cbc046b6831c77cfcea5457e17084)
REM AIRSS Version 0.9.1 bugfix July 2018 build 013d7b7c2542+ Fri, 06 Jul 2018 19:26:36 +0100
REM compiler GCC version 9.3.0
REM options -cpp -mtune=generic -march=x86-64 -g -O0
REM seed 1720443801 -1222612427 -1507258793 1467002350 726535442 -1131829816 -507501186 2146775818 -839056842 -4379870 -830463476 -2083911472 -780438387 1908606788 759095530 -2137481590 1557914574 1126755109 -678656089 -353253525 1637754140 345160633 1533171836 410932287 -1482004124 837391798 1825755087 176056258 283300742 2037892356 479476434 -2030070472 574740001
REM
CELL 1.54180   50.00000   50.00000   50.00000   90.00000   90.00000   90.00000
LATT -1
SFAC C  
C      1  0.5437770000000  0.5600570000000  0.4713490000000 1.0
C      1  0.4564020000000  0.5601910000000  0.4713570000000 1.0
C      1  0.4292740000000  0.4771340000000  0.4713780000000 1.0
C      1  0.4998840000000  0.4256680000000  0.4713840000000 1.0
C      1  0.5706500000000  0.4769170000000  0.4713660000000 1.0
C      1  0.4562720000000  0.5601060000000  0.5286240000000 1.0
C      1  0.5436470000000  0.5601680000000  0.5286160000000 1.0
C      1  0.5707070000000  0.4770890000000  0.5286320000000 1.0
C      1  0.5000550000000  0.4256810000000  0.5286500000000 1.0
C      1  0.4293310000000  0.4769880000000  0.5286450000000 1.0
C      1  0.5240670000000  0.5801000000000  0.4292960000000 1.0
C      1  0.4312370000000  0.5476370000000  0.4293110000000 1.0
C      1  0.4334260000000  0.4493190000000  0.4293340000000 1.0
C      1  0.5276090000000  0.4210180000000  0.4293320000000 1.0
C      1  0.5836280000000  0.5018460000000  0.4293080000000 1.0
C      1  0.4759990000000  0.5801520000000  0.5706680000000 1.0
C      1  0.5688010000000  0.5476120000000  0.5706670000000 1.0
C      1  0.5665320000000  0.4492960000000  0.5706890000000 1.0
C      1  0.4723260000000  0.4210730000000  0.5707040000000 1.0
C      1  0.4163740000000  0.5019470000000  0.5706910000000 1.0
C      1  0.5041240000000  0.4744800000000  0.5503550000000 1.0
C      1  0.5255590000000  0.4960400000000  0.5503480000000 1.0
C      1  0.5116790000000  0.5230880000000  0.5503440000000 1.0
C      1  0.4816650000000  0.5182450000000  0.5503470000000 1.0
C      1  0.4769960000000  0.4882040000000  0.5503540000000 1.0
C      1  0.4958550000000  0.4744610000000  0.4496560000000 1.0
C      1  0.4744380000000  0.4960380000000  0.4496530000000 1.0
C      1  0.4883400000000  0.5230750000000  0.4496460000000 1.0
C      1  0.5183500000000  0.5182070000000  0.4496440000000 1.0
C      1  0.5229940000000  0.4881620000000  0.4496510000000 1.0
C      1  0.5392260000000  0.5599440000000  0.4405860000000 1.0
C      1  0.4550940000000  0.5558260000000  0.4405940000000 1.0
C      1  0.4330130000000  0.4745390000000  0.4406150000000 1.0
C      1  0.5034980000000  0.4284200000000  0.4406190000000 1.0
C      1  0.5691410000000  0.4812030000000  0.4406010000000 1.0
C      1  0.4608230000000  0.5600030000000  0.5593870000000 1.0
C      1  0.5449510000000  0.5558160000000  0.5593800000000 1.0
C      1  0.5669660000000  0.4745110000000  0.5593970000000 1.0
C      1  0.4964430000000  0.4284500000000  0.5594140000000 1.0
C      1  0.4308440000000  0.4812870000000  0.5594080000000 1.0
C      1  0.5834060000000  0.4994100000000  0.4865660000000 1.0
C      1  0.5263310000000  0.5791400000000  0.4865530000000 1.0
C      1  0.4328660000000  0.5494970000000  0.4865680000000 1.0
C      1  0.4321760000000  0.4514470000000  0.4865900000000 1.0
C      1  0.5252140000000  0.4204910000000  0.4865890000000 1.0
C      1  0.4165940000000  0.4994840000000  0.5134350000000 1.0
C      1  0.4737330000000  0.5791680000000  0.5134110000000 1.0
C      1  0.5671740000000  0.5494480000000  0.5134100000000 1.0
C      1  0.5677840000000  0.4513970000000  0.5134320000000 1.0
C      1  0.4747200000000  0.4205180000000  0.5134470000000 1.0
C      1  0.5004360000000  0.5443450000000  0.4857390000000 1.0
C      1  0.4579560000000  0.5141170000000  0.4857500000000 1.0
C      1  0.4735770000000  0.4643750000000  0.4857600000000 1.0
C      1  0.5257120000000  0.4638610000000  0.4857550000000 1.0
C      1  0.5423120000000  0.5132850000000  0.4857430000000 1.0
C      1  0.4996000000000  0.5443520000000  0.5142400000000 1.0
C      1  0.5420560000000  0.5140890000000  0.5142440000000 1.0
C      1  0.5263930000000  0.4643600000000  0.5142560000000 1.0
C      1  0.4742580000000  0.4638890000000  0.5142610000000 1.0
C      1  0.4576990000000  0.5133260000000  0.5142510000000 1.0
C      1  0.5662060000000  0.5197590000000  0.4425740000000 1.0
C      1  0.5016510000000  0.5690670000000  0.4425680000000 1.0
C      1  0.4348070000000  0.5229090000000  0.4425850000000 1.0
C      1  0.4580500000000  0.4450730000000  0.4426000000000 1.0
C      1  0.5392600000000  0.4431260000000  0.4425940000000 1.0
C      1  0.4338100000000  0.5198390000000  0.5574170000000 1.0
C      1  0.4984060000000  0.5690950000000  0.5574000000000 1.0
C      1  0.5652120000000  0.5228820000000  0.5574050000000 1.0
C      1  0.5419050000000  0.4450650000000  0.5574250000000 1.0
C      1  0.4606940000000  0.4431850000000  0.5574320000000 1.0
C      1  0.4812390000000  0.5158360000000  0.5895830000000 1.0
C      1  0.4791660000000  0.4870570000000  0.5895890000000 1.0
C      1  0.5058960000000  0.4761920000000  0.5895890000000 1.0
C      1  0.5244890000000  0.4982560000000  0.5895830000000 1.0
C      1  0.5092510000000  0.5227580000000  0.5895790000000 1.0
C      1  0.5187740000000  0.5157810000000  0.4104100000000 1.0
C      1  0.5208240000000  0.4870000000000  0.4104160000000 1.0
C      1  0.4940850000000  0.4761570000000  0.4104210000000 1.0
C      1  0.4755090000000  0.4982360000000  0.4104180000000 1.0
C      1  0.4907680000000  0.5227250000000  0.4104110000000 1.0
C      1  0.5006610000000  0.4586500000000  0.5256020000000 1.0
C      1  0.5395380000000  0.4878530000000  0.5255920000000 1.0
C      1  0.5237780000000  0.5338510000000  0.5255830000000 1.0
C      1  0.4751610000000  0.5330770000000  0.5255880000000 1.0
C      1  0.4608740000000  0.4866000000000  0.5256000000000 1.0
C      1  0.4993050000000  0.4586390000000  0.4744160000000 1.0
C      1  0.4604520000000  0.4878730000000  0.4744130000000 1.0
C      1  0.4762500000000  0.5338590000000  0.4744010000000 1.0
C      1  0.5248660000000  0.5330450000000  0.4743970000000 1.0
C      1  0.5391150000000  0.4865560000000  0.4744060000000 1.0
C      1  0.4562310000000  0.4399500000000  0.5268160000000 1.0
C      1  0.5435930000000  0.4398180000000  0.5268080000000 1.0
C      1  0.5707150000000  0.5228640000000  0.5267870000000 1.0
C      1  0.5001140000000  0.5743210000000  0.5267810000000 1.0
C      1  0.4293590000000  0.5230770000000  0.5267990000000 1.0
C      1  0.5437200000000  0.4399020000000  0.4732120000000 1.0
C      1  0.4563580000000  0.4398420000000  0.4732200000000 1.0
C      1  0.4293040000000  0.5229100000000  0.4732030000000 1.0
C      1  0.4999460000000  0.5743090000000  0.4731850000000 1.0
C      1  0.5706600000000  0.5230070000000  0.4731900000000 1.0
C      1  0.4155850000000  0.4995320000000  0.4854600000000 1.0
C      1  0.4743550000000  0.4195710000000  0.4854720000000 1.0
C      1  0.5685640000000  0.4507560000000  0.4854570000000 1.0
C      1  0.5680180000000  0.5499900000000  0.4854340000000 1.0
C      1  0.4734710000000  0.5801350000000  0.4854360000000 1.0
C      1  0.5844150000000  0.4994690000000  0.5145410000000 1.0
C      1  0.5255790000000  0.4195560000000  0.5145640000000 1.0
C      1  0.4313960000000  0.4508180000000  0.5145660000000 1.0
C      1  0.4320230000000  0.5500520000000  0.5145430000000 1.0
C      1  0.5265940000000  0.5801200000000  0.5145280000000 1.0
C      1  0.5138460000000  0.4520030000000  0.5684390000000 1.0
C      1  0.5499460000000  0.4983410000000  0.5684260000000 1.0
C      1  0.5170310000000  0.5469930000000  0.5684180000000 1.0
C      1  0.4605890000000  0.5307240000000  0.5684260000000 1.0
C      1  0.4586200000000  0.4720170000000  0.5684400000000 1.0
C      1  0.4861150000000  0.4519830000000  0.4315820000000 1.0
C      1  0.4500530000000  0.4983510000000  0.4315750000000 1.0
C      1  0.4830070000000  0.5469760000000  0.4315610000000 1.0
C      1  0.5394370000000  0.5306610000000  0.4315600000000 1.0
C      1  0.5413570000000  0.4719520000000  0.4315730000000 1.0
END
