TITL C-109505-6400-1 -14.7980039339655 125000 -79.2929275305436 0 0 13 (C1) n - 1
REM
REM in /rds/project/t2_vol4/rds-t2-cs072/BORA/CARBON/from-Arr/AIRSS/Generating-Clusters/GAP-ML-2020/Higher-Symm/SD-CG/HFTN-CG
REM
REM
REM
REM
REM
REM ./C.cell (b20cbc046b6831c77cfcea5457e17084)
REM AIRSS Version 0.9.1 bugfix July 2018 build 013d7b7c2542+ Fri, 06 Jul 2018 19:26:36 +0100
REM compiler GCC version 9.3.0
REM options -cpp -mtune=generic -march=x86-64 -g -O0
REM seed -872007774 543097147 1996975328 -929687451 -1420954564 1424998075 -594054026 797430219 579683716 -141511625 159577295 710287284 -1574372817 926635828 1848764867 169189324 -363913255 844112889 907063260 2004739276 -272181781 2016208986 -1813901279 -1144764378 -338718409 -831584814 1894317086 1141616635 483063772 -74295720 -1721100150 -1155235709 1861584465
REM
CELL 1.54180   50.00000   50.00000   50.00000   90.00000   90.00000   90.00000
LATT -1
SFAC C  
C      1  0.5306700000000  0.4722170000000  0.4850480000000 1.0
C      1  0.5258830000000  0.4570160000000  0.5088250000000 1.0
C      1  0.5118750000000  0.4696560000000  0.5307830000000 1.0
C      1  0.4901200000000  0.4810800000000  0.5233460000000 1.0
C      1  0.4788100000000  0.4946920000000  0.5020940000000 1.0
C      1  0.4807190000000  0.4786520000000  0.4779130000000 1.0
C      1  0.5035180000000  0.4640030000000  0.4742600000000 1.0
C      1  0.4977150000000  0.4178320000000  0.4971670000000 1.0
C      1  0.4829210000000  0.5216960000000  0.5007400000000 1.0
C      1  0.4966830000000  0.5951280000000  0.4987400000000 1.0
C      1  0.4962150000000  0.5700370000000  0.4986710000000 1.0
C      1  0.4934390000000  0.5439390000000  0.4994750000000 1.0
C      1  0.5095660000000  0.4397910000000  0.4910010000000 1.0
END
