TITL C-100368-321-4 0.0417913388360872 125000 -720.166927015579 0 0 105 (C1) n - 1
REM
REM in /rds/project/t2_vol4/rds-t2-cs072/BORA/CARBON/from-Arr/AIRSS/Generating-Clusters/GAP-ML-2020/Higher-Symm/SD-CG/HFTN-CG
REM
REM
REM
REM
REM
REM ./C.cell (b20cbc046b6831c77cfcea5457e17084)
REM AIRSS Version 0.9.1 bugfix July 2018 build 013d7b7c2542+ Fri, 06 Jul 2018 19:26:36 +0100
REM compiler GCC version 9.3.0
REM options -cpp -mtune=generic -march=x86-64 -g -O0
REM seed -1718860611 347803083 1136089629 -271040570 36239281 1131748798 -584334323 -452133592 -1989224140 -896567962 -648735717 -449481360 1165963527 -1386967189 162965204 -1115779635 1588578241 21380321 -831079141 671498297 923826998 -907983818 -1151173007 324648936 -1491302929 1066517735 -1407857963 2084590163 -1151687464 1687685226 1266184884 -2142061526 1424145951
REM
CELL 1.54180   50.00000   50.00000   50.00000   90.00000   90.00000   90.00000
LATT -1
SFAC C  
C      1  0.4879640000000  0.4782410000000  0.4399960000000 1.0
C      1  0.4230420000000  0.4732030000000  0.5121160000000 1.0
C      1  0.5121120000000  0.4716650000000  0.5701200000000 1.0
C      1  0.5638760000000  0.4747520000000  0.4908010000000 1.0
C      1  0.4911850000000  0.5296800000000  0.5751680000000 1.0
C      1  0.4308940000000  0.5304900000000  0.4909780000000 1.0
C      1  0.5077690000000  0.5316220000000  0.4296090000000 1.0
C      1  0.5779900000000  0.5316120000000  0.5120970000000 1.0
C      1  0.5390920000000  0.5285540000000  0.4933510000000 1.0
C      1  0.5011670000000  0.5318170000000  0.4614560000000 1.0
C      1  0.4630600000000  0.5294730000000  0.4926030000000 1.0
C      1  0.5007470000000  0.5289610000000  0.5226750000000 1.0
C      1  0.5310640000000  0.4743360000000  0.4935630000000 1.0
C      1  0.5137540000000  0.4797910000000  0.5404670000000 1.0
C      1  0.4575230000000  0.4487160000000  0.5020790000000 1.0
C      1  0.4832950000000  0.4891570000000  0.4709070000000 1.0
C      1  0.4564710000000  0.5398450000000  0.4303520000000 1.0
C      1  0.4333380000000  0.5387670000000  0.5421690000000 1.0
C      1  0.5418370000000  0.5370880000000  0.5670080000000 1.0
C      1  0.5678720000000  0.5411180000000  0.4583260000000 1.0
C      1  0.4571260000000  0.4611460000000  0.5665110000000 1.0
C      1  0.4349900000000  0.4618950000000  0.4587050000000 1.0
C      1  0.5409510000000  0.4648560000000  0.4358130000000 1.0
C      1  0.5656350000000  0.4627470000000  0.5430960000000 1.0
C      1  0.6090940000000  0.4922800000000  0.4885140000000 1.0
C      1  0.4921810000000  0.4869060000000  0.3931800000000 1.0
C      1  0.3852750000000  0.4984930000000  0.5103630000000 1.0
C      1  0.5113430000000  0.4921430000000  0.6139680000000 1.0
C      1  0.6104410000000  0.4966830000000  0.5131470000000 1.0
C      1  0.4872790000000  0.4997880000000  0.6136140000000 1.0
C      1  0.3883760000000  0.5055250000000  0.4863210000000 1.0
C      1  0.5164320000000  0.4934360000000  0.3954200000000 1.0
C      1  0.5315890000000  0.5704130000000  0.4756410000000 1.0
C      1  0.4774150000000  0.5698510000000  0.4671170000000 1.0
C      1  0.4702970000000  0.5671570000000  0.5206510000000 1.0
C      1  0.5240820000000  0.5663290000000  0.5278350000000 1.0
C      1  0.5300920000000  0.4307780000000  0.5217370000000 1.0
C      1  0.4788030000000  0.4282110000000  0.5312780000000 1.0
C      1  0.4731930000000  0.4264060000000  0.4737630000000 1.0
C      1  0.5225020000000  0.4329950000000  0.4673110000000 1.0
C      1  0.4805500000000  0.5269700000000  0.4212120000000 1.0
C      1  0.4229730000000  0.5265950000000  0.5187210000000 1.0
C      1  0.5186340000000  0.5237950000000  0.5767850000000 1.0
C      1  0.5692180000000  0.5250830000000  0.4847240000000 1.0
C      1  0.4816370000000  0.4779540000000  0.5692460000000 1.0
C      1  0.4327950000000  0.4800050000000  0.4847640000000 1.0
C      1  0.5177490000000  0.4831570000000  0.4410830000000 1.0
C      1  0.5646020000000  0.4816890000000  0.5205300000000 1.0
C      1  0.5795270000000  0.4963260000000  0.4765160000000 1.0
C      1  0.4757140000000  0.4963780000000  0.4180030000000 1.0
C      1  0.4124670000000  0.4976930000000  0.5250760000000 1.0
C      1  0.5255780000000  0.4937870000000  0.5863180000000 1.0
C      1  0.5839670000000  0.5058650000000  0.5262540000000 1.0
C      1  0.4755830000000  0.5048690000000  0.5845870000000 1.0
C      1  0.4179850000000  0.5068680000000  0.4759840000000 1.0
C      1  0.5243930000000  0.5075070000000  0.4221630000000 1.0
C      1  0.4466210000000  0.4945550000000  0.4190500000000 1.0
C      1  0.4181770000000  0.4953030000000  0.5535250000000 1.0
C      1  0.5543970000000  0.4940490000000  0.5833080000000 1.0
C      1  0.5784740000000  0.4959590000000  0.4475720000000 1.0
C      1  0.4472460000000  0.5052410000000  0.5799450000000 1.0
C      1  0.4210260000000  0.5058190000000  0.4474240000000 1.0
C      1  0.5527710000000  0.5089900000000  0.4213320000000 1.0
C      1  0.5814400000000  0.5053600000000  0.5551650000000 1.0
C      1  0.5388200000000  0.5601470000000  0.5019810000000 1.0
C      1  0.5055080000000  0.5630660000000  0.4623920000000 1.0
C      1  0.4642800000000  0.5618910000000  0.4927210000000 1.0
C      1  0.4969530000000  0.5570760000000  0.5321130000000 1.0
C      1  0.5317270000000  0.4427250000000  0.4946400000000 1.0
C      1  0.5059410000000  0.4298990000000  0.5387920000000 1.0
C      1  0.4729820000000  0.4259730000000  0.5024970000000 1.0
C      1  0.4966980000000  0.4318160000000  0.4572700000000 1.0
C      1  0.4560330000000  0.4426310000000  0.4542160000000 1.0
C      1  0.4555010000000  0.4428720000000  0.5443240000000 1.0
C      1  0.5455600000000  0.4428280000000  0.5435750000000 1.0
C      1  0.5455890000000  0.4444650000000  0.4545790000000 1.0
C      1  0.4566090000000  0.5555110000000  0.5431280000000 1.0
C      1  0.4547670000000  0.5586250000000  0.4520810000000 1.0
C      1  0.5463910000000  0.5593940000000  0.4529040000000 1.0
C      1  0.5447080000000  0.5554530000000  0.5448390000000 1.0
C      1  0.4356070000000  0.5202990000000  0.4280860000000 1.0
C      1  0.4301520000000  0.5201920000000  0.5634480000000 1.0
C      1  0.5641090000000  0.5196100000000  0.5718380000000 1.0
C      1  0.5712510000000  0.5226250000000  0.4374270000000 1.0
C      1  0.4358850000000  0.4797170000000  0.5693000000000 1.0
C      1  0.4312530000000  0.4796590000000  0.4375280000000 1.0
C      1  0.5622000000000  0.4821030000000  0.4294460000000 1.0
C      1  0.5711250000000  0.4792770000000  0.5658880000000 1.0
C      1  0.5318140000000  0.4892520000000  0.5202470000000 1.0
C      1  0.5151400000000  0.4892770000000  0.4724770000000 1.0
C      1  0.4637120000000  0.4774440000000  0.4921650000000 1.0
C      1  0.4861640000000  0.4811210000000  0.5380820000000 1.0
C      1  0.5215860000000  0.5169360000000  0.4742540000000 1.0
C      1  0.5249700000000  0.5165990000000  0.5155840000000 1.0
C      1  0.4755910000000  0.5183330000000  0.5161780000000 1.0
C      1  0.4766680000000  0.5177560000000  0.4698520000000 1.0
C      1  0.5595430000000  0.4479040000000  0.4799520000000 1.0
C      1  0.4802000000000  0.4498770000000  0.4401490000000 1.0
C      1  0.4383770000000  0.4519030000000  0.5230670000000 1.0
C      1  0.5208270000000  0.4454020000000  0.5595580000000 1.0
C      1  0.5622010000000  0.5524940000000  0.5220420000000 1.0
C      1  0.4814700000000  0.5491220000000  0.5574200000000 1.0
C      1  0.4388260000000  0.5560950000000  0.4767210000000 1.0
C      1  0.5222890000000  0.5566740000000  0.4373800000000 1.0
C      1  0.4713740000000  0.4913940000000  0.5173540000000 1.0
END
