TITL C-103930-4999-3 -17.4215591502878 125000 -1102.96124635696 0 0 162 (C1) n - 1
REM
REM in /rds/project/t2_vol4/rds-t2-cs072/BORA/CARBON/from-Arr/AIRSS/Generating-Clusters/GAP-ML-2020/Higher-Symm/SD-CG/HFTN-CG/C160-200
REM
REM
REM
REM
REM
REM ./C.cell (6b4489405718ea1b717e0baf1da4c2d9)
REM AIRSS Version 0.9.1 bugfix July 2018 build 013d7b7c2542+ Fri, 06 Jul 2018 19:26:36 +0100
REM compiler GCC version 9.3.0
REM options -cpp -mtune=generic -march=x86-64 -g -O0
REM seed 1144090602 -307268713 1941549117 -526646522 -1917932471 -768270095 954045897 423913800 586896094 1243515874 -1058519446 -1423897812 -1708459372 1580635674 -1694164986 -84082623 730816712 -2028816706 2011220257 -915381108 1870539447 -1337680106 601880777 -533495417 212669757 -1475835607 271037075 414996601 -1126341912 -2032995664 -1513607733 -1156923397 961849474
REM
CELL 1.54180   50.00000   50.00000   50.00000   90.00000   90.00000   90.00000
LATT -1
SFAC C  
C      1  0.4430510000000  0.4920840000000  0.5392800000000 1.0
C      1  0.4354150000000  0.4841360000000  0.4613490000000 1.0
C      1  0.5143120000000  0.4863070000000  0.4258990000000 1.0
C      1  0.5584410000000  0.4879710000000  0.4873680000000 1.0
C      1  0.5266220000000  0.4823910000000  0.5507050000000 1.0
C      1  0.4498990000000  0.5193080000000  0.5383490000000 1.0
C      1  0.4318710000000  0.5136080000000  0.4552280000000 1.0
C      1  0.5243260000000  0.5136810000000  0.4257470000000 1.0
C      1  0.5569940000000  0.5156890000000  0.4909260000000 1.0
C      1  0.5317930000000  0.5092920000000  0.5429920000000 1.0
C      1  0.4754130000000  0.4871060000000  0.4724980000000 1.0
C      1  0.5046490000000  0.4830550000000  0.4723200000000 1.0
C      1  0.5116500000000  0.4798690000000  0.5022010000000 1.0
C      1  0.4895100000000  0.4814530000000  0.5199470000000 1.0
C      1  0.4667000000000  0.4890890000000  0.5021000000000 1.0
C      1  0.4778400000000  0.5172760000000  0.4706220000000 1.0
C      1  0.5087650000000  0.5131380000000  0.4724460000000 1.0
C      1  0.5156310000000  0.5145300000000  0.5021300000000 1.0
C      1  0.4926150000000  0.5286770000000  0.5120190000000 1.0
C      1  0.4679500000000  0.5198420000000  0.4999650000000 1.0
C      1  0.4758880000000  0.5995750000000  0.5482090000000 1.0
C      1  0.4817890000000  0.6021380000000  0.5002880000000 1.0
C      1  0.5158340000000  0.6067500000000  0.4592860000000 1.0
C      1  0.5648080000000  0.5966510000000  0.4595670000000 1.0
C      1  0.5144330000000  0.5936560000000  0.5333760000000 1.0
C      1  0.4984780000000  0.4039970000000  0.5248380000000 1.0
C      1  0.4738560000000  0.3898840000000  0.4811630000000 1.0
C      1  0.4936510000000  0.4038550000000  0.4654420000000 1.0
C      1  0.5328700000000  0.4086750000000  0.4886810000000 1.0
C      1  0.5398820000000  0.3992650000000  0.5299720000000 1.0
C      1  0.4699850000000  0.5291300000000  0.5867900000000 1.0
C      1  0.4018090000000  0.5583380000000  0.5064170000000 1.0
C      1  0.4670410000000  0.5537870000000  0.4067470000000 1.0
C      1  0.5767060000000  0.5376800000000  0.4451150000000 1.0
C      1  0.5767590000000  0.5472100000000  0.5600700000000 1.0
C      1  0.4624980000000  0.4684710000000  0.5926950000000 1.0
C      1  0.4016730000000  0.4544750000000  0.4936960000000 1.0
C      1  0.4769470000000  0.4546880000000  0.4103920000000 1.0
C      1  0.5768610000000  0.4615300000000  0.4425270000000 1.0
C      1  0.5758330000000  0.4585710000000  0.5591490000000 1.0
C      1  0.6085800000000  0.4855890000000  0.5010990000000 1.0
C      1  0.5312140000000  0.4830010000000  0.6094500000000 1.0
C      1  0.4010390000000  0.4912070000000  0.5588730000000 1.0
C      1  0.4251470000000  0.4788310000000  0.4240570000000 1.0
C      1  0.5482750000000  0.4784490000000  0.4044420000000 1.0
C      1  0.6125640000000  0.5151860000000  0.5006590000000 1.0
C      1  0.5290860000000  0.5113920000000  0.6013110000000 1.0
C      1  0.4012940000000  0.5203040000000  0.5659720000000 1.0
C      1  0.4233250000000  0.5077090000000  0.4264980000000 1.0
C      1  0.5503590000000  0.5063450000000  0.4115340000000 1.0
C      1  0.5463880000000  0.5550770000000  0.5238880000000 1.0
C      1  0.4928010000000  0.5445920000000  0.5488020000000 1.0
C      1  0.4466340000000  0.5632800000000  0.5119190000000 1.0
C      1  0.4707880000000  0.5605200000000  0.4510110000000 1.0
C      1  0.5345140000000  0.5513480000000  0.4625500000000 1.0
C      1  0.5474990000000  0.4539870000000  0.5219550000000 1.0
C      1  0.4898560000000  0.4453590000000  0.5551700000000 1.0
C      1  0.4438720000000  0.4456940000000  0.5093740000000 1.0
C      1  0.4743720000000  0.4446590000000  0.4558110000000 1.0
C      1  0.5336920000000  0.4488240000000  0.4623250000000 1.0
C      1  0.4710650000000  0.4309900000000  0.5058760000000 1.0
C      1  0.4886780000000  0.4330530000000  0.4792350000000 1.0
C      1  0.5183040000000  0.4372440000000  0.4857260000000 1.0
C      1  0.5193430000000  0.4517430000000  0.5108830000000 1.0
C      1  0.4936650000000  0.4354080000000  0.5261860000000 1.0
C      1  0.4744730000000  0.5724490000000  0.5038480000000 1.0
C      1  0.4871850000000  0.5706250000000  0.4753680000000 1.0
C      1  0.5168760000000  0.5654400000000  0.4825220000000 1.0
C      1  0.5215430000000  0.5693460000000  0.5135950000000 1.0
C      1  0.4949000000000  0.5557090000000  0.5207450000000 1.0
C      1  0.6092110000000  0.5272390000000  0.5250120000000 1.0
C      1  0.5053920000000  0.5198220000000  0.5865510000000 1.0
C      1  0.3962000000000  0.5420610000000  0.5504500000000 1.0
C      1  0.4249240000000  0.5309910000000  0.4127440000000 1.0
C      1  0.5660520000000  0.5284690000000  0.4177100000000 1.0
C      1  0.5906910000000  0.4764480000000  0.5223040000000 1.0
C      1  0.5062650000000  0.4739100000000  0.6175060000000 1.0
C      1  0.3890020000000  0.4753670000000  0.5399610000000 1.0
C      1  0.4521140000000  0.4676320000000  0.4223600000000 1.0
C      1  0.5607090000000  0.4565460000000  0.4188290000000 1.0
C      1  0.4951670000000  0.4487660000000  0.4351850000000 1.0
C      1  0.5602380000000  0.4626040000000  0.4684700000000 1.0
C      1  0.5460420000000  0.4587130000000  0.5507110000000 1.0
C      1  0.4633720000000  0.4501030000000  0.5693490000000 1.0
C      1  0.4257440000000  0.4397910000000  0.4873610000000 1.0
C      1  0.4842800000000  0.5673530000000  0.4263720000000 1.0
C      1  0.5606110000000  0.5396040000000  0.4712580000000 1.0
C      1  0.5513470000000  0.5594910000000  0.5537360000000 1.0
C      1  0.4659720000000  0.5359610000000  0.5584640000000 1.0
C      1  0.4251060000000  0.5702260000000  0.4930300000000 1.0
C      1  0.4426390000000  0.4882030000000  0.5886940000000 1.0
C      1  0.3947850000000  0.4647510000000  0.4698290000000 1.0
C      1  0.5013870000000  0.4537840000000  0.3941530000000 1.0
C      1  0.6021270000000  0.4661760000000  0.4523740000000 1.0
C      1  0.5738790000000  0.4608050000000  0.5863430000000 1.0
C      1  0.4446160000000  0.5164280000000  0.5934060000000 1.0
C      1  0.3963320000000  0.5357000000000  0.4917190000000 1.0
C      1  0.4830270000000  0.5328980000000  0.4000340000000 1.0
C      1  0.6035330000000  0.5341900000000  0.4537680000000 1.0
C      1  0.5723690000000  0.5324570000000  0.5828750000000 1.0
C      1  0.4617680000000  0.5290780000000  0.4515240000000 1.0
C      1  0.5247950000000  0.5252120000000  0.4533380000000 1.0
C      1  0.5405280000000  0.5232390000000  0.5162610000000 1.0
C      1  0.5102360000000  0.5222410000000  0.5570370000000 1.0
C      1  0.4471160000000  0.5330280000000  0.5138540000000 1.0
C      1  0.4608520000000  0.4723170000000  0.4526500000000 1.0
C      1  0.5140300000000  0.4683550000000  0.4487000000000 1.0
C      1  0.5624550000000  0.4782520000000  0.5140790000000 1.0
C      1  0.4980980000000  0.4749370000000  0.5475700000000 1.0
C      1  0.4446410000000  0.4775810000000  0.5151020000000 1.0
C      1  0.5236370000000  0.4032560000000  0.4604790000000 1.0
C      1  0.5566250000000  0.4105410000000  0.5090490000000 1.0
C      1  0.5186270000000  0.4067530000000  0.5481790000000 1.0
C      1  0.4733730000000  0.4009710000000  0.5088160000000 1.0
C      1  0.4657790000000  0.4004040000000  0.4561450000000 1.0
C      1  0.5387350000000  0.5962990000000  0.4479650000000 1.0
C      1  0.5811660000000  0.5831100000000  0.4727430000000 1.0
C      1  0.5009060000000  0.5881280000000  0.5592010000000 1.0
C      1  0.4499380000000  0.5942060000000  0.5475720000000 1.0
C      1  0.4941720000000  0.6010080000000  0.4746000000000 1.0
C      1  0.4262490000000  0.4442160000000  0.5333320000000 1.0
C      1  0.4529590000000  0.4257790000000  0.4457980000000 1.0
C      1  0.5367730000000  0.4231120000000  0.4457750000000 1.0
C      1  0.5715400000000  0.4354720000000  0.5125810000000 1.0
C      1  0.5135430000000  0.4277090000000  0.5671340000000 1.0
C      1  0.4344230000000  0.5707390000000  0.5410380000000 1.0
C      1  0.4422300000000  0.5655830000000  0.4445820000000 1.0
C      1  0.5360150000000  0.5678870000000  0.4366260000000 1.0
C      1  0.5751070000000  0.5579110000000  0.5154300000000 1.0
C      1  0.5047570000000  0.5629850000000  0.5736540000000 1.0
C      1  0.4413040000000  0.5512210000000  0.5630490000000 1.0
C      1  0.4250140000000  0.5604880000000  0.4662480000000 1.0
C      1  0.5113940000000  0.5608840000000  0.4220210000000 1.0
C      1  0.5822600000000  0.5571570000000  0.4873800000000 1.0
C      1  0.5337330000000  0.5560390000000  0.5754360000000 1.0
C      1  0.4374350000000  0.4526770000000  0.5576190000000 1.0
C      1  0.4294130000000  0.4382760000000  0.4592670000000 1.0
C      1  0.5157700000000  0.4381600000000  0.4132020000000 1.0
C      1  0.5801700000000  0.4472750000000  0.4863710000000 1.0
C      1  0.5350090000000  0.4436310000000  0.5748390000000 1.0
C      1  0.5915620000000  0.5451190000000  0.5349870000000 1.0
C      1  0.4917370000000  0.5442810000000  0.5942950000000 1.0
C      1  0.4060520000000  0.5616830000000  0.5349060000000 1.0
C      1  0.4404260000000  0.5528640000000  0.4180440000000 1.0
C      1  0.5597430000000  0.5538260000000  0.4254880000000 1.0
C      1  0.5896740000000  0.4514150000000  0.5357620000000 1.0
C      1  0.4820540000000  0.4702520000000  0.6122390000000 1.0
C      1  0.4017810000000  0.4576830000000  0.5236860000000 1.0
C      1  0.4547800000000  0.4389680000000  0.4183300000000 1.0
C      1  0.5420750000000  0.4329340000000  0.4202080000000 1.0
C      1  0.5463460000000  0.5335980000000  0.5927200000000 1.0
C      1  0.4250170000000  0.5319720000000  0.5784720000000 1.0
C      1  0.4140420000000  0.5336870000000  0.4697890000000 1.0
C      1  0.5086240000000  0.5344380000000  0.4111590000000 1.0
C      1  0.6057810000000  0.5349420000000  0.4803850000000 1.0
C      1  0.5472950000000  0.4610600000000  0.5957780000000 1.0
C      1  0.4284080000000  0.4804030000000  0.5641240000000 1.0
C      1  0.4160200000000  0.4639940000000  0.4497930000000 1.0
C      1  0.5199400000000  0.4734460000000  0.4014740000000 1.0
C      1  0.6041070000000  0.4647940000000  0.4805920000000 1.0
C      1  0.4917480000000  0.6092540000000  0.5246840000000 1.0
C      1  0.5201690000000  0.3918450000000  0.5094240000000 1.0
END
