TITL C-100356-7713-4 0.0597760822764522 125000 -761.043732717573 0 0 108 (C2h) n - 1
REM
REM in /rds/project/t2_vol4/rds-t2-cs072/BORA/CARBON/from-Arr/AIRSS/Generating-Clusters/GAP-ML-2020/Higher-Symm/SD-CG/HFTN-CG
REM
REM
REM
REM
REM
REM ./C.cell (b20cbc046b6831c77cfcea5457e17084)
REM AIRSS Version 0.9.1 bugfix July 2018 build 013d7b7c2542+ Fri, 06 Jul 2018 19:26:36 +0100
REM compiler GCC version 9.3.0
REM options -cpp -mtune=generic -march=x86-64 -g -O0
REM seed -1722359525 1852116659 1438501281 -1431162654 -1460560312 -1352784637 -1967149657 646968387 -1872310344 1621307162 -623617479 831561571 1270603104 1121900418 -1646545402 2000818167 -1509010406 923979341 257801119 -1329546777 -538918782 648291895 -205862952 -902274712 -658226870 -800449142 535935494 1762887053 192620773 1765669763 -387520506 -1278095745 -1712119860
REM
CELL 1.54180   50.00000   50.00000   50.00000   90.00000   90.00000   90.00000
LATT -1
SFAC C  
C      1  0.3864850000000  0.4878470000000  0.5225680000000 1.0
C      1  0.6133690000000  0.4862400000000  0.4776250000000 1.0
C      1  0.3866310000000  0.5137600000000  0.5223750000000 1.0
C      1  0.6135150000000  0.5121530000000  0.4774320000000 1.0
C      1  0.5198910000000  0.4847360000000  0.4676990000000 1.0
C      1  0.4799410000000  0.4854430000000  0.5325230000000 1.0
C      1  0.5200590000000  0.5145570000000  0.4674770000000 1.0
C      1  0.4801090000000  0.5152640000000  0.5323010000000 1.0
C      1  0.5891540000000  0.4260170000000  0.5092610000000 1.0
C      1  0.4100210000000  0.4268920000000  0.4918350000000 1.0
C      1  0.5899790000000  0.5731080000000  0.5081650000000 1.0
C      1  0.4108460000000  0.5739830000000  0.4907390000000 1.0
C      1  0.4799590000000  0.5967380000000  0.4670690000000 1.0
C      1  0.5211270000000  0.5969870000000  0.5314880000000 1.0
C      1  0.4788730000000  0.4030130000000  0.4685120000000 1.0
C      1  0.5200410000000  0.4032620000000  0.5329310000000 1.0
C      1  0.5456790000000  0.5283680000000  0.4669400000000 1.0
C      1  0.4546450000000  0.5293680000000  0.5326300000000 1.0
C      1  0.5453550000000  0.4706320000000  0.4673700000000 1.0
C      1  0.4543210000000  0.4716320000000  0.5330600000000 1.0
C      1  0.5285490000000  0.5162240000000  0.5258220000000 1.0
C      1  0.4716330000000  0.5161560000000  0.4739370000000 1.0
C      1  0.5283670000000  0.4838440000000  0.5260630000000 1.0
C      1  0.4714510000000  0.4837760000000  0.4741780000000 1.0
C      1  0.4347500000000  0.5165420000000  0.5159250000000 1.0
C      1  0.5654300000000  0.5155700000000  0.4838360000000 1.0
C      1  0.4345700000000  0.4844300000000  0.5161640000000 1.0
C      1  0.5652500000000  0.4834580000000  0.4840750000000 1.0
C      1  0.4598850000000  0.5559290000000  0.5391730000000 1.0
C      1  0.5407360000000  0.5548860000000  0.4600010000000 1.0
C      1  0.4592640000000  0.4451140000000  0.5399990000000 1.0
C      1  0.5401150000000  0.4440710000000  0.4608270000000 1.0
C      1  0.5724860000000  0.5340700000000  0.5282480000000 1.0
C      1  0.4278990000000  0.5344560000000  0.4712420000000 1.0
C      1  0.5721010000000  0.4655440000000  0.5287580000000 1.0
C      1  0.4275140000000  0.4659300000000  0.4717520000000 1.0
C      1  0.5052530000000  0.5408270000000  0.5590310000000 1.0
C      1  0.4952000000000  0.5400000000000  0.4403670000000 1.0
C      1  0.5048000000000  0.4600000000000  0.5596330000000 1.0
C      1  0.4947470000000  0.4591730000000  0.4409690000000 1.0
C      1  0.4976390000000  0.5249890000000  0.4864800000000 1.0
C      1  0.5026420000000  0.5251600000000  0.5131460000000 1.0
C      1  0.4973580000000  0.4748400000000  0.4868540000000 1.0
C      1  0.5023610000000  0.4750110000000  0.5135200000000 1.0
C      1  0.5368060000000  0.5914220000000  0.5540880000000 1.0
C      1  0.4642170000000  0.5910130000000  0.4445530000000 1.0
C      1  0.5357830000000  0.4089870000000  0.5554470000000 1.0
C      1  0.4631940000000  0.4085780000000  0.4459120000000 1.0
C      1  0.5560430000000  0.5487450000000  0.5465180000000 1.0
C      1  0.4445030000000  0.5486730000000  0.4527570000000 1.0
C      1  0.5554970000000  0.4513270000000  0.5472430000000 1.0
C      1  0.4439570000000  0.4512550000000  0.4534820000000 1.0
C      1  0.4070680000000  0.4724770000000  0.5133210000000 1.0
C      1  0.5926170000000  0.4712410000000  0.4870980000000 1.0
C      1  0.4073830000000  0.5287590000000  0.5129020000000 1.0
C      1  0.5929320000000  0.5275230000000  0.4866790000000 1.0
C      1  0.4407730000000  0.5768670000000  0.4500880000000 1.0
C      1  0.5600900000000  0.5769330000000  0.5487670000000 1.0
C      1  0.4399100000000  0.4230670000000  0.4512330000000 1.0
C      1  0.5592270000000  0.4231330000000  0.5499120000000 1.0
C      1  0.4660270000000  0.6052120000000  0.4920160000000 1.0
C      1  0.5351520000000  0.6049310000000  0.5064190000000 1.0
C      1  0.4648480000000  0.3950690000000  0.4935810000000 1.0
C      1  0.5339730000000  0.3947880000000  0.5079840000000 1.0
C      1  0.5308600000000  0.4650780000000  0.5491900000000 1.0
C      1  0.4687460000000  0.4646980000000  0.4513330000000 1.0
C      1  0.5312540000000  0.5353020000000  0.5486670000000 1.0
C      1  0.4691400000000  0.5349220000000  0.4508100000000 1.0
C      1  0.4870440000000  0.4390730000000  0.5481780000000 1.0
C      1  0.5122680000000  0.4382200000000  0.4527360000000 1.0
C      1  0.4877320000000  0.5617800000000  0.5472640000000 1.0
C      1  0.5129560000000  0.5609270000000  0.4518220000000 1.0
C      1  0.5520050000000  0.5789260000000  0.4714840000000 1.0
C      1  0.4488860000000  0.5799200000000  0.5273330000000 1.0
C      1  0.5511140000000  0.4200800000000  0.4726670000000 1.0
C      1  0.4479950000000  0.4210740000000  0.5285160000000 1.0
C      1  0.4232620000000  0.4107740000000  0.4711990000000 1.0
C      1  0.5757350000000  0.4103570000000  0.5301330000000 1.0
C      1  0.4242650000000  0.5896430000000  0.4698670000000 1.0
C      1  0.5767380000000  0.5892260000000  0.5288010000000 1.0
C      1  0.4718320000000  0.5951530000000  0.5186790000000 1.0
C      1  0.5292320000000  0.5945420000000  0.4799090000000 1.0
C      1  0.4707680000000  0.4054580000000  0.5200910000000 1.0
C      1  0.5281680000000  0.4048470000000  0.4813210000000 1.0
C      1  0.5623890000000  0.3947850000000  0.5099330000000 1.0
C      1  0.4364340000000  0.3953550000000  0.4916300000000 1.0
C      1  0.5635660000000  0.6046450000000  0.5083700000000 1.0
C      1  0.4376110000000  0.6052150000000  0.4900670000000 1.0
C      1  0.5913870000000  0.5457040000000  0.5096320000000 1.0
C      1  0.4091300000000  0.5465770000000  0.4896810000000 1.0
C      1  0.5908690000000  0.4534230000000  0.5103190000000 1.0
C      1  0.4086130000000  0.4542960000000  0.4903680000000 1.0
C      1  0.5566470000000  0.5147950000000  0.5141350000000 1.0
C      1  0.4435210000000  0.5152180000000  0.4856410000000 1.0
C      1  0.5564790000000  0.4847820000000  0.5143590000000 1.0
C      1  0.4433530000000  0.4852050000000  0.4858650000000 1.0
C      1  0.5050870000000  0.4138500000000  0.4664160000000 1.0
C      1  0.4939500000000  0.4144220000000  0.5348630000000 1.0
C      1  0.5060500000000  0.5855780000000  0.4651370000000 1.0
C      1  0.4949130000000  0.5861500000000  0.5335840000000 1.0
C      1  0.4921720000000  0.4864050000000  0.5604660000000 1.0
C      1  0.5076700000000  0.4854190000000  0.4397430000000 1.0
C      1  0.4923300000000  0.5145810000000  0.5602570000000 1.0
C      1  0.5078280000000  0.5135950000000  0.4395330000000 1.0
C      1  0.4263000000000  0.5880950000000  0.5115070000000 1.0
C      1  0.5746830000000  0.5870820000000  0.4871880000000 1.0
C      1  0.4253170000000  0.4129180000000  0.5128120000000 1.0
C      1  0.5737000000000  0.4119050000000  0.4884930000000 1.0
END
