TITL C-101435-5563-8 217.828164881788 125000 -569.840262982632 0 0 85 (C1) n - 1
REM
REM in /rds/project/t2_vol4/rds-t2-cs072/BORA/CARBON/from-Arr/AIRSS/Generating-Clusters/GAP-ML-2020/Higher-Symm/SD-CG/HFTN-CG
REM
REM
REM
REM
REM
REM ./C.cell (b20cbc046b6831c77cfcea5457e17084)
REM AIRSS Version 0.9.1 bugfix July 2018 build 013d7b7c2542+ Fri, 06 Jul 2018 19:26:36 +0100
REM compiler GCC version 9.3.0
REM options -cpp -mtune=generic -march=x86-64 -g -O0
REM seed 808501810 602518218 1421313156 2055366859 213873820 609758164 -70695226 -2012304904 -1725952387 -1702186242 -610706094 1327027210 1326469049 1666588291 2066011515 -1842166504 728554569 1802134929 -793588770 -928861492 814574035 -1655193501 2045258215 1286440891 -1583050649 966148307 -1450500917 275900265 -563188707 2100709468 1610335528 703792009 -80282224
REM
CELL 1.54180   50.00000   50.00000   50.00000   90.00000   90.00000   90.00000
LATT -1
SFAC C  
C      1  0.5635470000000  0.4901390000000  0.5420650000000 1.0
C      1  0.5040220000000  0.4963160000000  0.4243190000000 1.0
C      1  0.4322410000000  0.4929060000000  0.5346300000000 1.0
C      1  0.4760260000000  0.5324450000000  0.4134880000000 1.0
C      1  0.4364150000000  0.5270030000000  0.5668290000000 1.0
C      1  0.5894100000000  0.5251570000000  0.5243290000000 1.0
C      1  0.5626770000000  0.4648170000000  0.4615630000000 1.0
C      1  0.4345210000000  0.4674060000000  0.4626130000000 1.0
C      1  0.5007220000000  0.4624950000000  0.5745790000000 1.0
C      1  0.4566880000000  0.4929710000000  0.4283730000000 1.0
C      1  0.4593130000000  0.4872330000000  0.5736970000000 1.0
C      1  0.5828330000000  0.4869470000000  0.4986960000000 1.0
C      1  0.5119630000000  0.4270400000000  0.4984610000000 1.0
C      1  0.4920410000000  0.4292800000000  0.4770140000000 1.0
C      1  0.4888460000000  0.4299530000000  0.5158850000000 1.0
C      1  0.4735580000000  0.4818720000000  0.4867030000000 1.0
C      1  0.5017020000000  0.4805930000000  0.5295930000000 1.0
C      1  0.5233280000000  0.4814130000000  0.4839310000000 1.0
C      1  0.4860640000000  0.5291020000000  0.5820740000000 1.0
C      1  0.5773490000000  0.5304490000000  0.4743920000000 1.0
C      1  0.4383810000000  0.5345440000000  0.4491920000000 1.0
C      1  0.5006790000000  0.5371990000000  0.4525500000000 1.0
C      1  0.4578150000000  0.5349630000000  0.5266050000000 1.0
C      1  0.5439060000000  0.5335490000000  0.5269440000000 1.0
C      1  0.5019170000000  0.4727430000000  0.4420990000000 1.0
C      1  0.4490040000000  0.4698630000000  0.5259100000000 1.0
C      1  0.5478380000000  0.4679060000000  0.5304450000000 1.0
C      1  0.4794660000000  0.5493700000000  0.4342940000000 1.0
C      1  0.4524210000000  0.5451950000000  0.5548580000000 1.0
C      1  0.5711220000000  0.5440740000000  0.5179680000000 1.0
C      1  0.4714500000000  0.4505120000000  0.4747180000000 1.0
C      1  0.4938900000000  0.4497640000000  0.5361260000000 1.0
C      1  0.5305080000000  0.4501730000000  0.4858670000000 1.0
C      1  0.4766770000000  0.5525110000000  0.5686140000000 1.0
C      1  0.5707440000000  0.5530570000000  0.4906290000000 1.0
C      1  0.4558170000000  0.5572210000000  0.4486950000000 1.0
C      1  0.5849620000000  0.4978290000000  0.5253100000000 1.0
C      1  0.4789660000000  0.5049150000000  0.4144880000000 1.0
C      1  0.4361880000000  0.4996940000000  0.5617580000000 1.0
C      1  0.5190180000000  0.5732850000000  0.5440270000000 1.0
C      1  0.5282860000000  0.5754090000000  0.4678240000000 1.0
C      1  0.4574220000000  0.5755510000000  0.4983410000000 1.0
C      1  0.5592850000000  0.5379600000000  0.4533010000000 1.0
C      1  0.4291480000000  0.5397870000000  0.4759370000000 1.0
C      1  0.5138350000000  0.5350840000000  0.5770600000000 1.0
C      1  0.4480310000000  0.5623560000000  0.4767090000000 1.0
C      1  0.5048220000000  0.5585670000000  0.5617340000000 1.0
C      1  0.5507290000000  0.5605200000000  0.4701860000000 1.0
C      1  0.5647140000000  0.5059330000000  0.4859360000000 1.0
C      1  0.4545860000000  0.5096770000000  0.4521960000000 1.0
C      1  0.4808000000000  0.5051410000000  0.5651910000000 1.0
C      1  0.5755580000000  0.4611780000000  0.4885090000000 1.0
C      1  0.4515050000000  0.4662880000000  0.4369220000000 1.0
C      1  0.4697160000000  0.4608440000000  0.5719990000000 1.0
C      1  0.5421010000000  0.4451820000000  0.4586410000000 1.0
C      1  0.4423960000000  0.4460820000000  0.4799630000000 1.0
C      1  0.5123960000000  0.4424220000000  0.5582570000000 1.0
C      1  0.5206130000000  0.5527400000000  0.5249370000000 1.0
C      1  0.5107820000000  0.5546360000000  0.4749150000000 1.0
C      1  0.4723270000000  0.5539600000000  0.5082840000000 1.0
C      1  0.5551480000000  0.4500370000000  0.5052780000000 1.0
C      1  0.4764270000000  0.4541720000000  0.4443890000000 1.0
C      1  0.4642890000000  0.4507950000000  0.5453380000000 1.0
C      1  0.5261230000000  0.5115370000000  0.5675060000000 1.0
C      1  0.5444520000000  0.5150630000000  0.4461590000000 1.0
C      1  0.4302190000000  0.5154780000000  0.4902860000000 1.0
C      1  0.4841670000000  0.5154330000000  0.4639640000000 1.0
C      1  0.4758600000000  0.5125790000000  0.5338000000000 1.0
C      1  0.5405710000000  0.5128280000000  0.5061320000000 1.0
C      1  0.4421850000000  0.4458070000000  0.5081710000000 1.0
C      1  0.5356090000000  0.4425900000000  0.5421480000000 1.0
C      1  0.5191060000000  0.4474860000000  0.4426250000000 1.0
C      1  0.4339790000000  0.5166250000000  0.5175780000000 1.0
C      1  0.5479570000000  0.5135240000000  0.5506880000000 1.0
C      1  0.5192430000000  0.5185860000000  0.4355720000000 1.0
C      1  0.4445430000000  0.4930370000000  0.4748790000000 1.0
C      1  0.5058640000000  0.4894220000000  0.5615200000000 1.0
C      1  0.5487720000000  0.4913700000000  0.4653250000000 1.0
C      1  0.5258570000000  0.4880340000000  0.5127940000000 1.0
C      1  0.4972630000000  0.4898100000000  0.4711800000000 1.0
C      1  0.4759930000000  0.4882700000000  0.5166230000000 1.0
C      1  0.4968320000000  0.4309310000000  0.4484940000000 1.0
C      1  0.4608920000000  0.4293560000000  0.5219620000000 1.0
C      1  0.5376370000000  0.4282620000000  0.5169910000000 1.0
C      1  0.5012560000000  0.5530370000000  0.5027100000000 1.0
END
