TITL C-109523-6177-6 -47.8294473917007 125000 -723.975105269925 0 0 104 (C1) n - 1
REM
REM in /rds/project/t2_vol4/rds-t2-cs072/BORA/CARBON/from-Arr/AIRSS/Generating-Clusters/GAP-ML-2020/Higher-Symm/SD-CG/HFTN-CG
REM
REM
REM
REM
REM
REM ./C.cell (b20cbc046b6831c77cfcea5457e17084)
REM AIRSS Version 0.9.1 bugfix July 2018 build 013d7b7c2542+ Fri, 06 Jul 2018 19:26:36 +0100
REM compiler GCC version 9.3.0
REM options -cpp -mtune=generic -march=x86-64 -g -O0
REM seed 65671405 -268199593 -1762683528 -1369062546 -970106678 -1532219029 1298724873 -473564654 423522628 -784561795 2136367661 -1552983969 -470788918 -1801180745 -2062216288 1446387973 1575474590 1240744620 1744217551 554735798 1697241875 434806331 -1142631064 274849420 159278794 974984715 1719126342 -231912597 -392159876 -1026963400 372681587 1284089424 -1881346215
REM
CELL 1.54180   50.00000   50.00000   50.00000   90.00000   90.00000   90.00000
LATT -1
SFAC C  
C      1  0.4543190000000  0.4329170000000  0.5085850000000 1.0
C      1  0.4539280000000  0.5248430000000  0.4329110000000 1.0
C      1  0.4513620000000  0.5501090000000  0.5513930000000 1.0
C      1  0.5615350000000  0.4849480000000  0.5503540000000 1.0
C      1  0.5651930000000  0.4597270000000  0.4585500000000 1.0
C      1  0.5643220000000  0.5502010000000  0.4860150000000 1.0
C      1  0.5004000000000  0.5914520000000  0.5206350000000 1.0
C      1  0.5005860000000  0.4317570000000  0.5633440000000 1.0
C      1  0.5007210000000  0.4745280000000  0.4085160000000 1.0
C      1  0.4253720000000  0.5275970000000  0.4844440000000 1.0
C      1  0.4300990000000  0.5021090000000  0.5309860000000 1.0
C      1  0.4268650000000  0.4772130000000  0.4848670000000 1.0
C      1  0.5269510000000  0.4452200000000  0.5556530000000 1.0
C      1  0.5287570000000  0.4724740000000  0.4182000000000 1.0
C      1  0.5269120000000  0.5797890000000  0.5157640000000 1.0
C      1  0.4906820000000  0.4547960000000  0.5008900000000 1.0
C      1  0.4883100000000  0.5223400000000  0.4566250000000 1.0
C      1  0.4778690000000  0.5302370000000  0.5831620000000 1.0
C      1  0.4563430000000  0.4332510000000  0.5369290000000 1.0
C      1  0.4564730000000  0.4991060000000  0.4213040000000 1.0
C      1  0.4556330000000  0.5717860000000  0.5333150000000 1.0
C      1  0.4289280000000  0.4757480000000  0.4571010000000 1.0
C      1  0.4294050000000  0.5522440000000  0.4955540000000 1.0
C      1  0.4328060000000  0.4775970000000  0.5426900000000 1.0
C      1  0.5203160000000  0.5225580000000  0.4921710000000 1.0
C      1  0.5306290000000  0.4994220000000  0.5075560000000 1.0
C      1  0.5321600000000  0.4772180000000  0.4889830000000 1.0
C      1  0.4426350000000  0.5216090000000  0.5511600000000 1.0
C      1  0.4459770000000  0.4554050000000  0.4919600000000 1.0
C      1  0.4436940000000  0.5297220000000  0.4602720000000 1.0
C      1  0.4869150000000  0.4516530000000  0.4167360000000 1.0
C      1  0.4878330000000  0.5958750000000  0.4959590000000 1.0
C      1  0.4883030000000  0.4484370000000  0.5814290000000 1.0
C      1  0.5619250000000  0.5489200000000  0.5154370000000 1.0
C      1  0.5679090000000  0.4589310000000  0.5363730000000 1.0
C      1  0.5685550000000  0.4862210000000  0.4453480000000 1.0
C      1  0.5500460000000  0.4367210000000  0.5375930000000 1.0
C      1  0.5455920000000  0.4957610000000  0.4297930000000 1.0
C      1  0.5380120000000  0.5564850000000  0.5320320000000 1.0
C      1  0.4622070000000  0.4523710000000  0.4309040000000 1.0
C      1  0.4629960000000  0.5848370000000  0.4883940000000 1.0
C      1  0.4634090000000  0.4609830000000  0.5757610000000 1.0
C      1  0.5128020000000  0.4808960000000  0.4669810000000 1.0
C      1  0.5009670000000  0.5378240000000  0.5054870000000 1.0
C      1  0.5105150000000  0.4896910000000  0.5295530000000 1.0
C      1  0.5216170000000  0.4621080000000  0.5311220000000 1.0
C      1  0.5244420000000  0.4990980000000  0.4498640000000 1.0
C      1  0.5116770000000  0.5384390000000  0.5310930000000 1.0
C      1  0.5031960000000  0.4182110000000  0.4769460000000 1.0
C      1  0.5043320000000  0.5590100000000  0.4375630000000 1.0
C      1  0.5030540000000  0.5169650000000  0.5893960000000 1.0
C      1  0.4759330000000  0.5286540000000  0.4992460000000 1.0
C      1  0.4857960000000  0.4815480000000  0.5171700000000 1.0
C      1  0.4853040000000  0.4897770000000  0.4719330000000 1.0
C      1  0.5074180000000  0.4673080000000  0.5918060000000 1.0
C      1  0.5055530000000  0.4340410000000  0.4297770000000 1.0
C      1  0.5069630000000  0.5909940000000  0.4753140000000 1.0
C      1  0.4832740000000  0.4230480000000  0.5003270000000 1.0
C      1  0.4839890000000  0.5366400000000  0.4291410000000 1.0
C      1  0.4709730000000  0.5544810000000  0.5723750000000 1.0
C      1  0.4686150000000  0.5388050000000  0.4720700000000 1.0
C      1  0.4577240000000  0.5116110000000  0.5740830000000 1.0
C      1  0.4716800000000  0.4602240000000  0.4774390000000 1.0
C      1  0.5305960000000  0.4466100000000  0.4323250000000 1.0
C      1  0.5310420000000  0.5809160000000  0.4862880000000 1.0
C      1  0.5310300000000  0.4667120000000  0.5769020000000 1.0
C      1  0.5395540000000  0.4212750000000  0.5128510000000 1.0
C      1  0.5396710000000  0.5267190000000  0.4224970000000 1.0
C      1  0.5339520000000  0.5499170000000  0.5640290000000 1.0
C      1  0.5445630000000  0.4915260000000  0.5714640000000 1.0
C      1  0.5450570000000  0.4405090000000  0.4569760000000 1.0
C      1  0.5459720000000  0.5631190000000  0.4687150000000 1.0
C      1  0.4690530000000  0.4392940000000  0.4549470000000 1.0
C      1  0.4689040000000  0.5687320000000  0.4659280000000 1.0
C      1  0.4667400000000  0.4873140000000  0.5851560000000 1.0
C      1  0.5751180000000  0.5232120000000  0.5142500000000 1.0
C      1  0.5737960000000  0.4735620000000  0.5124990000000 1.0
C      1  0.5758940000000  0.4988440000000  0.4710130000000 1.0
C      1  0.5781120000000  0.5234490000000  0.4851470000000 1.0
C      1  0.5617470000000  0.4991020000000  0.5235840000000 1.0
C      1  0.5657380000000  0.4741020000000  0.4849160000000 1.0
C      1  0.5298200000000  0.5464720000000  0.4465100000000 1.0
C      1  0.5270840000000  0.5184380000000  0.5707010000000 1.0
C      1  0.5295570000000  0.4298700000000  0.4838550000000 1.0
C      1  0.4955240000000  0.5218330000000  0.4077290000000 1.0
C      1  0.4907480000000  0.5741710000000  0.5658230000000 1.0
C      1  0.4947520000000  0.4105710000000  0.5229540000000 1.0
C      1  0.4444990000000  0.5721910000000  0.5065350000000 1.0
C      1  0.4465980000000  0.4559470000000  0.5525240000000 1.0
C      1  0.4447040000000  0.4755730000000  0.4344080000000 1.0
C      1  0.5218730000000  0.5260770000000  0.4022210000000 1.0
C      1  0.5166490000000  0.5684740000000  0.5735770000000 1.0
C      1  0.5209990000000  0.4038720000000  0.5224880000000 1.0
C      1  0.5179210000000  0.5231980000000  0.4629380000000 1.0
C      1  0.5104870000000  0.5145200000000  0.5453020000000 1.0
C      1  0.5207270000000  0.4536490000000  0.5022830000000 1.0
C      1  0.4823430000000  0.4967720000000  0.4075450000000 1.0
C      1  0.4815440000000  0.5843140000000  0.5406070000000 1.0
C      1  0.4811930000000  0.4210010000000  0.5452920000000 1.0
C      1  0.4923750000000  0.4229470000000  0.4518020000000 1.0
C      1  0.4935800000000  0.5778510000000  0.4545550000000 1.0
C      1  0.4935800000000  0.4911900000000  0.5953220000000 1.0
C      1  0.4236740000000  0.5027250000000  0.5008150000000 1.0
C      1  0.4776380000000  0.5003640000000  0.4978390000000 1.0
END
