TITL C-107703-8475-3 -0.219221352101939 125000 -1390.56458355347 0 0 198 (C1) n - 1
REM
REM in /rds/project/t2_vol4/rds-t2-cs072/BORA/CARBON/from-Arr/AIRSS/Generating-Clusters/GAP-ML-2020/Higher-Symm/SD-CG/HFTN-CG/C160-200
REM
REM
REM
REM
REM
REM ./C.cell (6b4489405718ea1b717e0baf1da4c2d9)
REM AIRSS Version 0.9.1 bugfix July 2018 build 013d7b7c2542+ Fri, 06 Jul 2018 19:26:36 +0100
REM compiler GCC version 9.3.0
REM options -cpp -mtune=generic -march=x86-64 -g -O0
REM seed -539173888 1046539840 46244511 -1942620825 -1370549220 1975112207 1058248109 1762791540 137864444 42256944 -121007082 -332544801 1851594007 -574895069 739121085 5353479 789174170 1081707287 1341928112 -2244473 -974182743 -58079591 -1602334053 -1463906445 -132623338 -85571539 -1803302343 -1412201208 -584327795 718865168 -194754807 875586385 417412912
REM
CELL 1.54180   50.00000   50.00000   50.00000   90.00000   90.00000   90.00000
LATT -1
SFAC C  
C      1  0.4845680000000  0.5198730000000  0.3758470000000 1.0
C      1  0.4854220000000  0.6227860000000  0.4808850000000 1.0
C      1  0.4847900000000  0.5563510000000  0.6121000000000 1.0
C      1  0.4855010000000  0.4111430000000  0.5880170000000 1.0
C      1  0.4846810000000  0.3883920000000  0.4424900000000 1.0
C      1  0.5153590000000  0.4800220000000  0.3761310000000 1.0
C      1  0.5154970000000  0.3764840000000  0.4806280000000 1.0
C      1  0.5161570000000  0.4429630000000  0.6121390000000 1.0
C      1  0.5154780000000  0.5883100000000  0.5881750000000 1.0
C      1  0.5161470000000  0.6113860000000  0.4426170000000 1.0
C      1  0.5128620000000  0.5666910000000  0.4850640000000 1.0
C      1  0.5129330000000  0.5344910000000  0.5596170000000 1.0
C      1  0.5129190000000  0.4542220000000  0.5514370000000 1.0
C      1  0.5129700000000  0.4366340000000  0.4721540000000 1.0
C      1  0.5129410000000  0.5065760000000  0.4311450000000 1.0
C      1  0.4884130000000  0.4326440000000  0.4851140000000 1.0
C      1  0.4883330000000  0.4648800000000  0.5596290000000 1.0
C      1  0.4883470000000  0.5452060000000  0.5515170000000 1.0
C      1  0.4882360000000  0.5627970000000  0.4722020000000 1.0
C      1  0.4883130000000  0.4931620000000  0.4314290000000 1.0
C      1  0.4733410000000  0.4866270000000  0.4765390000000 1.0
C      1  0.4733160000000  0.5176240000000  0.4801210000000 1.0
C      1  0.4733330000000  0.5237360000000  0.5108570000000 1.0
C      1  0.4733580000000  0.4966870000000  0.5264020000000 1.0
C      1  0.4733170000000  0.4737110000000  0.5053000000000 1.0
C      1  0.5268200000000  0.5124390000000  0.4776900000000 1.0
C      1  0.5268440000000  0.4826820000000  0.4809690000000 1.0
C      1  0.5268490000000  0.4765630000000  0.5103150000000 1.0
C      1  0.5267210000000  0.5025100000000  0.5252570000000 1.0
C      1  0.5268890000000  0.5247000000000  0.5051000000000 1.0
C      1  0.5556260000000  0.4208840000000  0.4431000000000 1.0
C      1  0.5552260000000  0.5296720000000  0.4068410000000 1.0
C      1  0.5555580000000  0.5964830000000  0.5001700000000 1.0
C      1  0.5554480000000  0.5301340000000  0.5925680000000 1.0
C      1  0.5555110000000  0.4210100000000  0.5567990000000 1.0
C      1  0.4453210000000  0.5784740000000  0.4432440000000 1.0
C      1  0.4454620000000  0.4692950000000  0.4075460000000 1.0
C      1  0.4454590000000  0.4029480000000  0.5002450000000 1.0
C      1  0.4455560000000  0.4693030000000  0.5924690000000 1.0
C      1  0.4454830000000  0.5783220000000  0.5567320000000 1.0
C      1  0.6044400000000  0.4572690000000  0.4912110000000 1.0
C      1  0.6048760000000  0.4926100000000  0.4527410000000 1.0
C      1  0.6046970000000  0.5372490000000  0.4791370000000 1.0
C      1  0.6045000000000  0.5321440000000  0.5336130000000 1.0
C      1  0.6045060000000  0.4778760000000  0.5416550000000 1.0
C      1  0.3963860000000  0.5420660000000  0.4911840000000 1.0
C      1  0.3961170000000  0.5067700000000  0.4525710000000 1.0
C      1  0.3961310000000  0.4620790000000  0.4790080000000 1.0
C      1  0.3964190000000  0.4671100000000  0.5335300000000 1.0
C      1  0.3964150000000  0.5213600000000  0.5416770000000 1.0
C      1  0.5111950000000  0.5578260000000  0.4032530000000 1.0
C      1  0.5113000000000  0.6087910000000  0.5250680000000 1.0
C      1  0.5114350000000  0.5095390000000  0.6122860000000 1.0
C      1  0.5112730000000  0.3966630000000  0.5437860000000 1.0
C      1  0.5115340000000  0.4261920000000  0.4149300000000 1.0
C      1  0.4898360000000  0.4422540000000  0.4034120000000 1.0
C      1  0.4897780000000  0.3905820000000  0.5249360000000 1.0
C      1  0.4895630000000  0.4898070000000  0.6122070000000 1.0
C      1  0.4897880000000  0.6026160000000  0.5438640000000 1.0
C      1  0.4893410000000  0.5736400000000  0.4150470000000 1.0
C      1  0.4552120000000  0.3847720000000  0.4805580000000 1.0
C      1  0.4553280000000  0.4824870000000  0.3842520000000 1.0
C      1  0.4545030000000  0.6045120000000  0.4497850000000 1.0
C      1  0.4553980000000  0.5815550000000  0.5832920000000 1.0
C      1  0.4547030000000  0.4443520000000  0.6024520000000 1.0
C      1  0.5457680000000  0.6147500000000  0.4805990000000 1.0
C      1  0.5459670000000  0.5154590000000  0.3841280000000 1.0
C      1  0.5463570000000  0.3948600000000  0.4494790000000 1.0
C      1  0.5455640000000  0.4177660000000  0.5833380000000 1.0
C      1  0.5462740000000  0.5550660000000  0.6026000000000 1.0
C      1  0.5370260000000  0.4432090000000  0.5934650000000 1.0
C      1  0.5382040000000  0.3941810000000  0.4772400000000 1.0
C      1  0.5379190000000  0.4888500000000  0.3920250000000 1.0
C      1  0.5371100000000  0.6001750000000  0.4574770000000 1.0
C      1  0.5380720000000  0.5718880000000  0.5805210000000 1.0
C      1  0.4640490000000  0.5561060000000  0.5932850000000 1.0
C      1  0.4628500000000  0.6049100000000  0.4774710000000 1.0
C      1  0.4639570000000  0.5089090000000  0.3913230000000 1.0
C      1  0.4639190000000  0.3995920000000  0.4575820000000 1.0
C      1  0.4630180000000  0.4276840000000  0.5803020000000 1.0
C      1  0.5633900000000  0.4495890000000  0.5506160000000 1.0
C      1  0.5636620000000  0.4368600000000  0.4687840000000 1.0
C      1  0.5632750000000  0.5105140000000  0.4296830000000 1.0
C      1  0.5636110000000  0.5693310000000  0.4885480000000 1.0
C      1  0.5638600000000  0.5317760000000  0.5629770000000 1.0
C      1  0.4375880000000  0.5497830000000  0.5504420000000 1.0
C      1  0.4373790000000  0.5623150000000  0.4687110000000 1.0
C      1  0.4378130000000  0.4886660000000  0.4296150000000 1.0
C      1  0.4373930000000  0.4301110000000  0.4888010000000 1.0
C      1  0.4371320000000  0.4677740000000  0.5629240000000 1.0
C      1  0.4196290000000  0.4536900000000  0.5421060000000 1.0
C      1  0.4196270000000  0.4468960000000  0.4704980000000 1.0
C      1  0.4205170000000  0.5118140000000  0.4383540000000 1.0
C      1  0.4194590000000  0.5596600000000  0.4934820000000 1.0
C      1  0.4196540000000  0.5260980000000  0.5567350000000 1.0
C      1  0.5813310000000  0.5455890000000  0.5421350000000 1.0
C      1  0.5812510000000  0.5523290000000  0.4705380000000 1.0
C      1  0.5804840000000  0.4874810000000  0.4386090000000 1.0
C      1  0.5814250000000  0.4397460000000  0.4935050000000 1.0
C      1  0.5812630000000  0.4732300000000  0.5566620000000 1.0
C      1  0.5147900000000  0.5263040000000  0.4530290000000 1.0
C      1  0.5146400000000  0.5522210000000  0.5106430000000 1.0
C      1  0.5147570000000  0.5056720000000  0.5534800000000 1.0
C      1  0.5147670000000  0.4509950000000  0.5221990000000 1.0
C      1  0.5147160000000  0.4635310000000  0.4601990000000 1.0
C      1  0.4865010000000  0.4730000000000  0.4528300000000 1.0
C      1  0.4866460000000  0.4469170000000  0.5107790000000 1.0
C      1  0.4864900000000  0.4937590000000  0.5537930000000 1.0
C      1  0.4865120000000  0.5486790000000  0.5223040000000 1.0
C      1  0.4865120000000  0.5361040000000  0.4597790000000 1.0
C      1  0.3909660000000  0.4813300000000  0.4602400000000 1.0
C      1  0.3916180000000  0.5294840000000  0.4678420000000 1.0
C      1  0.3880160000000  0.5260760000000  0.5139470000000 1.0
C      1  0.3881330000000  0.4936110000000  0.5403770000000 1.0
C      1  0.3879360000000  0.4705510000000  0.5055330000000 1.0
C      1  0.6099180000000  0.5180140000000  0.4603960000000 1.0
C      1  0.6090700000000  0.4698250000000  0.4678780000000 1.0
C      1  0.6128090000000  0.4732190000000  0.5139120000000 1.0
C      1  0.6127510000000  0.5056310000000  0.5403580000000 1.0
C      1  0.6128300000000  0.5287410000000  0.5055870000000 1.0
C      1  0.4377640000000  0.4664090000000  0.4544330000000 1.0
C      1  0.4375680000000  0.5323390000000  0.4542230000000 1.0
C      1  0.4375340000000  0.5528480000000  0.5175810000000 1.0
C      1  0.4376480000000  0.4998190000000  0.5563840000000 1.0
C      1  0.4378150000000  0.4461330000000  0.5174030000000 1.0
C      1  0.5631130000000  0.5327300000000  0.4542980000000 1.0
C      1  0.5633630000000  0.4669140000000  0.4546110000000 1.0
C      1  0.5633660000000  0.4467130000000  0.5175800000000 1.0
C      1  0.5632350000000  0.4996700000000  0.5562300000000 1.0
C      1  0.5631460000000  0.5530980000000  0.5172600000000 1.0
C      1  0.5380650000000  0.4361140000000  0.4263190000000 1.0
C      1  0.5377230000000  0.5503020000000  0.4162570000000 1.0
C      1  0.5377810000000  0.5941450000000  0.5225960000000 1.0
C      1  0.5379410000000  0.5079390000000  0.5972990000000 1.0
C      1  0.5377330000000  0.4100130000000  0.5371520000000 1.0
C      1  0.4628340000000  0.5634270000000  0.4262470000000 1.0
C      1  0.4633810000000  0.4488450000000  0.4167620000000 1.0
C      1  0.4632670000000  0.4052210000000  0.5226370000000 1.0
C      1  0.4630240000000  0.4915020000000  0.5972720000000 1.0
C      1  0.4632570000000  0.5893830000000  0.5371350000000 1.0
C      1  0.5373200000000  0.4905340000000  0.4226920000000 1.0
C      1  0.5373320000000  0.5709560000000  0.4671000000000 1.0
C      1  0.5373120000000  0.5523870000000  0.5569770000000 1.0
C      1  0.5371660000000  0.4611830000000  0.5685610000000 1.0
C      1  0.5377330000000  0.4240010000000  0.4848720000000 1.0
C      1  0.4640010000000  0.5087590000000  0.4220000000000 1.0
C      1  0.4638550000000  0.4286390000000  0.4673380000000 1.0
C      1  0.4638870000000  0.4471440000000  0.5568320000000 1.0
C      1  0.4639780000000  0.5381420000000  0.5684510000000 1.0
C      1  0.4634620000000  0.5751370000000  0.4849660000000 1.0
C      1  0.5303420000000  0.6347060000000  0.4904420000000 1.0
C      1  0.5256660000000  0.5559240000000  0.6209970000000 1.0
C      1  0.5302970000000  0.3957540000000  0.5871360000000 1.0
C      1  0.5256240000000  0.3835450000000  0.4350860000000 1.0
C      1  0.5253650000000  0.5255710000000  0.3687220000000 1.0
C      1  0.4705720000000  0.3647310000000  0.4903050000000 1.0
C      1  0.4752410000000  0.4434420000000  0.6209060000000 1.0
C      1  0.4706240000000  0.6035780000000  0.5871510000000 1.0
C      1  0.4751010000000  0.6160700000000  0.4354160000000 1.0
C      1  0.4705320000000  0.4671070000000  0.3679740000000 1.0
C      1  0.4430360000000  0.5151550000000  0.4793590000000 1.0
C      1  0.4431040000000  0.5236720000000  0.5085460000000 1.0
C      1  0.4430800000000  0.4989240000000  0.5256140000000 1.0
C      1  0.4430610000000  0.4751700000000  0.5072310000000 1.0
C      1  0.4431990000000  0.4850970000000  0.4784780000000 1.0
C      1  0.5577050000000  0.4842240000000  0.4795000000000 1.0
C      1  0.5575540000000  0.4757640000000  0.5086460000000 1.0
C      1  0.5575580000000  0.5005290000000  0.5256000000000 1.0
C      1  0.5576320000000  0.5242370000000  0.5071870000000 1.0
C      1  0.5575350000000  0.5142160000000  0.4785040000000 1.0
C      1  0.4627030000000  0.5073530000000  0.5715900000000 1.0
C      1  0.4631170000000  0.4344840000000  0.5291150000000 1.0
C      1  0.4629920000000  0.4513930000000  0.4466510000000 1.0
C      1  0.4629320000000  0.5355280000000  0.4375270000000 1.0
C      1  0.4628050000000  0.5693070000000  0.5148300000000 1.0
C      1  0.5383770000000  0.4920170000000  0.5716200000000 1.0
C      1  0.5380460000000  0.5648870000000  0.5291360000000 1.0
C      1  0.5382090000000  0.5480480000000  0.4463810000000 1.0
C      1  0.5380410000000  0.4639060000000  0.4379530000000 1.0
C      1  0.5382980000000  0.4300420000000  0.5147540000000 1.0
C      1  0.4946590000000  0.6013700000000  0.5726530000000 1.0
C      1  0.4956500000000  0.4631350000000  0.6200590000000 1.0
C      1  0.4946410000000  0.3748740000000  0.5008140000000 1.0
C      1  0.4946100000000  0.4602430000000  0.3809560000000 1.0
C      1  0.4955340000000  0.5997880000000  0.4243750000000 1.0
C      1  0.5063070000000  0.3980010000000  0.5725620000000 1.0
C      1  0.5052770000000  0.5362070000000  0.6200770000000 1.0
C      1  0.5063280000000  0.6244750000000  0.5009760000000 1.0
C      1  0.5050100000000  0.5409040000000  0.3812050000000 1.0
C      1  0.5052230000000  0.3999700000000  0.4242160000000 1.0
C      1  0.5057910000000  0.3719950000000  0.4542680000000 1.0
C      1  0.5055870000000  0.5036800000000  0.3637450000000 1.0
C      1  0.4949800000000  0.6275770000000  0.4545440000000 1.0
C      1  0.4950750000000  0.4228080000000  0.6121310000000 1.0
C      1  0.5058360000000  0.5765490000000  0.6122130000000 1.0
C      1  0.6207630000000  0.5013270000000  0.5115840000000 1.0
C      1  0.3799270000000  0.4979540000000  0.5116810000000 1.0
C      1  0.4868050000000  0.4995910000000  0.4997190000000 1.0
END
