TITL C-100734-7395-6 -0.0344296455093951 125000 -121.695305883603 0 0 19 (C2v) n - 1
REM
REM in /rds/project/t2_vol4/rds-t2-cs072/BORA/CARBON/from-Arr/AIRSS/Generating-Clusters/GAP-ML-2020/Higher-Symm/SD-CG/HFTN-CG
REM
REM
REM
REM
REM
REM ./C.cell (b20cbc046b6831c77cfcea5457e17084)
REM AIRSS Version 0.9.1 bugfix July 2018 build 013d7b7c2542+ Fri, 06 Jul 2018 19:26:36 +0100
REM compiler GCC version 9.3.0
REM options -cpp -mtune=generic -march=x86-64 -g -O0
REM seed 359393790 -1121153699 1213496149 1854809394 -1526264464 -2064325603 -932080203 -590194693 583182347 1018120370 1940985241 2143993790 831857327 -710515565 1895787757 483285351 -269019966 1312329680 -2103512313 -2075216014 1309558317 -580167484 1080429461 1007537444 -281039747 -840641542 1964152333 2059883302 1869352546 1169386369 723625943 -1470516920 -269139083
REM
CELL 1.54180   50.00000   50.00000   50.00000   90.00000   90.00000   90.00000
LATT -1
SFAC C  
C      1  0.5109740000000  0.5452160000000  0.5063440000000 1.0
C      1  0.5147750000000  0.5288540000000  0.5307170000000 1.0
C      1  0.5263680000000  0.5044630000000  0.5266590000000 1.0
C      1  0.5187980000000  0.4787470000000  0.5303710000000 1.0
C      1  0.5187300000000  0.4592710000000  0.5090480000000 1.0
C      1  0.5165360000000  0.4627590000000  0.4813650000000 1.0
C      1  0.5136760000000  0.4868880000000  0.4657580000000 1.0
C      1  0.5222320000000  0.5110380000000  0.4744760000000 1.0
C      1  0.5106290000000  0.5354460000000  0.4784050000000 1.0
C      1  0.4729890000000  0.5071580000000  0.4778900000000 1.0
C      1  0.4810730000000  0.5331170000000  0.4804540000000 1.0
C      1  0.4830450000000  0.5430150000000  0.5082800000000 1.0
C      1  0.4852190000000  0.5265250000000  0.5327660000000 1.0
C      1  0.4771250000000  0.5005820000000  0.5300730000000 1.0
C      1  0.4890480000000  0.4764030000000  0.5324340000000 1.0
C      1  0.4892260000000  0.4569460000000  0.5110940000000 1.0
C      1  0.4870320000000  0.4604340000000  0.4834110000000 1.0
C      1  0.4839270000000  0.4845440000000  0.4678200000000 1.0
C      1  0.4999740000000  0.5015750000000  0.5017170000000 1.0
END
