TITL C-100756-6250-11 -10.1121766138006 125000 -975.766291994805 0 0 136 (C3) n - 1
REM
REM in /rds/project/t2_vol4/rds-t2-cs072/BORA/CARBON/from-Arr/AIRSS/Generating-Clusters/GAP-ML-2020/Higher-Symm/SD-CG/HFTN-CG
REM
REM
REM
REM
REM
REM ./C.cell (b20cbc046b6831c77cfcea5457e17084)
REM AIRSS Version 0.9.1 bugfix July 2018 build 013d7b7c2542+ Fri, 06 Jul 2018 19:26:36 +0100
REM compiler GCC version 9.3.0
REM options -cpp -mtune=generic -march=x86-64 -g -O0
REM seed 1233150996 -922030049 1128902140 1566080632 298409805 -1556055932 -2054856772 755526356 -1444772426 -391774668 -494768065 -998195103 747475893 -1935174186 -1550694891 -1442893045 1717237027 1973520502 1434167799 -40501421 582498713 -374524691 1570531409 -709920434 -965993001 1414740851 921262200 -944775107 -1285383724 -2007886631 1578979676 1526332597 -1350269435
REM
CELL 1.54180   50.00000   50.00000   50.00000   90.00000   90.00000   90.00000
LATT -1
SFAC C  
C      1  0.4108060000000  0.4903180000000  0.4634160000000 1.0
C      1  0.5127020000000  0.4903100000000  0.5956670000000 1.0
C      1  0.5762870000000  0.4903300000000  0.4412970000000 1.0
C      1  0.5711450000000  0.5607540000000  0.5425830000000 1.0
C      1  0.5010800000000  0.5607640000000  0.4172340000000 1.0
C      1  0.4275570000000  0.5607460000000  0.5405860000000 1.0
C      1  0.5487710000000  0.4189630000000  0.4745070000000 1.0
C      1  0.4533370000000  0.4189580000000  0.4706320000000 1.0
C      1  0.4976990000000  0.4189520000000  0.5552180000000 1.0
C      1  0.4636230000000  0.4793100000000  0.5365610000000 1.0
C      1  0.5496400000000  0.4793180000000  0.5133530000000 1.0
C      1  0.4865330000000  0.4793210000000  0.4504640000000 1.0
C      1  0.5272900000000  0.4698210000000  0.4943260000000 1.0
C      1  0.4812320000000  0.4698200000000  0.4793320000000 1.0
C      1  0.4912760000000  0.4698150000000  0.5267160000000 1.0
C      1  0.5295800000000  0.5811920000000  0.5501360000000 1.0
C      1  0.5284000000000  0.5812020000000  0.4494550000000 1.0
C      1  0.4417980000000  0.5811920000000  0.5008180000000 1.0
C      1  0.4392460000000  0.5571250000000  0.4573060000000 1.0
C      1  0.4931780000000  0.5571160000000  0.5740990000000 1.0
C      1  0.5673580000000  0.5571320000000  0.4689960000000 1.0
C      1  0.4637400000000  0.5042740000000  0.4138890000000 1.0
C      1  0.4433400000000  0.5042560000000  0.5745900000000 1.0
C      1  0.5927120000000  0.5042710000000  0.5119060000000 1.0
C      1  0.4329270000000  0.4532320000000  0.4475900000000 1.0
C      1  0.4879420000000  0.4532200000000  0.5844190000000 1.0
C      1  0.5789320000000  0.4532380000000  0.4683600000000 1.0
C      1  0.4983780000000  0.6011840000000  0.4840490000000 1.0
C      1  0.4867650000000  0.6011810000000  0.5095230000000 1.0
C      1  0.5146320000000  0.6011830000000  0.5068430000000 1.0
C      1  0.4941690000000  0.5188750000000  0.5282410000000 1.0
C      1  0.5271550000000  0.5188800000000  0.4910630000000 1.0
C      1  0.4784660000000  0.5188790000000  0.4810850000000 1.0
C      1  0.5476180000000  0.4271810000000  0.4474220000000 1.0
C      1  0.4304560000000  0.4271700000000  0.4851750000000 1.0
C      1  0.5217320000000  0.4271660000000  0.5677640000000 1.0
C      1  0.5046400000000  0.5772840000000  0.5598190000000 1.0
C      1  0.5492570000000  0.5772970000000  0.4662120000000 1.0
C      1  0.4458820000000  0.5772900000000  0.4743760000000 1.0
C      1  0.5275140000000  0.5654270000000  0.4259460000000 1.0
C      1  0.4218840000000  0.5654110000000  0.5133380000000 1.0
C      1  0.5503830000000  0.5654140000000  0.5611200000000 1.0
C      1  0.4474630000000  0.5228630000000  0.5157210000000 1.0
C      1  0.5396650000000  0.5228660000000  0.5377720000000 1.0
C      1  0.5126610000000  0.5228740000000  0.4468970000000 1.0
C      1  0.4999870000000  0.4219500000000  0.4448900000000 1.0
C      1  0.4520800000000  0.4219380000000  0.5276900000000 1.0
C      1  0.5477400000000  0.4219440000000  0.5277790000000 1.0
C      1  0.5141400000000  0.5593140000000  0.5102750000000 1.0
C      1  0.5016030000000  0.5593160000000  0.4827550000000 1.0
C      1  0.4840390000000  0.5593120000000  0.5073720000000 1.0
C      1  0.5858420000000  0.5354910000000  0.5427020000000 1.0
C      1  0.4938400000000  0.5355000000000  0.4044430000000 1.0
C      1  0.4201050000000  0.5354800000000  0.5532490000000 1.0
C      1  0.4247620000000  0.4882060000000  0.5606040000000 1.0
C      1  0.5898910000000  0.4882190000000  0.5349870000000 1.0
C      1  0.4851420000000  0.4882260000000  0.4047890000000 1.0
C      1  0.4660320000000  0.5815310000000  0.5183140000000 1.0
C      1  0.5326150000000  0.5815350000000  0.5204010000000 1.0
C      1  0.5011310000000  0.5815390000000  0.4616940000000 1.0
C      1  0.4864500000000  0.4815860000000  0.5863140000000 1.0
C      1  0.5813140000000  0.4816040000000  0.4687080000000 1.0
C      1  0.4320320000000  0.4815970000000  0.4453560000000 1.0
C      1  0.5197490000000  0.5314270000000  0.5188120000000 1.0
C      1  0.5061970000000  0.5314310000000  0.4736260000000 1.0
C      1  0.4738410000000  0.5314260000000  0.5079550000000 1.0
C      1  0.4655330000000  0.4907650000000  0.4884770000000 1.0
C      1  0.5070420000000  0.4907630000000  0.5357420000000 1.0
C      1  0.5272200000000  0.4907700000000  0.4761620000000 1.0
C      1  0.4186790000000  0.4540030000000  0.5248890000000 1.0
C      1  0.5620100000000  0.4540080000000  0.5581080000000 1.0
C      1  0.5191130000000  0.4540200000000  0.4173710000000 1.0
C      1  0.4524140000000  0.4946610000000  0.5132860000000 1.0
C      1  0.5350860000000  0.4946640000000  0.5346990000000 1.0
C      1  0.5122940000000  0.4946710000000  0.4523970000000 1.0
C      1  0.5723190000000  0.4625050000000  0.5318200000000 1.0
C      1  0.4911890000000  0.4625120000000  0.4215880000000 1.0
C      1  0.4362910000000  0.4624950000000  0.5469640000000 1.0
C      1  0.5052970000000  0.5073540000000  0.3990700000000 1.0
C      1  0.4097280000000  0.5073330000000  0.5460100000000 1.0
C      1  0.5847670000000  0.5073430000000  0.5553060000000 1.0
C      1  0.4811020000000  0.5226340000000  0.5543100000000 1.0
C      1  0.5562650000000  0.5226450000000  0.4893450000000 1.0
C      1  0.4624220000000  0.5226430000000  0.4567350000000 1.0
C      1  0.4541650000000  0.4340760000000  0.4457650000000 1.0
C      1  0.4757470000000  0.4340650000000  0.5669360000000 1.0
C      1  0.5698930000000  0.4340790000000  0.4876610000000 1.0
C      1  0.5316700000000  0.4693820000000  0.5913480000000 1.0
C      1  0.5630660000000  0.4694010000000  0.4270280000000 1.0
C      1  0.4050630000000  0.4693860000000  0.4819980000000 1.0
C      1  0.5642980000000  0.5405310000000  0.4454940000000 1.0
C      1  0.4204260000000  0.5405200000000  0.4717060000000 1.0
C      1  0.5150620000000  0.5405140000000  0.5831960000000 1.0
C      1  0.5666160000000  0.4469950000000  0.4434600000000 1.0
C      1  0.4175220000000  0.4469830000000  0.4707050000000 1.0
C      1  0.5156640000000  0.4469770000000  0.5862020000000 1.0
C      1  0.4700030000000  0.4964750000000  0.5655670000000 1.0
C      1  0.5715680000000  0.4964880000000  0.4933260000000 1.0
C      1  0.4582230000000  0.4964870000000  0.4414890000000 1.0
C      1  0.4620980000000  0.5481210000000  0.4396770000000 1.0
C      1  0.4664870000000  0.5481080000000  0.5631230000000 1.0
C      1  0.5712000000000  0.5481210000000  0.4975990000000 1.0
C      1  0.4990370000000  0.4095430000000  0.5286360000000 1.0
C      1  0.5250830000000  0.4095490000000  0.4866380000000 1.0
C      1  0.4756890000000  0.4095470000000  0.4850810000000 1.0
C      1  0.5394750000000  0.4722710000000  0.4105150000000 1.0
C      1  0.4025570000000  0.4722530000000  0.5106850000000 1.0
C      1  0.5577660000000  0.4722550000000  0.5791740000000 1.0
C      1  0.5615130000000  0.5684190000000  0.5173070000000 1.0
C      1  0.4840050000000  0.5684220000000  0.4382140000000 1.0
C      1  0.4542620000000  0.5684090000000  0.5448840000000 1.0
C      1  0.4746410000000  0.4103330000000  0.5140620000000 1.0
C      1  0.5246590000000  0.4103350000000  0.5150530000000 1.0
C      1  0.5005090000000  0.4103390000000  0.4712410000000 1.0
C      1  0.5403540000000  0.5389200000000  0.5672310000000 1.0
C      1  0.5378250000000  0.5389340000000  0.4315730000000 1.0
C      1  0.4216070000000  0.5389200000000  0.5015920000000 1.0
C      1  0.5689770000000  0.4365990000000  0.5154540000000 1.0
C      1  0.4786920000000  0.4366030000000  0.4326630000000 1.0
C      1  0.4521350000000  0.4365890000000  0.5522470000000 1.0
C      1  0.5327440000000  0.4988080000000  0.4016540000000 1.0
C      1  0.3982440000000  0.4987880000000  0.5209480000000 1.0
C      1  0.5688050000000  0.4987920000000  0.5777810000000 1.0
C      1  0.5488290000000  0.5184660000000  0.4129000000000 1.0
C      1  0.3999370000000  0.5184480000000  0.5013970000000 1.0
C      1  0.5510230000000  0.5184480000000  0.5860920000000 1.0
C      1  0.5237250000000  0.5161010000000  0.5960720000000 1.0
C      1  0.5711210000000  0.5161210000000  0.4315510000000 1.0
C      1  0.4049430000000  0.5161070000000  0.4727660000000 1.0
C      1  0.4413240000000  0.5320740000000  0.5710820000000 1.0
C      1  0.5906770000000  0.5320890000000  0.5154090000000 1.0
C      1  0.4677860000000  0.5320920000000  0.4139020000000 1.0
C      1  0.5238600000000  0.4314110000000  0.4335180000000 1.0
C      1  0.4302930000000  0.4313970000000  0.5127020000000 1.0
C      1  0.5456520000000  0.4314000000000  0.5541410000000 1.0
C      1  0.4999330000000  0.4629500000000  0.5001240000000 1.0
END
