TITL C-102464-7342-2 0.21027022164251 125000 -722.136613006796 0 0 102 (C1) n - 1
REM
REM in /rds/project/t2_vol4/rds-t2-cs072/BORA/CARBON/from-Arr/AIRSS/Generating-Clusters/GAP-ML-2020/Higher-Symm/SD-CG/HFTN-CG
REM
REM
REM
REM
REM
REM ./C.cell (b20cbc046b6831c77cfcea5457e17084)
REM AIRSS Version 0.9.1 bugfix July 2018 build 013d7b7c2542+ Fri, 06 Jul 2018 19:26:36 +0100
REM compiler GCC version 9.3.0
REM options -cpp -mtune=generic -march=x86-64 -g -O0
REM seed 760432146 1344111793 -257152331 -2097025050 -516630691 1672522505 -1667997974 -1121082657 304345034 -334625796 -521562412 1841486854 -1519738919 -738080057 883947114 -2004545082 1250747765 -911076664 -2080717124 -946530982 578328450 -518701796 1515899373 659936368 1600242059 508110844 1421878960 246028150 -1027142869 408798076 1874436244 1797987013 -948181352
REM
CELL 1.54180   50.00000   50.00000   50.00000   90.00000   90.00000   90.00000
LATT -1
SFAC C  
C      1  0.5090680000000  0.4777450000000  0.4301420000000 1.0
C      1  0.5011340000000  0.4605500000000  0.5390590000000 1.0
C      1  0.4502980000000  0.5696640000000  0.5045010000000 1.0
C      1  0.4769700000000  0.4760910000000  0.5326610000000 1.0
C      1  0.5479580000000  0.5084440000000  0.4360550000000 1.0
C      1  0.5831130000000  0.4888890000000  0.4633860000000 1.0
C      1  0.5768880000000  0.5347160000000  0.5225840000000 1.0
C      1  0.5528420000000  0.4596920000000  0.4380850000000 1.0
C      1  0.4872520000000  0.5502690000000  0.5753790000000 1.0
C      1  0.4865620000000  0.5450540000000  0.4259610000000 1.0
C      1  0.5256240000000  0.4675840000000  0.5267380000000 1.0
C      1  0.5345430000000  0.5477660000000  0.4427820000000 1.0
C      1  0.4459690000000  0.5603660000000  0.4600870000000 1.0
C      1  0.5420510000000  0.4561720000000  0.5665500000000 1.0
C      1  0.5174310000000  0.5203060000000  0.5122030000000 1.0
C      1  0.5031300000000  0.5322900000000  0.5897820000000 1.0
C      1  0.4244270000000  0.5095020000000  0.5119160000000 1.0
C      1  0.5902220000000  0.4919880000000  0.4914490000000 1.0
C      1  0.4202870000000  0.4800270000000  0.5147500000000 1.0
C      1  0.5331690000000  0.5301750000000  0.4209680000000 1.0
C      1  0.5140700000000  0.4922720000000  0.5873860000000 1.0
C      1  0.5298330000000  0.5591650000000  0.5513830000000 1.0
C      1  0.5044280000000  0.5164970000000  0.5367120000000 1.0
C      1  0.5297420000000  0.5205890000000  0.4601340000000 1.0
C      1  0.4928040000000  0.5658770000000  0.4454110000000 1.0
C      1  0.4949830000000  0.5819710000000  0.5097590000000 1.0
C      1  0.4969150000000  0.4846320000000  0.4603500000000 1.0
C      1  0.4261200000000  0.5269410000000  0.4845100000000 1.0
C      1  0.4809000000000  0.5046700000000  0.5297740000000 1.0
C      1  0.5099640000000  0.4689710000000  0.4809100000000 1.0
C      1  0.5076200000000  0.4469620000000  0.4331540000000 1.0
C      1  0.5835800000000  0.4665360000000  0.4999910000000 1.0
C      1  0.5279950000000  0.4203290000000  0.5353990000000 1.0
C      1  0.5585450000000  0.4971050000000  0.5344270000000 1.0
C      1  0.4446970000000  0.5444930000000  0.5485780000000 1.0
C      1  0.4843250000000  0.5734240000000  0.5349790000000 1.0
C      1  0.4450930000000  0.4921790000000  0.5735470000000 1.0
C      1  0.5401740000000  0.5038950000000  0.5055340000000 1.0
C      1  0.5873760000000  0.5201150000000  0.4993770000000 1.0
C      1  0.4464460000000  0.4373070000000  0.4874190000000 1.0
C      1  0.5359750000000  0.4200910000000  0.4603360000000 1.0
C      1  0.5469920000000  0.5209650000000  0.4825290000000 1.0
C      1  0.5467620000000  0.4741630000000  0.5444820000000 1.0
C      1  0.4656300000000  0.5034170000000  0.4220400000000 1.0
C      1  0.5204620000000  0.5681090000000  0.4544160000000 1.0
C      1  0.4670730000000  0.4733180000000  0.4600240000000 1.0
C      1  0.4241960000000  0.4923480000000  0.4487630000000 1.0
C      1  0.5266210000000  0.4790760000000  0.5005730000000 1.0
C      1  0.4269080000000  0.5226990000000  0.5386470000000 1.0
C      1  0.4899260000000  0.4305010000000  0.4487880000000 1.0
C      1  0.4520130000000  0.4680520000000  0.5560960000000 1.0
C      1  0.4567260000000  0.5646340000000  0.5321190000000 1.0
C      1  0.4726810000000  0.5181220000000  0.5052030000000 1.0
C      1  0.5309440000000  0.4183820000000  0.5064760000000 1.0
C      1  0.5021870000000  0.5126440000000  0.4662560000000 1.0
C      1  0.4344400000000  0.5552100000000  0.4854760000000 1.0
C      1  0.4145810000000  0.4726380000000  0.4657000000000 1.0
C      1  0.4704670000000  0.4635510000000  0.5073270000000 1.0
C      1  0.4910260000000  0.4487230000000  0.4901360000000 1.0
C      1  0.5173620000000  0.4643240000000  0.5808430000000 1.0
C      1  0.5717330000000  0.4474610000000  0.4829190000000 1.0
C      1  0.4652490000000  0.4432100000000  0.5629000000000 1.0
C      1  0.5014880000000  0.5644460000000  0.5556600000000 1.0
C      1  0.4693330000000  0.4276750000000  0.5386000000000 1.0
C      1  0.5593590000000  0.5572820000000  0.4859410000000 1.0
C      1  0.4621150000000  0.5121030000000  0.5837030000000 1.0
C      1  0.4954180000000  0.4484380000000  0.5681540000000 1.0
C      1  0.5630660000000  0.5578310000000  0.5141100000000 1.0
C      1  0.4964360000000  0.5238580000000  0.4913160000000 1.0
C      1  0.5399490000000  0.5691300000000  0.5266760000000 1.0
C      1  0.4712210000000  0.5731810000000  0.4626710000000 1.0
C      1  0.5346500000000  0.4382950000000  0.4386350000000 1.0
C      1  0.4934370000000  0.4991580000000  0.4161930000000 1.0
C      1  0.5345130000000  0.5715000000000  0.4798590000000 1.0
C      1  0.5430310000000  0.5349410000000  0.5618530000000 1.0
C      1  0.4398420000000  0.5391460000000  0.4423640000000 1.0
C      1  0.5084770000000  0.4143240000000  0.4647290000000 1.0
C      1  0.5390030000000  0.4823810000000  0.4293500000000 1.0
C      1  0.5271450000000  0.5196320000000  0.5809050000000 1.0
C      1  0.4258210000000  0.4744210000000  0.5411720000000 1.0
C      1  0.4611540000000  0.5385820000000  0.5714290000000 1.0
C      1  0.5636580000000  0.5226220000000  0.5454410000000 1.0
C      1  0.5508050000000  0.4258950000000  0.4853880000000 1.0
C      1  0.4231090000000  0.5202040000000  0.4560990000000 1.0
C      1  0.5726210000000  0.4628940000000  0.4581770000000 1.0
C      1  0.4490190000000  0.5081490000000  0.4943020000000 1.0
C      1  0.4507290000000  0.4858960000000  0.4386360000000 1.0
C      1  0.5736340000000  0.5321150000000  0.4761140000000 1.0
C      1  0.4610960000000  0.5314150000000  0.4254520000000 1.0
C      1  0.4730960000000  0.5801970000000  0.4908360000000 1.0
C      1  0.5728050000000  0.5125170000000  0.4529770000000 1.0
C      1  0.4699030000000  0.4437750000000  0.4670810000000 1.0
C      1  0.5231040000000  0.5788980000000  0.5053720000000 1.0
C      1  0.4892940000000  0.5071760000000  0.5931810000000 1.0
C      1  0.5429350000000  0.4315360000000  0.5553430000000 1.0
C      1  0.4995050000000  0.4309280000000  0.5427610000000 1.0
C      1  0.4567120000000  0.4368420000000  0.5141990000000 1.0
C      1  0.5057260000000  0.5253630000000  0.4164230000000 1.0
C      1  0.4280020000000  0.4634540000000  0.4882340000000 1.0
C      1  0.4545180000000  0.4796420000000  0.4867770000000 1.0
C      1  0.5051710000000  0.4207840000000  0.4924500000000 1.0
C      1  0.4245970000000  0.5005140000000  0.5556180000000 1.0
END
