TITL C-100368-321-9 -103.911039263053 125000 -185.458187409435 0 0 28 (Cs) n - 1
REM
REM in /rds/project/t2_vol4/rds-t2-cs072/BORA/CARBON/from-Arr/AIRSS/Generating-Clusters/GAP-ML-2020/Higher-Symm/SD-CG/HFTN-CG
REM
REM
REM
REM
REM
REM ./C.cell (b20cbc046b6831c77cfcea5457e17084)
REM AIRSS Version 0.9.1 bugfix July 2018 build 013d7b7c2542+ Fri, 06 Jul 2018 19:26:36 +0100
REM compiler GCC version 9.3.0
REM options -cpp -mtune=generic -march=x86-64 -g -O0
REM seed -532094144 1574745828 -1509608203 1193211204 -146073391 -955553520 364139677 -2019005806 411426150 -1267025188 -117355230 324377473 1020289282 1955935655 1207391583 -977208855 985090355 1139181581 -1316129908 661196584 1166818511 -849051547 -706841995 593897008 907002304 -913751461 -1624987528 1743278860 -1902906861 -1182862525 433052787 -1048163460 653984976
REM
CELL 1.54180   50.00000   50.00000   50.00000   90.00000   90.00000   90.00000
LATT -1
SFAC C  
C      1  0.4488480000000  0.4775810000000  0.5030930000000 1.0
C      1  0.4775670000000  0.4854380000000  0.4572200000000 1.0
C      1  0.5319580000000  0.4847860000000  0.4652290000000 1.0
C      1  0.5365110000000  0.4828560000000  0.5291750000000 1.0
C      1  0.4838050000000  0.4827930000000  0.5448270000000 1.0
C      1  0.4598220000000  0.4987370000000  0.5456050000000 1.0
C      1  0.4383620000000  0.4965260000000  0.4836390000000 1.0
C      1  0.4926520000000  0.5089400000000  0.4482980000000 1.0
C      1  0.5501550000000  0.4994240000000  0.4824560000000 1.0
C      1  0.5256710000000  0.5078220000000  0.5419900000000 1.0
C      1  0.5001000000000  0.5057830000000  0.5529180000000 1.0
C      1  0.4413020000000  0.4952790000000  0.5249370000000 1.0
C      1  0.4537850000000  0.5012970000000  0.4608030000000 1.0
C      1  0.5195200000000  0.5104290000000  0.4555990000000 1.0
C      1  0.5521480000000  0.4985790000000  0.5104560000000 1.0
C      1  0.4268680000000  0.5125020000000  0.5057120000000 1.0
C      1  0.4675680000000  0.5240050000000  0.4478480000000 1.0
C      1  0.5376350000000  0.5250970000000  0.4743770000000 1.0
C      1  0.5410080000000  0.5236670000000  0.5217520000000 1.0
C      1  0.4753970000000  0.5206860000000  0.5578170000000 1.0
C      1  0.5160760000000  0.4632770000000  0.4753840000000 1.0
C      1  0.5192600000000  0.4619280000000  0.5200980000000 1.0
C      1  0.4905830000000  0.4648190000000  0.5248600000000 1.0
C      1  0.4731050000000  0.4638640000000  0.5009520000000 1.0
C      1  0.4870270000000  0.4663260000000  0.4749110000000 1.0
C      1  0.5268300000000  0.5667820000000  0.5002340000000 1.0
C      1  0.5265460000000  0.4491270000000  0.4967020000000 1.0
C      1  0.5349770000000  0.5411640000000  0.4988800000000 1.0
END
