TITL C-100763-6375-8 12.8048353237272 125000 -301.971857075621 0 0 48 (C3) n - 1
REM
REM in /rds/project/t2_vol4/rds-t2-cs072/BORA/CARBON/from-Arr/AIRSS/Generating-Clusters/GAP-ML-2020/Higher-Symm/SD-CG/HFTN-CG
REM
REM
REM
REM
REM
REM ./C.cell (b20cbc046b6831c77cfcea5457e17084)
REM AIRSS Version 0.9.1 bugfix July 2018 build 013d7b7c2542+ Fri, 06 Jul 2018 19:26:36 +0100
REM compiler GCC version 9.3.0
REM options -cpp -mtune=generic -march=x86-64 -g -O0
REM seed -1902973847 -1726484287 -1170586879 -1120257035 680010470 -1933670995 1937254043 1389263957 1919223139 934122445 19697449 1409568440 -1803458749 1436239863 112522418 -953671253 793455458 -385751374 -673903359 1743630793 -1436147348 1469874085 1935928444 1090919292 -899449858 -1230531097 1981142556 -934910795 -2147066960 1669747558 1030505951 -1078428871 1606305150
REM
CELL 1.54180   50.00000   50.00000   50.00000   90.00000   90.00000   90.00000
LATT -1
SFAC C  
C      1  0.5373160000000  0.5566760000000  0.5065420000000 1.0
C      1  0.5373160000000  0.4659970000000  0.5458110000000 1.0
C      1  0.5373170000000  0.4773280000000  0.4476470000000 1.0
C      1  0.4656170000000  0.4822730000000  0.4427030000000 1.0
C      1  0.4656170000000  0.5584840000000  0.5132970000000 1.0
C      1  0.4656170000000  0.4592430000000  0.5440000000000 1.0
C      1  0.4791860000000  0.4983300000000  0.4823240000000 1.0
C      1  0.4791860000000  0.5161420000000  0.5073920000000 1.0
C      1  0.4791860000000  0.4855270000000  0.5102840000000 1.0
C      1  0.5075250000000  0.4428460000000  0.5088030000000 1.0
C      1  0.5075240000000  0.5209530000000  0.4461010000000 1.0
C      1  0.5075240000000  0.5362010000000  0.5450950000000 1.0
C      1  0.4937070000000  0.4539670000000  0.4711660000000 1.0
C      1  0.4937060000000  0.5479870000000  0.4745510000000 1.0
C      1  0.4937060000000  0.4980460000000  0.5542830000000 1.0
C      1  0.4599920000000  0.4645580000000  0.5156000000000 1.0
C      1  0.4599920000000  0.5042100000000  0.4615060000000 1.0
C      1  0.4599920000000  0.5312310000000  0.5228930000000 1.0
C      1  0.5117250000000  0.4911310000000  0.4443390000000 1.0
C      1  0.5117240000000  0.5526390000000  0.5201500000000 1.0
C      1  0.5117240000000  0.4562300000000  0.5355120000000 1.0
C      1  0.5009740000000  0.4849060000000  0.5276280000000 1.0
C      1  0.5009740000000  0.4836200000000  0.4731140000000 1.0
C      1  0.5009740000000  0.5314740000000  0.4992580000000 1.0
C      1  0.5208190000000  0.4464640000000  0.4826550000000 1.0
C      1  0.5208190000000  0.5417900000000  0.4623090000000 1.0
C      1  0.5208180000000  0.5117460000000  0.5550360000000 1.0
C      1  0.5646240000000  0.5148550000000  0.4931510000000 1.0
C      1  0.5646240000000  0.4985050000000  0.5162890000000 1.0
C      1  0.5646240000000  0.4866410000000  0.4905610000000 1.0
C      1  0.4812280000000  0.5277040000000  0.4554030000000 1.0
C      1  0.4812280000000  0.5247700000000  0.5462910000000 1.0
C      1  0.4812280000000  0.4475250000000  0.4983060000000 1.0
C      1  0.4795310000000  0.5689990000000  0.4894980000000 1.0
C      1  0.4795320000000  0.4745950000000  0.5650060000000 1.0
C      1  0.4795320000000  0.4564060000000  0.4454950000000 1.0
C      1  0.5245910000000  0.5160550000000  0.4945030000000 1.0
C      1  0.5245910000000  0.4967340000000  0.5166530000000 1.0
C      1  0.5245910000000  0.4872120000000  0.4888450000000 1.0
C      1  0.4892240000000  0.4789570000000  0.4305590000000 1.0
C      1  0.4892230000000  0.5706590000000  0.5164970000000 1.0
C      1  0.4892230000000  0.4503830000000  0.5529440000000 1.0
C      1  0.4392180000000  0.5015250000000  0.4837570000000 1.0
C      1  0.4392170000000  0.5133030000000  0.5094420000000 1.0
C      1  0.4392180000000  0.4851710000000  0.5068000000000 1.0
C      1  0.5447250000000  0.4923700000000  0.5383310000000 1.0
C      1  0.5447250000000  0.4706200000000  0.4742270000000 1.0
C      1  0.5447250000000  0.5370110000000  0.4874430000000 1.0
END
