TITL C-100372-6557-1 621.647390399923 125000 -861.365118169323 0 0 123 (C1) n - 1
REM
REM in /rds/project/t2_vol4/rds-t2-cs072/BORA/CARBON/from-Arr/AIRSS/Generating-Clusters/GAP-ML-2020/Higher-Symm/SD-CG/HFTN-CG
REM
REM
REM
REM
REM
REM ./C.cell (b20cbc046b6831c77cfcea5457e17084)
REM AIRSS Version 0.9.1 bugfix July 2018 build 013d7b7c2542+ Fri, 06 Jul 2018 19:26:36 +0100
REM compiler GCC version 9.3.0
REM options -cpp -mtune=generic -march=x86-64 -g -O0
REM seed -2005916054 1450865123 737281594 -953927096 2000333415 -279357592 1793817429 228813454 -647613031 -352112400 -1708130181 -1936239969 1781560799 1385775237 8112439 -1839986194 -1164990586 147767983 10855182 1289998705 -583585055 1659254680 1121155696 1923359191 658557966 896888464 1735792824 -335022279 -277011696 -851018996 -20646365 1076457211 -241322158
REM
CELL 1.54180   50.00000   50.00000   50.00000   90.00000   90.00000   90.00000
LATT -1
SFAC C  
C      1  0.5541630000000  0.5424590000000  0.4697260000000 1.0
C      1  0.4468700000000  0.5420360000000  0.4682620000000 1.0
C      1  0.4989320000000  0.5433300000000  0.5625900000000 1.0
C      1  0.5367930000000  0.4972950000000  0.4153020000000 1.0
C      1  0.4077490000000  0.4983230000000  0.5105600000000 1.0
C      1  0.5546840000000  0.4979610000000  0.5741040000000 1.0
C      1  0.5716620000000  0.5373440000000  0.5345400000000 1.0
C      1  0.4937780000000  0.5373160000000  0.4200690000000 1.0
C      1  0.4338960000000  0.5380960000000  0.5457010000000 1.0
C      1  0.4876440000000  0.4847570000000  0.5992420000000 1.0
C      1  0.5925280000000  0.4853010000000  0.4611720000000 1.0
C      1  0.4199700000000  0.4849130000000  0.4396570000000 1.0
C      1  0.5394890000000  0.4163260000000  0.5197900000000 1.0
C      1  0.5008850000000  0.4285710000000  0.4667540000000 1.0
C      1  0.4680910000000  0.4336390000000  0.5182520000000 1.0
C      1  0.5425310000000  0.5244520000000  0.5330950000000 1.0
C      1  0.5068120000000  0.5242450000000  0.4464110000000 1.0
C      1  0.4497910000000  0.5248650000000  0.5208960000000 1.0
C      1  0.4618570000000  0.4923150000000  0.5901540000000 1.0
C      1  0.5965480000000  0.4922810000000  0.4883430000000 1.0
C      1  0.4416640000000  0.4917590000000  0.4225950000000 1.0
C      1  0.5107620000000  0.5010930000000  0.5941370000000 1.0
C      1  0.5750890000000  0.4997830000000  0.4437520000000 1.0
C      1  0.4135860000000  0.4995400000000  0.4635160000000 1.0
C      1  0.5356600000000  0.4815560000000  0.4571680000000 1.0
C      1  0.4455820000000  0.4810800000000  0.4917170000000 1.0
C      1  0.5190930000000  0.4801290000000  0.5540040000000 1.0
C      1  0.5317300000000  0.4846620000000  0.5056430000000 1.0
C      1  0.4883800000000  0.4840010000000  0.4682220000000 1.0
C      1  0.4779530000000  0.4858810000000  0.5273560000000 1.0
C      1  0.4740030000000  0.5408800000000  0.5152140000000 1.0
C      1  0.5259020000000  0.5413770000000  0.5151320000000 1.0
C      1  0.4997210000000  0.5410100000000  0.4697690000000 1.0
C      1  0.4583670000000  0.4225830000000  0.4917130000000 1.0
C      1  0.5133450000000  0.4156610000000  0.5337740000000 1.0
C      1  0.5299640000000  0.4189350000000  0.4710840000000 1.0
C      1  0.5538210000000  0.4830080000000  0.4326670000000 1.0
C      1  0.4137480000000  0.4830870000000  0.4875690000000 1.0
C      1  0.5306680000000  0.4850560000000  0.5807340000000 1.0
C      1  0.5439330000000  0.5683820000000  0.5156900000000 1.0
C      1  0.4914860000000  0.5680780000000  0.4538330000000 1.0
C      1  0.4642280000000  0.5686730000000  0.5304520000000 1.0
C      1  0.4126730000000  0.5257190000000  0.5013640000000 1.0
C      1  0.5442000000000  0.5256100000000  0.5746650000000 1.0
C      1  0.5423880000000  0.5250830000000  0.4238980000000 1.0
C      1  0.5505220000000  0.4353180000000  0.4605840000000 1.0
C      1  0.4393530000000  0.4360560000000  0.4767630000000 1.0
C      1  0.5087860000000  0.4324350000000  0.5576410000000 1.0
C      1  0.5396780000000  0.4552860000000  0.4423060000000 1.0
C      1  0.4276180000000  0.4568080000000  0.4948350000000 1.0
C      1  0.5290780000000  0.4527870000000  0.5594300000000 1.0
C      1  0.5149300000000  0.4533760000000  0.4272780000000 1.0
C      1  0.4265860000000  0.4551910000000  0.5241020000000 1.0
C      1  0.5555150000000  0.4527760000000  0.5480330000000 1.0
C      1  0.5889630000000  0.5159990000000  0.5263530000000 1.0
C      1  0.4780780000000  0.5157130000000  0.4093770000000 1.0
C      1  0.4326100000000  0.5167290000000  0.5649700000000 1.0
C      1  0.5918020000000  0.5186820000000  0.4984050000000 1.0
C      1  0.4525640000000  0.5182620000000  0.4212340000000 1.0
C      1  0.4556120000000  0.5190730000000  0.5810780000000 1.0
C      1  0.4756240000000  0.5330590000000  0.4851060000000 1.0
C      1  0.4992840000000  0.5344040000000  0.5293280000000 1.0
C      1  0.5247810000000  0.5339610000000  0.4863470000000 1.0
C      1  0.4625920000000  0.4723170000000  0.4165090000000 1.0
C      1  0.4456580000000  0.4732490000000  0.5753140000000 1.0
C      1  0.5916200000000  0.4727950000000  0.5094560000000 1.0
C      1  0.4877840000000  0.5066070000000  0.4879580000000 1.0
C      1  0.4957580000000  0.5080330000000  0.5187180000000 1.0
C      1  0.5162770000000  0.5078830000000  0.4955080000000 1.0
C      1  0.5917320000000  0.4578010000000  0.4594870000000 1.0
C      1  0.4195370000000  0.4573640000000  0.4409410000000 1.0
C      1  0.4907830000000  0.4579500000000  0.5936850000000 1.0
C      1  0.5365320000000  0.5678810000000  0.5450160000000 1.0
C      1  0.5206420000000  0.5674040000000  0.4455600000000 1.0
C      1  0.4425880000000  0.5677710000000  0.5092380000000 1.0
C      1  0.4992370000000  0.4581870000000  0.4801870000000 1.0
C      1  0.4856720000000  0.4600510000000  0.5149900000000 1.0
C      1  0.5122270000000  0.4612820000000  0.5045920000000 1.0
C      1  0.5870100000000  0.4883250000000  0.5329640000000 1.0
C      1  0.4847800000000  0.4879970000000  0.4076400000000 1.0
C      1  0.4271090000000  0.4892070000000  0.5602150000000 1.0
C      1  0.4538640000000  0.5562230000000  0.5540710000000 1.0
C      1  0.5694260000000  0.5556630000000  0.5130180000000 1.0
C      1  0.4763380000000  0.5556240000000  0.4329260000000 1.0
C      1  0.4416570000000  0.4428010000000  0.4482980000000 1.0
C      1  0.4844540000000  0.4418260000000  0.5725860000000 1.0
C      1  0.5745900000000  0.4433850000000  0.4752720000000 1.0
C      1  0.4872390000000  0.6021630000000  0.4892560000000 1.0
C      1  0.4971090000000  0.6023970000000  0.5159300000000 1.0
C      1  0.5152870000000  0.6022130000000  0.4939860000000 1.0
C      1  0.4928240000000  0.4384700000000  0.4378260000000 1.0
C      1  0.4468600000000  0.4410030000000  0.5383420000000 1.0
C      1  0.5609290000000  0.4365950000000  0.5252930000000 1.0
C      1  0.5090230000000  0.5706890000000  0.5528090000000 1.0
C      1  0.5409960000000  0.5699630000000  0.4656360000000 1.0
C      1  0.4499350000000  0.5696920000000  0.4815480000000 1.0
C      1  0.4267610000000  0.5446420000000  0.5174840000000 1.0
C      1  0.5513480000000  0.5447080000000  0.5548130000000 1.0
C      1  0.5215420000000  0.5441590000000  0.4278460000000 1.0
C      1  0.4233240000000  0.4835010000000  0.5319570000000 1.0
C      1  0.5642250000000  0.4816820000000  0.5493650000000 1.0
C      1  0.5106600000000  0.4818550000000  0.4188790000000 1.0
C      1  0.4895620000000  0.5839830000000  0.5359960000000 1.0
C      1  0.5362710000000  0.5835770000000  0.4907150000000 1.0
C      1  0.4738480000000  0.5833670000000  0.4729020000000 1.0
C      1  0.5094510000000  0.4943090000000  0.4482360000000 1.0
C      1  0.4500420000000  0.4949880000000  0.5182030000000 1.0
C      1  0.5391370000000  0.4939570000000  0.5347360000000 1.0
C      1  0.4602730000000  0.4824270000000  0.4672090000000 1.0
C      1  0.4902910000000  0.4848630000000  0.5523550000000 1.0
C      1  0.5482680000000  0.4840990000000  0.4827990000000 1.0
C      1  0.4914290000000  0.4129740000000  0.5154780000000 1.0
C      1  0.5362630000000  0.4067020000000  0.4943510000000 1.0
C      1  0.4851270000000  0.4119990000000  0.4868320000000 1.0
C      1  0.4530740000000  0.5412610000000  0.4392160000000 1.0
C      1  0.4707510000000  0.5421620000000  0.5715780000000 1.0
C      1  0.5760140000000  0.5415720000000  0.4897150000000 1.0
C      1  0.4660190000000  0.4475020000000  0.4317080000000 1.0
C      1  0.4563280000000  0.4485750000000  0.5642870000000 1.0
C      1  0.5782230000000  0.4476900000000  0.5045540000000 1.0
C      1  0.5164280000000  0.5267540000000  0.5818680000000 1.0
C      1  0.5621110000000  0.5258210000000  0.4447790000000 1.0
C      1  0.4211570000000  0.5256940000000  0.4739060000000 1.0
END
