TITL C-109520-6404-2 -46.0502858816025 125000 -130.148444475335 0 0 21 (C1) n - 1
REM
REM in /rds/project/t2_vol4/rds-t2-cs072/BORA/CARBON/from-Arr/AIRSS/Generating-Clusters/GAP-ML-2020/Higher-Symm/SD-CG/HFTN-CG
REM
REM
REM
REM
REM
REM ./C.cell (b20cbc046b6831c77cfcea5457e17084)
REM AIRSS Version 0.9.1 bugfix July 2018 build 013d7b7c2542+ Fri, 06 Jul 2018 19:26:36 +0100
REM compiler GCC version 9.3.0
REM options -cpp -mtune=generic -march=x86-64 -g -O0
REM seed 1220255011 -1640343698 1644495444 -1550011709 -295160345 -1439293984 1764497180 -1491112857 -1955388710 -1649194515 -757740295 -26148456 -325314864 -822248291 1615211625 -67112675 -1417520159 1835823183 906875824 1745718202 1511654918 1237229281 433566344 2128854734 1329268777 -1740582023 1525177465 -1971825157 245226811 894800288 -207734938 -485249750 -1586497031
REM
CELL 1.54180   50.00000   50.00000   50.00000   90.00000   90.00000   90.00000
LATT -1
SFAC C  
C      1  0.5108760000000  0.5488620000000  0.5033850000000 1.0
C      1  0.5116280000000  0.4535120000000  0.4973840000000 1.0
C      1  0.4854750000000  0.5580130000000  0.4931860000000 1.0
C      1  0.4885510000000  0.4411500000000  0.5096440000000 1.0
C      1  0.4776080000000  0.4947390000000  0.4620290000000 1.0
C      1  0.4807420000000  0.5023150000000  0.5379970000000 1.0
C      1  0.4736790000000  0.4626950000000  0.5078700000000 1.0
C      1  0.4751320000000  0.5341130000000  0.4932850000000 1.0
C      1  0.5277990000000  0.4747420000000  0.5125960000000 1.0
C      1  0.5292050000000  0.5268710000000  0.4899150000000 1.0
C      1  0.5410730000000  0.4693160000000  0.5350770000000 1.0
C      1  0.5436670000000  0.5280340000000  0.4679340000000 1.0
C      1  0.4708350000000  0.4963270000000  0.5617950000000 1.0
C      1  0.4718890000000  0.5045660000000  0.4376260000000 1.0
C      1  0.5123060000000  0.4539350000000  0.4687210000000 1.0
C      1  0.5127140000000  0.5444300000000  0.5312680000000 1.0
C      1  0.4959890000000  0.4739470000000  0.4659360000000 1.0
C      1  0.5060330000000  0.5174560000000  0.5305490000000 1.0
C      1  0.4728390000000  0.4899150000000  0.5110710000000 1.0
C      1  0.4719210000000  0.5075230000000  0.4892850000000 1.0
C      1  0.5194180000000  0.5036420000000  0.5072600000000 1.0
END
