TITL C-100382-3719-2 -90.3159369197796 125000 -1190.69287845151 0 0 173 (C4) n - 1
REM
REM in /rds/project/t2_vol4/rds-t2-cs072/BORA/CARBON/from-Arr/AIRSS/Generating-Clusters/GAP-ML-2020/Higher-Symm/SD-CG/HFTN-CG
REM
REM
REM
REM
REM
REM ./C.cell (b20cbc046b6831c77cfcea5457e17084)
REM AIRSS Version 0.9.1 bugfix July 2018 build 013d7b7c2542+ Fri, 06 Jul 2018 19:26:36 +0100
REM compiler GCC version 9.3.0
REM options -cpp -mtune=generic -march=x86-64 -g -O0
REM seed -479462161 672251513 229325976 1285778398 -1936175084 -117004434 -452837577 -806629696 -1479495929 -76442419 345773930 -1419540142 1626292540 1449771182 -336869167 -160750884 -1906083725 -431479625 1301409450 -1126204779 1620691960 55754418 1420170876 711295575 13860308 -1063219924 -565823587 1150285350 1737233940 1196550445 38578213 -1041229128 -1160043876
REM
CELL 1.54180   50.00000   50.00000   50.00000   90.00000   90.00000   90.00000
LATT -1
SFAC C  
C      1  0.6070700000000  0.5452810000000  0.5169140000000 1.0
C      1  0.5165390000000  0.5452810000000  0.3928400000000 1.0
C      1  0.3924650000000  0.5452780000000  0.4833710000000 1.0
C      1  0.4829960000000  0.5452780000000  0.6074440000000 1.0
C      1  0.4012480000000  0.5587100000000  0.5050010000000 1.0
C      1  0.5046260000000  0.5587100000000  0.5986620000000 1.0
C      1  0.5982870000000  0.5587120000000  0.4952830000000 1.0
C      1  0.4949080000000  0.5587120000000  0.4016230000000 1.0
C      1  0.5936640000000  0.5268240000000  0.5352290000000 1.0
C      1  0.5348550000000  0.5268240000000  0.4062460000000 1.0
C      1  0.4058710000000  0.5268220000000  0.4650550000000 1.0
C      1  0.4646810000000  0.5268220000000  0.5940390000000 1.0
C      1  0.4665630000000  0.5061690000000  0.5053570000000 1.0
C      1  0.5049830000000  0.5061690000000  0.5333470000000 1.0
C      1  0.5329730000000  0.5061700000000  0.4949270000000 1.0
C      1  0.4945530000000  0.5061690000000  0.4669370000000 1.0
C      1  0.5060570000000  0.4831970000000  0.6071030000000 1.0
C      1  0.6067300000000  0.4831990000000  0.4938530000000 1.0
C      1  0.4934800000000  0.4831980000000  0.3931810000000 1.0
C      1  0.3928070000000  0.4831960000000  0.5064300000000 1.0
C      1  0.5557300000000  0.4224950000000  0.5490190000000 1.0
C      1  0.5486460000000  0.4224950000000  0.4441810000000 1.0
C      1  0.4438080000000  0.4224940000000  0.4512640000000 1.0
C      1  0.4508920000000  0.4224930000000  0.5561020000000 1.0
C      1  0.4220510000000  0.5688570000000  0.5470050000000 1.0
C      1  0.5466290000000  0.5688580000000  0.5778580000000 1.0
C      1  0.5774830000000  0.5688600000000  0.4532800000000 1.0
C      1  0.4529050000000  0.5688590000000  0.4224270000000 1.0
C      1  0.5797580000000  0.4365970000000  0.5350490000000 1.0
C      1  0.5346770000000  0.4365970000000  0.4201520000000 1.0
C      1  0.4197800000000  0.4365950000000  0.4652340000000 1.0
C      1  0.4648610000000  0.4365950000000  0.5801310000000 1.0
C      1  0.4762250000000  0.4616820000000  0.4705840000000 1.0
C      1  0.4702110000000  0.4616810000000  0.5236850000000 1.0
C      1  0.5233120000000  0.4616820000000  0.5296990000000 1.0
C      1  0.5293260000000  0.4616820000000  0.4765980000000 1.0
C      1  0.4718350000000  0.4873260000000  0.4347230000000 1.0
C      1  0.4343490000000  0.4873240000000  0.5280750000000 1.0
C      1  0.5277010000000  0.4873250000000  0.5655610000000 1.0
C      1  0.5651870000000  0.4873270000000  0.4722090000000 1.0
C      1  0.5176520000000  0.4828700000000  0.4912240000000 1.0
C      1  0.4908500000000  0.4828700000000  0.4822580000000 1.0
C      1  0.4818850000000  0.4828700000000  0.5090600000000 1.0
C      1  0.5086860000000  0.4828700000000  0.5180250000000 1.0
C      1  0.5563660000000  0.4649090000000  0.4906360000000 1.0
C      1  0.4902630000000  0.4649080000000  0.4435440000000 1.0
C      1  0.4431710000000  0.4649070000000  0.5096470000000 1.0
C      1  0.5092740000000  0.4649070000000  0.5567390000000 1.0
C      1  0.5698780000000  0.4685950000000  0.4473290000000 1.0
C      1  0.4469550000000  0.4685940000000  0.4300320000000 1.0
C      1  0.4296590000000  0.4685930000000  0.5529550000000 1.0
C      1  0.5525810000000  0.4685940000000  0.5702510000000 1.0
C      1  0.4808670000000  0.5027090000000  0.5505770000000 1.0
C      1  0.5502030000000  0.5027100000000  0.5190430000000 1.0
C      1  0.5186690000000  0.5027100000000  0.4497070000000 1.0
C      1  0.4493330000000  0.5027090000000  0.4812410000000 1.0
C      1  0.5692860000000  0.4387710000000  0.4561970000000 1.0
C      1  0.4558240000000  0.4387700000000  0.4306240000000 1.0
C      1  0.4302510000000  0.4387690000000  0.5440860000000 1.0
C      1  0.5437140000000  0.4387700000000  0.5696590000000 1.0
C      1  0.5144730000000  0.4374760000000  0.4852110000000 1.0
C      1  0.4848390000000  0.4374750000000  0.4854370000000 1.0
C      1  0.4850640000000  0.4374750000000  0.5150720000000 1.0
C      1  0.5146990000000  0.4374760000000  0.5148460000000 1.0
C      1  0.5467260000000  0.4099060000000  0.5231280000000 1.0
C      1  0.5227560000000  0.4099060000000  0.4531850000000 1.0
C      1  0.4528130000000  0.4099050000000  0.4771550000000 1.0
C      1  0.4767830000000  0.4099050000000  0.5470980000000 1.0
C      1  0.4268040000000  0.5204440000000  0.4893670000000 1.0
C      1  0.4889920000000  0.5204440000000  0.5731060000000 1.0
C      1  0.5727320000000  0.5204450000000  0.5109180000000 1.0
C      1  0.5105430000000  0.5204450000000  0.4271780000000 1.0
C      1  0.5438850000000  0.4646350000000  0.4292780000000 1.0
C      1  0.4289050000000  0.4646330000000  0.4560250000000 1.0
C      1  0.4556520000000  0.4646320000000  0.5710060000000 1.0
C      1  0.5706320000000  0.4646340000000  0.5442590000000 1.0
C      1  0.5905540000000  0.4834120000000  0.5582400000000 1.0
C      1  0.5578670000000  0.4834130000000  0.4093560000000 1.0
C      1  0.4089820000000  0.4834110000000  0.4420430000000 1.0
C      1  0.4416700000000  0.4834100000000  0.5909280000000 1.0
C      1  0.4265180000000  0.4894580000000  0.4207330000000 1.0
C      1  0.4203590000000  0.4894570000000  0.5733920000000 1.0
C      1  0.5730190000000  0.4894590000000  0.5795510000000 1.0
C      1  0.5791780000000  0.4894600000000  0.4268910000000 1.0
C      1  0.5655330000000  0.5166490000000  0.5819340000000 1.0
C      1  0.5815600000000  0.5166510000000  0.4343770000000 1.0
C      1  0.4340030000000  0.5166490000000  0.4183500000000 1.0
C      1  0.4179760000000  0.5166480000000  0.5659070000000 1.0
C      1  0.4786200000000  0.4520780000000  0.6048760000000 1.0
C      1  0.6045040000000  0.4520800000000  0.5212900000000 1.0
C      1  0.5209170000000  0.4520800000000  0.3954070000000 1.0
C      1  0.3950340000000  0.4520780000000  0.4789930000000 1.0
C      1  0.5158520000000  0.5046690000000  0.5879120000000 1.0
C      1  0.5875380000000  0.5046700000000  0.4840580000000 1.0
C      1  0.4836840000000  0.5046700000000  0.4123720000000 1.0
C      1  0.4119980000000  0.5046680000000  0.5162260000000 1.0
C      1  0.4472820000000  0.4729320000000  0.4792710000000 1.0
C      1  0.4788980000000  0.4729320000000  0.5526280000000 1.0
C      1  0.5522550000000  0.4729330000000  0.5210130000000 1.0
C      1  0.5206390000000  0.4729330000000  0.4476560000000 1.0
C      1  0.5066730000000  0.4537950000000  0.6013900000000 1.0
C      1  0.6010170000000  0.4537970000000  0.4932370000000 1.0
C      1  0.4928640000000  0.4537970000000  0.3988930000000 1.0
C      1  0.3985200000000  0.4537950000000  0.5070460000000 1.0
C      1  0.4691470000000  0.5543090000000  0.4796260000000 1.0
C      1  0.4792510000000  0.5543090000000  0.5307630000000 1.0
C      1  0.5303880000000  0.5543090000000  0.5206590000000 1.0
C      1  0.5202840000000  0.5543100000000  0.4695220000000 1.0
C      1  0.5715270000000  0.5696780000000  0.4967630000000 1.0
C      1  0.4963880000000  0.5696780000000  0.4283820000000 1.0
C      1  0.4280070000000  0.5696760000000  0.5035220000000 1.0
C      1  0.5031470000000  0.5696770000000  0.5719030000000 1.0
C      1  0.4580860000000  0.4997770000000  0.6064290000000 1.0
C      1  0.6060550000000  0.4997790000000  0.5418240000000 1.0
C      1  0.5414510000000  0.4997800000000  0.3938550000000 1.0
C      1  0.3934810000000  0.4997770000000  0.4584590000000 1.0
C      1  0.5797540000000  0.5356720000000  0.5633090000000 1.0
C      1  0.5629340000000  0.5356730000000  0.4201550000000 1.0
C      1  0.4197810000000  0.5356710000000  0.4369760000000 1.0
C      1  0.4366010000000  0.5356700000000  0.5801290000000 1.0
C      1  0.5158820000000  0.5988570000000  0.4870790000000 1.0
C      1  0.4867030000000  0.5988560000000  0.4840280000000 1.0
C      1  0.4836520000000  0.5988560000000  0.5132070000000 1.0
C      1  0.5128310000000  0.5988560000000  0.5162570000000 1.0
C      1  0.5223050000000  0.5362360000000  0.5425240000000 1.0
C      1  0.5421490000000  0.5362370000000  0.4776050000000 1.0
C      1  0.4772300000000  0.5362360000000  0.4577610000000 1.0
C      1  0.4573860000000  0.5362350000000  0.5226800000000 1.0
C      1  0.4668880000000  0.5825640000000  0.5288500000000 1.0
C      1  0.5284750000000  0.5825650000000  0.5330220000000 1.0
C      1  0.5326460000000  0.5825650000000  0.4714350000000 1.0
C      1  0.4710600000000  0.5825650000000  0.4672640000000 1.0
C      1  0.4239310000000  0.4407410000000  0.5146650000000 1.0
C      1  0.5142920000000  0.4407410000000  0.5759790000000 1.0
C      1  0.5756060000000  0.4407430000000  0.4856180000000 1.0
C      1  0.4852460000000  0.4407420000000  0.4243040000000 1.0
C      1  0.5269790000000  0.5814010000000  0.5617700000000 1.0
C      1  0.5613940000000  0.5814020000000  0.4729310000000 1.0
C      1  0.4725560000000  0.5814010000000  0.4385150000000 1.0
C      1  0.4381400000000  0.5814000000000  0.5273540000000 1.0
C      1  0.4779760000000  0.4809450000000  0.6129590000000 1.0
C      1  0.6125860000000  0.4809470000000  0.5219340000000 1.0
C      1  0.5215610000000  0.4809470000000  0.3873240000000 1.0
C      1  0.3869510000000  0.4809450000000  0.4783490000000 1.0
C      1  0.4679090000000  0.5092740000000  0.4575370000000 1.0
C      1  0.4571630000000  0.5092730000000  0.5320010000000 1.0
C      1  0.5316270000000  0.5092740000000  0.5427470000000 1.0
C      1  0.5423730000000  0.5092750000000  0.4682830000000 1.0
C      1  0.5934440000000  0.5234630000000  0.4602430000000 1.0
C      1  0.4598690000000  0.5234620000000  0.4064660000000 1.0
C      1  0.4060910000000  0.5234600000000  0.5400410000000 1.0
C      1  0.5396670000000  0.5234610000000  0.5938190000000 1.0
C      1  0.4880070000000  0.4077050000000  0.5187800000000 1.0
C      1  0.5184080000000  0.4077060000000  0.5119030000000 1.0
C      1  0.5115310000000  0.4077060000000  0.4815020000000 1.0
C      1  0.4811300000000  0.4077050000000  0.4883790000000 1.0
C      1  0.4301740000000  0.4231760000000  0.4900600000000 1.0
C      1  0.4896880000000  0.4231760000000  0.5697360000000 1.0
C      1  0.5693640000000  0.4231770000000  0.5102230000000 1.0
C      1  0.5098500000000  0.4231770000000  0.4305470000000 1.0
C      1  0.4308280000000  0.5604940000000  0.5712720000000 1.0
C      1  0.5708970000000  0.5604960000000  0.5690820000000 1.0
C      1  0.5687070000000  0.5604970000000  0.4290130000000 1.0
C      1  0.4286380000000  0.5604950000000  0.4312030000000 1.0
C      1  0.4036010000000  0.5505020000000  0.5329370000000 1.0
C      1  0.5325620000000  0.5505030000000  0.5963080000000 1.0
C      1  0.5959330000000  0.5505050000000  0.4673480000000 1.0
C      1  0.4669730000000  0.5505030000000  0.4039760000000 1.0
C      1  0.4967820000000  0.5455470000000  0.5552850000000 1.0
C      1  0.5549100000000  0.5455480000000  0.5031280000000 1.0
C      1  0.5027530000000  0.5455480000000  0.4450000000000 1.0
C      1  0.4446250000000  0.5455460000000  0.4971560000000 1.0
C      1  0.4997670000000  0.5549630000000  0.5001420000000 1.0
END
