TITL C-103919-4984-4 -95.2505650537539 125000 -1116.7029327641 0 0 165 (C5) n - 1
REM
REM in /rds/project/t2_vol4/rds-t2-cs072/BORA/CARBON/from-Arr/AIRSS/Generating-Clusters/GAP-ML-2020/Higher-Symm/SD-CG/HFTN-CG/C160-200
REM
REM
REM
REM
REM
REM ./C.cell (6b4489405718ea1b717e0baf1da4c2d9)
REM AIRSS Version 0.9.1 bugfix July 2018 build 013d7b7c2542+ Fri, 06 Jul 2018 19:26:36 +0100
REM compiler GCC version 9.3.0
REM options -cpp -mtune=generic -march=x86-64 -g -O0
REM seed 1245116942 -939827000 -1719739126 -194961758 -282744174 1205346756 -100104899 1890924960 -669159819 -1569776236 1917156187 1699128278 -1533945626 -1026732296 -1135267234 1620739584 -874444163 -2103446005 736779203 -615408330 2029583711 -154956235 1729672056 -1278566274 -534465401 195637063 167781039 920734216 -1313707411 1368293906 1577966084 1055569770 596731903
REM
CELL 1.54180   50.00000   50.00000   50.00000   90.00000   90.00000   90.00000
LATT -1
SFAC C  
C      1  0.5422340000000  0.5459140000000  0.5707170000000 1.0
C      1  0.5803080000000  0.5459160000000  0.4816900000000 1.0
C      1  0.5074030000000  0.5459250000000  0.4179700000000 1.0
C      1  0.4242730000000  0.5459280000000  0.4676150000000 1.0
C      1  0.4458000000000  0.5459220000000  0.5620190000000 1.0
C      1  0.5432960000000  0.4515220000000  0.4295870000000 1.0
C      1  0.5803410000000  0.4515150000000  0.5194200000000 1.0
C      1  0.5063520000000  0.4515170000000  0.5824110000000 1.0
C      1  0.4235800000000  0.4515260000000  0.5315100000000 1.0
C      1  0.4464130000000  0.4515290000000  0.4370590000000 1.0
C      1  0.5510920000000  0.5065630000000  0.5522830000000 1.0
C      1  0.5655120000000  0.5065660000000  0.4675660000000 1.0
C      1  0.4893980000000  0.5065740000000  0.4276720000000 1.0
C      1  0.4279360000000  0.5065750000000  0.4877340000000 1.0
C      1  0.4660650000000  0.5065680000000  0.5647470000000 1.0
C      1  0.5521540000000  0.4917770000000  0.4471060000000 1.0
C      1  0.5664210000000  0.4917710000000  0.5332570000000 1.0
C      1  0.4888950000000  0.4917750000000  0.5734470000000 1.0
C      1  0.4267150000000  0.4917830000000  0.5121360000000 1.0
C      1  0.4658110000000  0.4917840000000  0.4340530000000 1.0
C      1  0.4878740000000  0.5813230000000  0.4544800000000 1.0
C      1  0.4529610000000  0.5813230000000  0.4974750000000 1.0
C      1  0.4830630000000  0.5813180000000  0.5439650000000 1.0
C      1  0.5365800000000  0.5813150000000  0.5297030000000 1.0
C      1  0.5395530000000  0.5813180000000  0.4743980000000 1.0
C      1  0.4879160000000  0.4197190000000  0.5444940000000 1.0
C      1  0.4539420000000  0.4197240000000  0.5022600000000 1.0
C      1  0.4836100000000  0.4197240000000  0.4568970000000 1.0
C      1  0.5359210000000  0.4197190000000  0.4710960000000 1.0
C      1  0.5385820000000  0.4197160000000  0.5252330000000 1.0
C      1  0.5204650000000  0.3997130000000  0.5130790000000 1.0
C      1  0.5187630000000  0.3997140000000  0.4845670000000 1.0
C      1  0.4911210000000  0.3997170000000  0.4773760000000 1.0
C      1  0.4757390000000  0.3997170000000  0.5014430000000 1.0
C      1  0.4938750000000  0.3997140000000  0.5235090000000 1.0
C      1  0.5207900000000  0.6013230000000  0.4867280000000 1.0
C      1  0.5190570000000  0.6013220000000  0.5156670000000 1.0
C      1  0.4909990000000  0.6013230000000  0.5229620000000 1.0
C      1  0.4753900000000  0.6013260000000  0.4985310000000 1.0
C      1  0.4938020000000  0.6013260000000  0.4761370000000 1.0
C      1  0.5657160000000  0.4782830000000  0.5857860000000 1.0
C      1  0.6018940000000  0.4782860000000  0.4640070000000 1.0
C      1  0.4972560000000  0.4782980000000  0.3919680000000 1.0
C      1  0.3964080000000  0.4783010000000  0.4692240000000 1.0
C      1  0.4387180000000  0.4782920000000  0.5890100000000 1.0
C      1  0.5633430000000  0.5201250000000  0.4147270000000 1.0
C      1  0.6006760000000  0.5201160000000  0.5338910000000 1.0
C      1  0.4988800000000  0.5201200000000  0.6062210000000 1.0
C      1  0.3986340000000  0.5201310000000  0.5317580000000 1.0
C      1  0.4384740000000  0.5201340000000  0.4134080000000 1.0
C      1  0.5732010000000  0.4505400000000  0.4706790000000 1.0
C      1  0.4947340000000  0.4505480000000  0.4213160000000 1.0
C      1  0.4235400000000  0.4505500000000  0.4806880000000 1.0
C      1  0.4580050000000  0.4505430000000  0.5667450000000 1.0
C      1  0.5505010000000  0.4505370000000  0.5605590000000 1.0
C      1  0.5714790000000  0.5467810000000  0.5297720000000 1.0
C      1  0.4937790000000  0.5467840000000  0.5771790000000 1.0
C      1  0.4246800000000  0.5467930000000  0.5179310000000 1.0
C      1  0.4596760000000  0.5467940000000  0.4339060000000 1.0
C      1  0.5504030000000  0.5467870000000  0.4412240000000 1.0
C      1  0.5655820000000  0.5718690000000  0.4893280000000 1.0
C      1  0.5101160000000  0.5718760000000  0.4343380000000 1.0
C      1  0.4406780000000  0.5718790000000  0.4700960000000 1.0
C      1  0.4532280000000  0.5718750000000  0.5471860000000 1.0
C      1  0.5304230000000  0.5718680000000  0.5590720000000 1.0
C      1  0.5653800000000  0.4266560000000  0.5112040000000 1.0
C      1  0.5095410000000  0.4266580000000  0.5656450000000 1.0
C      1  0.4405090000000  0.4266650000000  0.5293620000000 1.0
C      1  0.4536840000000  0.4266680000000  0.4524970000000 1.0
C      1  0.5308590000000  0.4266620000000  0.4412740000000 1.0
C      1  0.4393380000000  0.5722700000000  0.5228730000000 1.0
C      1  0.5030080000000  0.5722630000000  0.5647690000000 1.0
C      1  0.5625290000000  0.5722610000000  0.5171610000000 1.0
C      1  0.5356440000000  0.5722670000000  0.4458420000000 1.0
C      1  0.4595080000000  0.5722720000000  0.4493730000000 1.0
C      1  0.4392820000000  0.4260050000000  0.4768840000000 1.0
C      1  0.5032140000000  0.4260020000000  0.4351130000000 1.0
C      1  0.5626970000000  0.4259950000000  0.4830080000000 1.0
C      1  0.5355270000000  0.4259940000000  0.5543800000000 1.0
C      1  0.4592530000000  0.4259990000000  0.5505960000000 1.0
C      1  0.4915370000000  0.4443810000000  0.4766020000000 1.0
C      1  0.4751320000000  0.4443810000000  0.5008120000000 1.0
C      1  0.4930880000000  0.4443780000000  0.5238960000000 1.0
C      1  0.5205900000000  0.4443770000000  0.5139520000000 1.0
C      1  0.5196320000000  0.4443780000000  0.4847230000000 1.0
C      1  0.4914480000000  0.5607760000000  0.5235930000000 1.0
C      1  0.4749250000000  0.5607780000000  0.4991550000000 1.0
C      1  0.4930610000000  0.5607780000000  0.4758890000000 1.0
C      1  0.5207930000000  0.5607750000000  0.4859470000000 1.0
C      1  0.5197960000000  0.5607740000000  0.5154300000000 1.0
C      1  0.4574090000000  0.4578960000000  0.5960940000000 1.0
C      1  0.5782300000000  0.4578890000000  0.5701960000000 1.0
C      1  0.5909350000000  0.4578940000000  0.4472870000000 1.0
C      1  0.4779670000000  0.4579050000000  0.3972220000000 1.0
C      1  0.3954440000000  0.4579060000000  0.4891900000000 1.0
C      1  0.4575920000000  0.5402900000000  0.4049320000000 1.0
C      1  0.5773140000000  0.5402800000000  0.4302880000000 1.0
C      1  0.5901950000000  0.5402730000000  0.5519860000000 1.0
C      1  0.4784340000000  0.5402780000000  0.6018440000000 1.0
C      1  0.3964800000000  0.5402890000000  0.5109600000000 1.0
C      1  0.5728660000000  0.5038890000000  0.5729800000000 1.0
C      1  0.5919250000000  0.5038940000000  0.4532530000000 1.0
C      1  0.4839470000000  0.5039050000000  0.3981290000000 1.0
C      1  0.3981540000000  0.5039070000000  0.4837880000000 1.0
C      1  0.4531090000000  0.5038970000000  0.5918510000000 1.0
C      1  0.5728310000000  0.4945230000000  0.4260420000000 1.0
C      1  0.5928440000000  0.4945150000000  0.5464120000000 1.0
C      1  0.4845490000000  0.4945200000000  0.6026420000000 1.0
C      1  0.3976060000000  0.4945310000000  0.5170240000000 1.0
C      1  0.4521680000000  0.4945330000000  0.4078790000000 1.0
C      1  0.5140500000000  0.4883590000000  0.5379200000000 1.0
C      1  0.5404060000000  0.4883590000000  0.4983550000000 1.0
C      1  0.5109210000000  0.4883630000000  0.4610620000000 1.0
C      1  0.4663430000000  0.4883650000000  0.4775800000000 1.0
C      1  0.4682760000000  0.4883630000000  0.5250810000000 1.0
C      1  0.5089580000000  0.5143160000000  0.4745440000000 1.0
C      1  0.5269800000000  0.5143130000000  0.5006520000000 1.0
C      1  0.5077180000000  0.5143130000000  0.5258610000000 1.0
C      1  0.4777920000000  0.5143160000000  0.5153310000000 1.0
C      1  0.4785580000000  0.5143170000000  0.4836160000000 1.0
C      1  0.5330070000000  0.4690840000000  0.5786040000000 1.0
C      1  0.5849570000000  0.4690850000000  0.4928950000000 1.0
C      1  0.5194960000000  0.4690940000000  0.4170020000000 1.0
C      1  0.4270890000000  0.4690990000000  0.4558070000000 1.0
C      1  0.4354400000000  0.4690930000000  0.5556830000000 1.0
C      1  0.5329940000000  0.5270390000000  0.4223640000000 1.0
C      1  0.5840350000000  0.5270310000000  0.5073880000000 1.0
C      1  0.5189450000000  0.5270320000000  0.5822040000000 1.0
C      1  0.4276770000000  0.5270410000000  0.5434190000000 1.0
C      1  0.4363600000000  0.5270460000000  0.4446330000000 1.0
C      1  0.5303920000000  0.5334260000000  0.4799150000000 1.0
C      1  0.4902900000000  0.5334300000000  0.4648930000000 1.0
C      1  0.4636110000000  0.5334300000000  0.4983900000000 1.0
C      1  0.4872240000000  0.5334260000000  0.5341140000000 1.0
C      1  0.5284970000000  0.5334240000000  0.5226970000000 1.0
C      1  0.5322180000000  0.4711130000000  0.5211990000000 1.0
C      1  0.4897910000000  0.4711160000000  0.5371930000000 1.0
C      1  0.4614700000000  0.4711200000000  0.5017850000000 1.0
C      1  0.4863930000000  0.4711200000000  0.4639080000000 1.0
C      1  0.5301170000000  0.4711160000000  0.4759070000000 1.0
C      1  0.4501090000000  0.5337240000000  0.5935090000000 1.0
C      1  0.5735150000000  0.5337160000000  0.5763480000000 1.0
C      1  0.5953290000000  0.5337200000000  0.4536790000000 1.0
C      1  0.4854050000000  0.5337310000000  0.3950260000000 1.0
C      1  0.3956540000000  0.5337340000000  0.4814460000000 1.0
C      1  0.4500070000000  0.4643000000000  0.4062020000000 1.0
C      1  0.5737540000000  0.4642890000000  0.4234700000000 1.0
C      1  0.5955720000000  0.4642810000000  0.5464970000000 1.0
C      1  0.4853090000000  0.4642870000000  0.6052640000000 1.0
C      1  0.3953440000000  0.4642980000000  0.5185580000000 1.0
C      1  0.5502890000000  0.4643670000000  0.4562020000000 1.0
C      1  0.4738860000000  0.4643730000000  0.4386350000000 1.0
C      1  0.4335680000000  0.4643730000000  0.5058690000000 1.0
C      1  0.4850530000000  0.4643660000000  0.5649900000000 1.0
C      1  0.5571910000000  0.4643620000000  0.5342940000000 1.0
C      1  0.5476260000000  0.5336950000000  0.5434410000000 1.0
C      1  0.4734060000000  0.5337000000000  0.5587180000000 1.0
C      1  0.4359410000000  0.5337060000000  0.4928510000000 1.0
C      1  0.4870070000000  0.5337050000000  0.4368660000000 1.0
C      1  0.5560320000000  0.5336980000000  0.4681330000000 1.0
C      1  0.5703500000000  0.4959630000000  0.4989040000000 1.0
C      1  0.4437300000000  0.4959710000000  0.5422370000000 1.0
C      1  0.4424410000000  0.4959750000000  0.4595360000000 1.0
C      1  0.5227820000000  0.4959630000000  0.5665680000000 1.0
C      1  0.5206970000000  0.4959700000000  0.4327540000000 1.0
END
