TITL C-100739-6241-8 33.8976665265437 125000 -670.785730999868 0 0 97 (C2v) n - 1
REM
REM in /rds/project/t2_vol4/rds-t2-cs072/BORA/CARBON/from-Arr/AIRSS/Generating-Clusters/GAP-ML-2020/Higher-Symm/SD-CG/HFTN-CG
REM
REM
REM
REM
REM
REM ./C.cell (b20cbc046b6831c77cfcea5457e17084)
REM AIRSS Version 0.9.1 bugfix July 2018 build 013d7b7c2542+ Fri, 06 Jul 2018 19:26:36 +0100
REM compiler GCC version 9.3.0
REM options -cpp -mtune=generic -march=x86-64 -g -O0
REM seed 673101204 1868318011 -429003711 -990060063 1367838057 -898769170 1949391535 1794776537 -1957220956 707905613 2092409966 652397151 349842660 -1966675637 -522579998 -1015060960 -1832789817 -823989592 -2136152090 423522503 -1317466408 858273108 -2620545 540173355 1886735491 -1979397975 -418635610 -1863213984 -1247753507 -1744573107 -1804748649 1937360857 -611748059
REM
CELL 1.54180   50.00000   50.00000   50.00000   90.00000   90.00000   90.00000
LATT -1
SFAC C  
C      1  0.5301770000000  0.4294580000000  0.4758170000000 1.0
C      1  0.4699240000000  0.5696930000000  0.4758150000000 1.0
C      1  0.4699250000000  0.4294580000000  0.4758150000000 1.0
C      1  0.5301760000000  0.5696930000000  0.4758170000000 1.0
C      1  0.5425290000000  0.5270280000000  0.5527390000000 1.0
C      1  0.4575670000000  0.4721230000000  0.5527360000000 1.0
C      1  0.4575670000000  0.5270280000000  0.5527360000000 1.0
C      1  0.5425290000000  0.4721230000000  0.5527390000000 1.0
C      1  0.5151200000000  0.4262570000000  0.5467250000000 1.0
C      1  0.4849760000000  0.5728940000000  0.5467240000000 1.0
C      1  0.4849780000000  0.4262570000000  0.5467240000000 1.0
C      1  0.5151180000000  0.5728940000000  0.5467250000000 1.0
C      1  0.4364020000000  0.5139870000000  0.4550160000000 1.0
C      1  0.5637000000000  0.4851640000000  0.4550200000000 1.0
C      1  0.5637000000000  0.5139880000000  0.4550200000000 1.0
C      1  0.4364020000000  0.4851630000000  0.4550160000000 1.0
C      1  0.4862880000000  0.4765040000000  0.5939400000000 1.0
C      1  0.5138060000000  0.5226470000000  0.5939410000000 1.0
C      1  0.5138060000000  0.4765040000000  0.5939410000000 1.0
C      1  0.4862870000000  0.5226470000000  0.5939400000000 1.0
C      1  0.4407280000000  0.4294160000000  0.5344430000000 1.0
C      1  0.5593680000000  0.5697350000000  0.5344460000000 1.0
C      1  0.5593700000000  0.4294170000000  0.5344460000000 1.0
C      1  0.4407270000000  0.5697340000000  0.5344430000000 1.0
C      1  0.5361910000000  0.5140570000000  0.5777790000000 1.0
C      1  0.4639030000000  0.4850930000000  0.5777760000000 1.0
C      1  0.4639030000000  0.5140570000000  0.5777770000000 1.0
C      1  0.5361920000000  0.4850940000000  0.5777790000000 1.0
C      1  0.4490830000000  0.4716060000000  0.4333290000000 1.0
C      1  0.5510210000000  0.5275450000000  0.4333320000000 1.0
C      1  0.5510220000000  0.4716070000000  0.4333320000000 1.0
C      1  0.4490820000000  0.5275440000000  0.4333290000000 1.0
C      1  0.4297910000000  0.5285320000000  0.5097860000000 1.0
C      1  0.5703070000000  0.4706190000000  0.5097910000000 1.0
C      1  0.5703070000000  0.5285330000000  0.5097910000000 1.0
C      1  0.4297920000000  0.4706180000000  0.5097860000000 1.0
C      1  0.5254340000000  0.5136180000000  0.5331720000000 1.0
C      1  0.4746640000000  0.4855330000000  0.5331710000000 1.0
C      1  0.4746630000000  0.5136170000000  0.5331710000000 1.0
C      1  0.5254340000000  0.4855340000000  0.5331720000000 1.0
C      1  0.4467860000000  0.5567740000000  0.4844940000000 1.0
C      1  0.5533150000000  0.4423770000000  0.4844970000000 1.0
C      1  0.5533130000000  0.5567750000000  0.4844970000000 1.0
C      1  0.4467870000000  0.4423760000000  0.4844940000000 1.0
C      1  0.4605700000000  0.5575050000000  0.5503530000000 1.0
C      1  0.5395260000000  0.4416460000000  0.5503560000000 1.0
C      1  0.5395250000000  0.5575060000000  0.5503560000000 1.0
C      1  0.4605710000000  0.4416450000000  0.5503530000000 1.0
C      1  0.4426800000000  0.5269350000000  0.4817310000000 1.0
C      1  0.5574210000000  0.4722160000000  0.4817350000000 1.0
C      1  0.5574200000000  0.5269370000000  0.4817350000000 1.0
C      1  0.4426800000000  0.4722150000000  0.4817310000000 1.0
C      1  0.5163340000000  0.5554260000000  0.4546820000000 1.0
C      1  0.4837690000000  0.4437250000000  0.4546810000000 1.0
C      1  0.4837680000000  0.5554260000000  0.4546810000000 1.0
C      1  0.5163350000000  0.4437250000000  0.4546820000000 1.0
C      1  0.4693450000000  0.4489600000000  0.4309560000000 1.0
C      1  0.5307590000000  0.5501910000000  0.4309580000000 1.0
C      1  0.5307600000000  0.4489610000000  0.4309580000000 1.0
C      1  0.4693440000000  0.5501900000000  0.4309560000000 1.0
C      1  0.4651770000000  0.5135960000000  0.4137600000000 1.0
C      1  0.5349280000000  0.4855550000000  0.4137620000000 1.0
C      1  0.5349280000000  0.5135970000000  0.4137620000000 1.0
C      1  0.4651770000000  0.4855550000000  0.4137600000000 1.0
C      1  0.4855790000000  0.5846850000000  0.4939220000000 1.0
C      1  0.5145210000000  0.4144660000000  0.4939230000000 1.0
C      1  0.5145190000000  0.5846850000000  0.4939230000000 1.0
C      1  0.4855810000000  0.4144660000000  0.4939220000000 1.0
C      1  0.5153420000000  0.5886980000000  0.5222750000000 1.0
C      1  0.4847560000000  0.4104530000000  0.5222740000000 1.0
C      1  0.4847540000000  0.5886970000000  0.5222740000000 1.0
C      1  0.5153440000000  0.4104540000000  0.5222750000000 1.0
C      1  0.4860430000000  0.4646070000000  0.4125770000000 1.0
C      1  0.5140620000000  0.5345440000000  0.4125780000000 1.0
C      1  0.5140630000000  0.4646070000000  0.4125780000000 1.0
C      1  0.4860420000000  0.5345440000000  0.4125770000000 1.0
C      1  0.4720280000000  0.5146690000000  0.4850970000000 1.0
C      1  0.5280720000000  0.4844820000000  0.4850990000000 1.0
C      1  0.5280720000000  0.5146700000000  0.4850990000000 1.0
C      1  0.4720280000000  0.4844810000000  0.4850970000000 1.0
C      1  0.4361090000000  0.5567030000000  0.5111870000000 1.0
C      1  0.5639900000000  0.4424480000000  0.5111910000000 1.0
C      1  0.5639890000000  0.5567040000000  0.5111910000000 1.0
C      1  0.4361100000000  0.4424470000000  0.5111870000000 1.0
C      1  0.4860920000000  0.4756770000000  0.4612110000000 1.0
C      1  0.5140100000000  0.5234740000000  0.4612120000000 1.0
C      1  0.5140100000000  0.4756770000000  0.4612120000000 1.0
C      1  0.4860920000000  0.5234740000000  0.4612110000000 1.0
C      1  0.5139720000000  0.4739080000000  0.5096670000000 1.0
C      1  0.4861280000000  0.5252430000000  0.5096670000000 1.0
C      1  0.4861280000000  0.4739080000000  0.5096670000000 1.0
C      1  0.5139710000000  0.5252430000000  0.5096670000000 1.0
C      1  0.5631700000000  0.4851890000000  0.5333800000000 1.0
C      1  0.4369280000000  0.5139620000000  0.5333760000000 1.0
C      1  0.4369280000000  0.4851870000000  0.5333760000000 1.0
C      1  0.5631690000000  0.5139640000000  0.5333800000000 1.0
C      1  0.5000460000000  0.4995750000000  0.6062470000000 1.0
END
