TITL C-102461-7465-1 -0.0214012160784175 125000 -407.637937919123 0 0 61 (C1) n - 1
REM
REM in /rds/project/t2_vol4/rds-t2-cs072/BORA/CARBON/from-Arr/AIRSS/Generating-Clusters/GAP-ML-2020/Higher-Symm/SD-CG/HFTN-CG
REM
REM
REM
REM
REM
REM ./C.cell (b20cbc046b6831c77cfcea5457e17084)
REM AIRSS Version 0.9.1 bugfix July 2018 build 013d7b7c2542+ Fri, 06 Jul 2018 19:26:36 +0100
REM compiler GCC version 9.3.0
REM options -cpp -mtune=generic -march=x86-64 -g -O0
REM seed 1147082155 -1375560334 1337139326 999873314 1596490030 -867750996 926127492 -1937564550 -1069250676 -397106578 410356781 269913485 -72140856 -372995223 1022796948 1919387017 -290649438 228118904 931265999 -1306830490 -1186469557 -1623030185 1690807684 470477651 -1615755876 1083523285 835058561 -1408000499 -1672982657 -536228400 1814905010 316520421 681152270
REM
CELL 1.54180   50.00000   50.00000   50.00000   90.00000   90.00000   90.00000
LATT -1
SFAC C  
C      1  0.4578210000000  0.4226200000000  0.5058120000000 1.0
C      1  0.4348160000000  0.4415120000000  0.5058970000000 1.0
C      1  0.4213420000000  0.5021090000000  0.5291750000000 1.0
C      1  0.4266040000000  0.5302820000000  0.5307340000000 1.0
C      1  0.4706280000000  0.5796430000000  0.5105810000000 1.0
C      1  0.4995770000000  0.5818300000000  0.5125330000000 1.0
C      1  0.5439200000000  0.5521500000000  0.5184150000000 1.0
C      1  0.5632050000000  0.5312760000000  0.5203520000000 1.0
C      1  0.5863740000000  0.4794450000000  0.5111020000000 1.0
C      1  0.5473640000000  0.4331430000000  0.5299700000000 1.0
C      1  0.5208190000000  0.4209320000000  0.5285090000000 1.0
C      1  0.4522810000000  0.4987290000000  0.4636710000000 1.0
C      1  0.4582110000000  0.5270460000000  0.4641840000000 1.0
C      1  0.4749400000000  0.5466190000000  0.4525880000000 1.0
C      1  0.5044690000000  0.5519700000000  0.4496140000000 1.0
C      1  0.5282740000000  0.5372620000000  0.4494390000000 1.0
C      1  0.5267050000000  0.5083950000000  0.4411720000000 1.0
C      1  0.5454280000000  0.4897220000000  0.4551840000000 1.0
C      1  0.5351400000000  0.4653760000000  0.4657630000000 1.0
C      1  0.5095090000000  0.4524510000000  0.4646360000000 1.0
C      1  0.4836720000000  0.4551470000000  0.4536490000000 1.0
C      1  0.4604640000000  0.4739060000000  0.4535240000000 1.0
C      1  0.5164440000000  0.4104750000000  0.5019180000000 1.0
C      1  0.4689510000000  0.4150380000000  0.4814380000000 1.0
C      1  0.4247380000000  0.4507000000000  0.4816400000000 1.0
C      1  0.4112020000000  0.4949550000000  0.5030900000000 1.0
C      1  0.4226110000000  0.5449210000000  0.5054390000000 1.0
C      1  0.4570120000000  0.5800360000000  0.4869460000000 1.0
C      1  0.5153540000000  0.5783540000000  0.4892380000000 1.0
C      1  0.5385540000000  0.5622820000000  0.4919360000000 1.0
C      1  0.5823200000000  0.5316220000000  0.5007550000000 1.0
C      1  0.5834190000000  0.4852490000000  0.4867440000000 1.0
C      1  0.5618550000000  0.4330080000000  0.5045220000000 1.0
C      1  0.5013420000000  0.5767830000000  0.4646170000000 1.0
C      1  0.5472280000000  0.5452940000000  0.4699240000000 1.0
C      1  0.5688530000000  0.5280550000000  0.4764310000000 1.0
C      1  0.5682380000000  0.5002510000000  0.4688660000000 1.0
C      1  0.5417930000000  0.4524310000000  0.4924840000000 1.0
C      1  0.5146850000000  0.4384020000000  0.4910310000000 1.0
C      1  0.4653850000000  0.4325190000000  0.4608430000000 1.0
C      1  0.4422870000000  0.4511730000000  0.4607690000000 1.0
C      1  0.4384330000000  0.5004590000000  0.4910040000000 1.0
C      1  0.4446770000000  0.5300380000000  0.4917770000000 1.0
C      1  0.4722890000000  0.5730970000000  0.4659080000000 1.0
C      1  0.5625670000000  0.4836130000000  0.5276470000000 1.0
C      1  0.5448390000000  0.4615810000000  0.5237110000000 1.0
C      1  0.5016310000000  0.4416380000000  0.5195000000000 1.0
C      1  0.4738150000000  0.4428170000000  0.5212030000000 1.0
C      1  0.4517250000000  0.4610680000000  0.5209240000000 1.0
C      1  0.4454970000000  0.4883290000000  0.5192710000000 1.0
C      1  0.4541150000000  0.5356730000000  0.5246920000000 1.0
C      1  0.4711100000000  0.5571580000000  0.5297750000000 1.0
C      1  0.5001140000000  0.5610630000000  0.5332130000000 1.0
C      1  0.5234260000000  0.5472690000000  0.5371290000000 1.0
C      1  0.5538680000000  0.5089770000000  0.5348960000000 1.0
C      1  0.4946560000000  0.4933630000000  0.5812580000000 1.0
C      1  0.5103950000000  0.5037680000000  0.5651510000000 1.0
C      1  0.5013640000000  0.5041880000000  0.4971620000000 1.0
C      1  0.5023420000000  0.4999460000000  0.4302580000000 1.0
C      1  0.5233870000000  0.5137350000000  0.5415960000000 1.0
C      1  0.5044460000000  0.5015120000000  0.5217740000000 1.0
END
