TITL C-109502-6244-1 -20.5808835015239 125000 -1080.34907789837 0 0 157 (C1) n - 1
REM
REM in /rds/project/t2_vol4/rds-t2-cs072/BORA/CARBON/from-Arr/AIRSS/Generating-Clusters/GAP-ML-2020/Higher-Symm/SD-CG/HFTN-CG
REM
REM
REM
REM
REM
REM ./C.cell (b20cbc046b6831c77cfcea5457e17084)
REM AIRSS Version 0.9.1 bugfix July 2018 build 013d7b7c2542+ Fri, 06 Jul 2018 19:26:36 +0100
REM compiler GCC version 9.3.0
REM options -cpp -mtune=generic -march=x86-64 -g -O0
REM seed -1265026888 -711478301 349456231 1344414531 330502419 1601611219 555918569 1183029444 21549530 -351771071 289604185 487496917 222834866 -1578377863 1720239113 -617304310 -1352985487 2026406594 1937647076 223792707 464535691 214178890 -238684699 -1185691505 -784428925 2086531680 -720380316 -1263743499 794932860 -917991553 -1858591381 741624847 -923197074
REM
CELL 1.54180   50.00000   50.00000   50.00000   90.00000   90.00000   90.00000
LATT -1
SFAC C  
C      1  0.4410890000000  0.4822590000000  0.4591490000000 1.0
C      1  0.4840230000000  0.4642760000000  0.4400460000000 1.0
C      1  0.4598050000000  0.4415690000000  0.4816150000000 1.0
C      1  0.4411030000000  0.5186820000000  0.5417920000000 1.0
C      1  0.5649360000000  0.4761140000000  0.5438950000000 1.0
C      1  0.5599230000000  0.5173490000000  0.4618780000000 1.0
C      1  0.4821710000000  0.5392990000000  0.5620340000000 1.0
C      1  0.5166980000000  0.4613650000000  0.5558390000000 1.0
C      1  0.5175940000000  0.5410470000000  0.4404250000000 1.0
C      1  0.4604840000000  0.5604970000000  0.5208600000000 1.0
C      1  0.5357770000000  0.4421000000000  0.5138590000000 1.0
C      1  0.5413500000000  0.5606300000000  0.4797890000000 1.0
C      1  0.4336010000000  0.4546870000000  0.4744250000000 1.0
C      1  0.4840210000000  0.4423060000000  0.4618500000000 1.0
C      1  0.4563090000000  0.4754570000000  0.4329700000000 1.0
C      1  0.4343000000000  0.5455390000000  0.5273350000000 1.0
C      1  0.5678140000000  0.5451160000000  0.4734690000000 1.0
C      1  0.5580300000000  0.4645950000000  0.5152600000000 1.0
C      1  0.4769060000000  0.5667870000000  0.5474030000000 1.0
C      1  0.5254810000000  0.5672150000000  0.4535650000000 1.0
C      1  0.5248720000000  0.4350510000000  0.5409640000000 1.0
C      1  0.4551690000000  0.5236450000000  0.5683430000000 1.0
C      1  0.5375370000000  0.5173550000000  0.4405540000000 1.0
C      1  0.5383530000000  0.4826870000000  0.5586150000000 1.0
C      1  0.4300140000000  0.5291630000000  0.4470350000000 1.0
C      1  0.5307980000000  0.4497540000000  0.4299020000000 1.0
C      1  0.4490490000000  0.4285620000000  0.5295620000000 1.0
C      1  0.4298420000000  0.4700730000000  0.5502260000000 1.0
C      1  0.5711450000000  0.5279730000000  0.5477440000000 1.0
C      1  0.5707930000000  0.4700150000000  0.4491970000000 1.0
C      1  0.5304280000000  0.5506370000000  0.5701440000000 1.0
C      1  0.4692000000000  0.4486500000000  0.5695330000000 1.0
C      1  0.4699830000000  0.5511230000000  0.4277610000000 1.0
C      1  0.4491670000000  0.5700180000000  0.4699220000000 1.0
C      1  0.5520720000000  0.4291700000000  0.4692180000000 1.0
C      1  0.5526040000000  0.5699290000000  0.5284140000000 1.0
C      1  0.4305810000000  0.4501810000000  0.5284790000000 1.0
C      1  0.5311040000000  0.4296490000000  0.4494310000000 1.0
C      1  0.4507650000000  0.5287000000000  0.4275230000000 1.0
C      1  0.4315450000000  0.5481960000000  0.4697900000000 1.0
C      1  0.5720860000000  0.5492610000000  0.5272610000000 1.0
C      1  0.5711640000000  0.4495800000000  0.4694630000000 1.0
C      1  0.5307360000000  0.5695250000000  0.5490040000000 1.0
C      1  0.4702480000000  0.5693470000000  0.4500240000000 1.0
C      1  0.4697670000000  0.4285760000000  0.5495970000000 1.0
C      1  0.4498380000000  0.4704980000000  0.5697270000000 1.0
C      1  0.5510510000000  0.4702760000000  0.4294470000000 1.0
C      1  0.5476220000000  0.5263050000000  0.5652250000000 1.0
C      1  0.5774440000000  0.4526300000000  0.5570760000000 1.0
C      1  0.4566580000000  0.5684960000000  0.5883540000000 1.0
C      1  0.5692340000000  0.5851580000000  0.4527310000000 1.0
C      1  0.5788950000000  0.5419390000000  0.4244890000000 1.0
C      1  0.4160180000000  0.4546140000000  0.4296060000000 1.0
C      1  0.4142820000000  0.5436170000000  0.5708190000000 1.0
C      1  0.4595570000000  0.4254880000000  0.4220100000000 1.0
C      1  0.5441480000000  0.5710010000000  0.4104730000000 1.0
C      1  0.5594110000000  0.4301440000000  0.5951540000000 1.0
C      1  0.5469270000000  0.4199540000000  0.5530590000000 1.0
C      1  0.4313250000000  0.5861860000000  0.5463800000000 1.0
C      1  0.4301200000000  0.4119720000000  0.4556030000000 1.0
C      1  0.5793300000000  0.5582870000000  0.4497390000000 1.0
C      1  0.4562750000000  0.5812100000000  0.5627590000000 1.0
C      1  0.5716150000000  0.4542220000000  0.5855090000000 1.0
C      1  0.5726620000000  0.4280780000000  0.5423480000000 1.0
C      1  0.4202270000000  0.4391900000000  0.4537220000000 1.0
C      1  0.4182820000000  0.5606760000000  0.5464970000000 1.0
C      1  0.4425230000000  0.4052490000000  0.4310610000000 1.0
C      1  0.5383210000000  0.4200270000000  0.5805240000000 1.0
C      1  0.5443610000000  0.5822280000000  0.4371500000000 1.0
C      1  0.5694800000000  0.5591420000000  0.4046180000000 1.0
C      1  0.4400290000000  0.5441210000000  0.5833150000000 1.0
C      1  0.4433450000000  0.4508840000000  0.4223950000000 1.0
C      1  0.4576790000000  0.5004550000000  0.4766420000000 1.0
C      1  0.4980330000000  0.4843380000000  0.4580460000000 1.0
C      1  0.4734150000000  0.4628040000000  0.4973750000000 1.0
C      1  0.4587700000000  0.5038000000000  0.5232310000000 1.0
C      1  0.5295430000000  0.5031200000000  0.5193970000000 1.0
C      1  0.5411160000000  0.5033590000000  0.4803640000000 1.0
C      1  0.4990860000000  0.5211300000000  0.5471760000000 1.0
C      1  0.4947560000000  0.4719760000000  0.5394740000000 1.0
C      1  0.4998540000000  0.5281170000000  0.4617660000000 1.0
C      1  0.4755530000000  0.5429040000000  0.5028300000000 1.0
C      1  0.5173190000000  0.4607490000000  0.4993560000000 1.0
C      1  0.5210390000000  0.5459080000000  0.4966840000000 1.0
C      1  0.4568090000000  0.4848150000000  0.5017200000000 1.0
C      1  0.4977760000000  0.4638320000000  0.4780410000000 1.0
C      1  0.4802330000000  0.5069560000000  0.4604410000000 1.0
C      1  0.4547450000000  0.5229760000000  0.4965700000000 1.0
C      1  0.5379470000000  0.5232990000000  0.5011370000000 1.0
C      1  0.5382620000000  0.4814950000000  0.5013760000000 1.0
C      1  0.4999790000000  0.5350040000000  0.5172430000000 1.0
C      1  0.4957090000000  0.5493690000000  0.4807110000000 1.0
C      1  0.4933160000000  0.4573700000000  0.5168510000000 1.0
C      1  0.4854440000000  0.4983270000000  0.5347080000000 1.0
C      1  0.5200530000000  0.5034960000000  0.4607290000000 1.0
C      1  0.5280660000000  0.5092370000000  0.5488560000000 1.0
C      1  0.4988280000000  0.4176300000000  0.5474030000000 1.0
C      1  0.4269950000000  0.5369000000000  0.4985070000000 1.0
C      1  0.5479750000000  0.4979490000000  0.4188360000000 1.0
C      1  0.4975210000000  0.5756400000000  0.4629450000000 1.0
C      1  0.5033780000000  0.4197850000000  0.4533100000000 1.0
C      1  0.5039310000000  0.5806410000000  0.5431740000000 1.0
C      1  0.4191480000000  0.4572090000000  0.5016930000000 1.0
C      1  0.5833290000000  0.5428930000000  0.4999120000000 1.0
C      1  0.5809610000000  0.4535370000000  0.4974750000000 1.0
C      1  0.5472820000000  0.4976420000000  0.5856960000000 1.0
C      1  0.4574700000000  0.4962850000000  0.5812530000000 1.0
C      1  0.4580740000000  0.5012550000000  0.4167990000000 1.0
C      1  0.4996760000000  0.5456670000000  0.4152550000000 1.0
C      1  0.4163600000000  0.4994330000000  0.5464680000000 1.0
C      1  0.5488070000000  0.4196760000000  0.4977320000000 1.0
C      1  0.4972600000000  0.4506930000000  0.5813750000000 1.0
C      1  0.5031200000000  0.4527210000000  0.4190960000000 1.0
C      1  0.5012730000000  0.5450190000000  0.5859470000000 1.0
C      1  0.4162670000000  0.4995540000000  0.4519180000000 1.0
C      1  0.5808380000000  0.5014960000000  0.5410380000000 1.0
C      1  0.5816290000000  0.4977840000000  0.4519570000000 1.0
C      1  0.5477950000000  0.5844650000000  0.4986590000000 1.0
C      1  0.4538470000000  0.5841930000000  0.5013170000000 1.0
C      1  0.4557130000000  0.4162870000000  0.5008030000000 1.0
C      1  0.5229770000000  0.4979550000000  0.4015230000000 1.0
C      1  0.5026200000000  0.4016990000000  0.5217620000000 1.0
C      1  0.4042820000000  0.5190380000000  0.4986360000000 1.0
C      1  0.5210080000000  0.4970580000000  0.6001630000000 1.0
C      1  0.4804550000000  0.4963690000000  0.5970050000000 1.0
C      1  0.4815450000000  0.4983540000000  0.4016680000000 1.0
C      1  0.4993220000000  0.5982590000000  0.4806790000000 1.0
C      1  0.5035440000000  0.4037370000000  0.4797700000000 1.0
C      1  0.5021400000000  0.5972940000000  0.5207410000000 1.0
C      1  0.4017200000000  0.4792300000000  0.5002900000000 1.0
C      1  0.5976290000000  0.5191020000000  0.4977340000000 1.0
C      1  0.5982110000000  0.4776960000000  0.4974770000000 1.0
C      1  0.5238730000000  0.4029210000000  0.5006920000000 1.0
C      1  0.5016820000000  0.5185950000000  0.4010930000000 1.0
C      1  0.4021090000000  0.4996750000000  0.5204400000000 1.0
C      1  0.5215950000000  0.5985140000000  0.4997740000000 1.0
C      1  0.4798350000000  0.5991330000000  0.5014180000000 1.0
C      1  0.4830060000000  0.4027380000000  0.5008540000000 1.0
C      1  0.5001440000000  0.4753810000000  0.5987420000000 1.0
C      1  0.5027530000000  0.4773390000000  0.4014690000000 1.0
C      1  0.5014480000000  0.5173190000000  0.5985940000000 1.0
C      1  0.4015980000000  0.4991310000000  0.4783190000000 1.0
C      1  0.5971780000000  0.4988120000000  0.5181790000000 1.0
C      1  0.5986130000000  0.4979460000000  0.4769430000000 1.0
C      1  0.5767460000000  0.5123240000000  0.4254980000000 1.0
C      1  0.4829150000000  0.5639870000000  0.5971860000000 1.0
C      1  0.5666800000000  0.5936690000000  0.4787650000000 1.0
C      1  0.5687170000000  0.4812270000000  0.5928580000000 1.0
C      1  0.4887700000000  0.4262170000000  0.4244410000000 1.0
C      1  0.5183910000000  0.5641510000000  0.4034940000000 1.0
C      1  0.5086890000000  0.4229770000000  0.5785830000000 1.0
C      1  0.5749250000000  0.4271450000000  0.5134660000000 1.0
C      1  0.4346340000000  0.5946210000000  0.5201370000000 1.0
C      1  0.4374180000000  0.4059880000000  0.4814300000000 1.0
C      1  0.4059480000000  0.5174620000000  0.5665040000000 1.0
C      1  0.4074930000000  0.4804090000000  0.4319560000000 1.0
C      1  0.5014280000000  0.5061460000000  0.5111950000000 1.0
END
