TITL C-107699-8575-1 -8.96603369026099 125000 -1308.37921430522 0 0 184 (D2) n - 1
REM
REM in /rds/project/t2_vol4/rds-t2-cs072/BORA/CARBON/from-Arr/AIRSS/Generating-Clusters/GAP-ML-2020/Higher-Symm/SD-CG/HFTN-CG/C160-200
REM
REM
REM
REM
REM
REM ./C.cell (6b4489405718ea1b717e0baf1da4c2d9)
REM AIRSS Version 0.9.1 bugfix July 2018 build 013d7b7c2542+ Fri, 06 Jul 2018 19:26:36 +0100
REM compiler GCC version 9.3.0
REM options -cpp -mtune=generic -march=x86-64 -g -O0
REM seed -359129554 204586250 822733335 1744912927 -1437005067 1089334566 2131452610 -1152509373 -887498852 1717669160 -1928984858 -541078143 -237092058 -250900333 -1071629882 -291615934 1091970783 -2043287455 -1766322362 722337624 810642042 -891600389 -1615623776 -2036290338 1585347231 -958845003 -331181875 1150802366 -1849748625 254734745 -906376752 -818982575 -358600064
REM
CELL 1.54180   50.00000   50.00000   50.00000   90.00000   90.00000   90.00000
LATT -1
SFAC C  
C      1  0.5267120000000  0.5176940000000  0.5379210000000 1.0
C      1  0.5266830000000  0.4822970000000  0.4620630000000 1.0
C      1  0.4732940000000  0.5177240000000  0.4620880000000 1.0
C      1  0.4733100000000  0.4822850000000  0.5379270000000 1.0
C      1  0.5175930000000  0.4284070000000  0.4288620000000 1.0
C      1  0.5176600000000  0.5715870000000  0.5711280000000 1.0
C      1  0.4823820000000  0.4283750000000  0.5710990000000 1.0
C      1  0.4823650000000  0.5716320000000  0.4289110000000 1.0
C      1  0.4575830000000  0.5846520000000  0.4344560000000 1.0
C      1  0.4575920000000  0.4153630000000  0.5655690000000 1.0
C      1  0.5424460000000  0.5846010000000  0.5655900000000 1.0
C      1  0.5423780000000  0.4153840000000  0.4343850000000 1.0
C      1  0.4053020000000  0.5711300000000  0.4882200000000 1.0
C      1  0.4052840000000  0.4289030000000  0.5118360000000 1.0
C      1  0.5947230000000  0.5710900000000  0.5118190000000 1.0
C      1  0.5946910000000  0.4288770000000  0.4881250000000 1.0
C      1  0.4335840000000  0.4410010000000  0.5799100000000 1.0
C      1  0.4335570000000  0.5590220000000  0.4201290000000 1.0
C      1  0.5663960000000  0.4410220000000  0.4200580000000 1.0
C      1  0.5664640000000  0.5589550000000  0.5799030000000 1.0
C      1  0.4421510000000  0.4577180000000  0.5126490000000 1.0
C      1  0.4421590000000  0.5423030000000  0.4873850000000 1.0
C      1  0.5578340000000  0.4577040000000  0.4873280000000 1.0
C      1  0.5578560000000  0.5422750000000  0.5126380000000 1.0
C      1  0.5567210000000  0.4703120000000  0.5923710000000 1.0
C      1  0.5566770000000  0.5296680000000  0.4075950000000 1.0
C      1  0.4432690000000  0.4703820000000  0.4076120000000 1.0
C      1  0.4433340000000  0.5296380000000  0.5924210000000 1.0
C      1  0.4855180000000  0.4541830000000  0.4081900000000 1.0
C      1  0.4855890000000  0.5458220000000  0.5918180000000 1.0
C      1  0.5144660000000  0.4541280000000  0.5917850000000 1.0
C      1  0.5144270000000  0.5458670000000  0.4082070000000 1.0
C      1  0.4844960000000  0.4985790000000  0.4414160000000 1.0
C      1  0.4845310000000  0.5014260000000  0.5585930000000 1.0
C      1  0.5155040000000  0.4985420000000  0.5585830000000 1.0
C      1  0.5154700000000  0.5014520000000  0.4414080000000 1.0
C      1  0.5567080000000  0.5338790000000  0.5918940000000 1.0
C      1  0.5566420000000  0.4661010000000  0.4080730000000 1.0
C      1  0.4433040000000  0.5339490000000  0.4081250000000 1.0
C      1  0.4433460000000  0.4660710000000  0.5919090000000 1.0
C      1  0.3967220000000  0.4799590000000  0.4579700000000 1.0
C      1  0.3967540000000  0.5200780000000  0.5420910000000 1.0
C      1  0.6032700000000  0.4798990000000  0.5420190000000 1.0
C      1  0.6032530000000  0.5200640000000  0.4579200000000 1.0
C      1  0.5266440000000  0.5041700000000  0.4859020000000 1.0
C      1  0.5266500000000  0.4958210000000  0.5140820000000 1.0
C      1  0.4733580000000  0.5041710000000  0.5141000000000 1.0
C      1  0.4733480000000  0.4958380000000  0.4859150000000 1.0
C      1  0.5710260000000  0.4333690000000  0.4698590000000 1.0
C      1  0.5710670000000  0.5666060000000  0.5300990000000 1.0
C      1  0.4289510000000  0.4333780000000  0.5301050000000 1.0
C      1  0.4289560000000  0.5666470000000  0.4699370000000 1.0
C      1  0.4820430000000  0.5316000000000  0.5208630000000 1.0
C      1  0.4820190000000  0.4684060000000  0.4791480000000 1.0
C      1  0.5179680000000  0.5316050000000  0.4791540000000 1.0
C      1  0.5179690000000  0.4683890000000  0.5208350000000 1.0
C      1  0.5104650000000  0.5419930000000  0.5276460000000 1.0
C      1  0.5104340000000  0.4580040000000  0.4723480000000 1.0
C      1  0.4895500000000  0.5420110000000  0.4723770000000 1.0
C      1  0.4895520000000  0.4579920000000  0.5276290000000 1.0
C      1  0.5616910000000  0.4150890000000  0.4141320000000 1.0
C      1  0.5617720000000  0.5848900000000  0.5858310000000 1.0
C      1  0.4382790000000  0.4150640000000  0.5858210000000 1.0
C      1  0.4382580000000  0.5849580000000  0.4142150000000 1.0
C      1  0.4322530000000  0.4509950000000  0.4269520000000 1.0
C      1  0.4323130000000  0.5490290000000  0.5730880000000 1.0
C      1  0.5677300000000  0.4509310000000  0.5730220000000 1.0
C      1  0.5677040000000  0.5490450000000  0.4269380000000 1.0
C      1  0.6095640000000  0.5458500000000  0.5065500000000 1.0
C      1  0.6095440000000  0.4541110000000  0.4933850000000 1.0
C      1  0.3904520000000  0.5458920000000  0.4934750000000 1.0
C      1  0.3904400000000  0.4541460000000  0.5065900000000 1.0
C      1  0.4505170000000  0.5871110000000  0.4627540000000 1.0
C      1  0.4505080000000  0.4129070000000  0.5372750000000 1.0
C      1  0.5495140000000  0.5870730000000  0.5372930000000 1.0
C      1  0.5494610000000  0.4129100000000  0.4626780000000 1.0
C      1  0.4222250000000  0.4885170000000  0.4148000000000 1.0
C      1  0.4222800000000  0.5115100000000  0.5852460000000 1.0
C      1  0.5777710000000  0.4884430000000  0.5851940000000 1.0
C      1  0.5777240000000  0.5115290000000  0.4147600000000 1.0
C      1  0.4142960000000  0.4122030000000  0.4922790000000 1.0
C      1  0.4143310000000  0.5878270000000  0.5077720000000 1.0
C      1  0.5856730000000  0.4121690000000  0.5076730000000 1.0
C      1  0.5856990000000  0.5878010000000  0.4922760000000 1.0
C      1  0.5170760000000  0.4126570000000  0.5309660000000 1.0
C      1  0.5170890000000  0.5873370000000  0.4690240000000 1.0
C      1  0.4828930000000  0.4126800000000  0.4689860000000 1.0
C      1  0.4829420000000  0.5873260000000  0.5310240000000 1.0
C      1  0.4706990000000  0.5489500000000  0.4971070000000 1.0
C      1  0.4706840000000  0.4510600000000  0.5029110000000 1.0
C      1  0.5293180000000  0.5489380000000  0.5029200000000 1.0
C      1  0.5292990000000  0.4510510000000  0.4970630000000 1.0
C      1  0.5883950000000  0.4704200000000  0.5644720000000 1.0
C      1  0.5883670000000  0.5295490000000  0.4354760000000 1.0
C      1  0.4115950000000  0.4704860000000  0.4355120000000 1.0
C      1  0.4116430000000  0.5295450000000  0.5645400000000 1.0
C      1  0.5128860000000  0.4483330000000  0.4077620000000 1.0
C      1  0.5129580000000  0.5516620000000  0.5922300000000 1.0
C      1  0.4870960000000  0.4482870000000  0.5922100000000 1.0
C      1  0.4870600000000  0.5517170000000  0.4077980000000 1.0
C      1  0.4968500000000  0.3980750000000  0.5146860000000 1.0
C      1  0.4968770000000  0.6019260000000  0.4853160000000 1.0
C      1  0.5031140000000  0.3980820000000  0.4852580000000 1.0
C      1  0.5031580000000  0.6019170000000  0.5147400000000 1.0
C      1  0.5309870000000  0.4042510000000  0.4820380000000 1.0
C      1  0.5310320000000  0.5957380000000  0.5179440000000 1.0
C      1  0.4689790000000  0.4042520000000  0.5179100000000 1.0
C      1  0.4690020000000  0.5957580000000  0.4821080000000 1.0
C      1  0.5226770000000  0.4465800000000  0.5649330000000 1.0
C      1  0.5226570000000  0.5534120000000  0.4350530000000 1.0
C      1  0.4773040000000  0.4466240000000  0.4350380000000 1.0
C      1  0.4773610000000  0.5533840000000  0.5649760000000 1.0
C      1  0.5701230000000  0.5317200000000  0.4881170000000 1.0
C      1  0.5701190000000  0.4682560000000  0.5118410000000 1.0
C      1  0.4298880000000  0.5317380000000  0.5119000000000 1.0
C      1  0.4298700000000  0.4682870000000  0.4881410000000 1.0
C      1  0.5573750000000  0.5052870000000  0.4858870000000 1.0
C      1  0.5573820000000  0.4946930000000  0.5140790000000 1.0
C      1  0.4426260000000  0.5053000000000  0.5141160000000 1.0
C      1  0.4426160000000  0.4947200000000  0.4859180000000 1.0
C      1  0.5164860000000  0.4984380000000  0.4088530000000 1.0
C      1  0.5165400000000  0.5015560000000  0.5911370000000 1.0
C      1  0.4835140000000  0.4983940000000  0.5911460000000 1.0
C      1  0.4834610000000  0.5016120000000  0.4088640000000 1.0
C      1  0.4993920000000  0.4337270000000  0.4512710000000 1.0
C      1  0.4994440000000  0.5662740000000  0.5487290000000 1.0
C      1  0.5005850000000  0.4337000000000  0.5486930000000 1.0
C      1  0.5005790000000  0.5663000000000  0.4513070000000 1.0
C      1  0.4252250000000  0.5155590000000  0.4189680000000 1.0
C      1  0.4252680000000  0.4844670000000  0.5810760000000 1.0
C      1  0.5747800000000  0.5154890000000  0.5810410000000 1.0
C      1  0.5747270000000  0.4844850000000  0.4189150000000 1.0
C      1  0.4210480000000  0.5530540000000  0.4447250000000 1.0
C      1  0.4210620000000  0.4469740000000  0.5553210000000 1.0
C      1  0.5789710000000  0.5529960000000  0.5553040000000 1.0
C      1  0.5789200000000  0.4469770000000  0.4446500000000 1.0
C      1  0.5466430000000  0.4121050000000  0.5433520000000 1.0
C      1  0.5466480000000  0.5878790000000  0.4566200000000 1.0
C      1  0.4533260000000  0.4121450000000  0.4566000000000 1.0
C      1  0.4533820000000  0.5878720000000  0.5434270000000 1.0
C      1  0.3830850000000  0.4713320000000  0.5263130000000 1.0
C      1  0.3830800000000  0.5287090000000  0.4737560000000 1.0
C      1  0.6169050000000  0.4713050000000  0.4736720000000 1.0
C      1  0.6169310000000  0.5286540000000  0.5262590000000 1.0
C      1  0.4183730000000  0.4759490000000  0.5538950000000 1.0
C      1  0.4183500000000  0.5240800000000  0.4461530000000 1.0
C      1  0.5816190000000  0.4759490000000  0.4460920000000 1.0
C      1  0.5816590000000  0.5240220000000  0.5538600000000 1.0
C      1  0.5260590000000  0.4719040000000  0.5491110000000 1.0
C      1  0.5260400000000  0.5280870000000  0.4508740000000 1.0
C      1  0.4739310000000  0.4719400000000  0.4508740000000 1.0
C      1  0.4739700000000  0.5280690000000  0.5491410000000 1.0
C      1  0.4706200000000  0.4711250000000  0.5977820000000 1.0
C      1  0.4705720000000  0.5288860000000  0.4022360000000 1.0
C      1  0.5293700000000  0.4711680000000  0.4022020000000 1.0
C      1  0.5294380000000  0.5288220000000  0.5977800000000 1.0
C      1  0.5573370000000  0.5191670000000  0.5323700000000 1.0
C      1  0.5573110000000  0.4808120000000  0.4675960000000 1.0
C      1  0.4426700000000  0.5192050000000  0.4676400000000 1.0
C      1  0.4426820000000  0.4808150000000  0.5323930000000 1.0
C      1  0.5978220000000  0.4662220000000  0.5170890000000 1.0
C      1  0.5978240000000  0.5337440000000  0.4828530000000 1.0
C      1  0.4021660000000  0.4662660000000  0.4828920000000 1.0
C      1  0.4021880000000  0.5337690000000  0.5171650000000 1.0
C      1  0.4516430000000  0.4322580000000  0.4368900000000 1.0
C      1  0.4517040000000  0.5677590000000  0.5631380000000 1.0
C      1  0.5483330000000  0.4322070000000  0.5630730000000 1.0
C      1  0.5483190000000  0.5677760000000  0.4368980000000 1.0
C      1  0.4381080000000  0.4131570000000  0.4808880000000 1.0
C      1  0.4381500000000  0.5868640000000  0.5191490000000 1.0
C      1  0.5618620000000  0.4131250000000  0.5190650000000 1.0
C      1  0.5618810000000  0.5868530000000  0.4808990000000 1.0
C      1  0.6056490000000  0.4902710000000  0.4580210000000 1.0
C      1  0.6056770000000  0.5096920000000  0.5419170000000 1.0
C      1  0.3943470000000  0.4902850000000  0.5419740000000 1.0
C      1  0.3943260000000  0.5097520000000  0.4580880000000 1.0
C      1  0.5346960000000  0.4211660000000  0.5060770000000 1.0
C      1  0.5347200000000  0.5788220000000  0.4939030000000 1.0
C      1  0.4652760000000  0.4211810000000  0.4938800000000 1.0
C      1  0.4653070000000  0.5788310000000  0.5061400000000 1.0
C      1  0.4699100000000  0.4763620000000  0.3998680000000 1.0
C      1  0.4699780000000  0.5236480000000  0.6001500000000 1.0
C      1  0.5300820000000  0.4762970000000  0.6001190000000 1.0
C      1  0.5300310000000  0.5236920000000  0.3998630000000 1.0
END
