TITL C-100361-5798-7 -16.7874780418465 125000 -421.864271690703 0 0 62 (C1) n - 1
REM
REM in /rds/project/t2_vol4/rds-t2-cs072/BORA/CARBON/from-Arr/AIRSS/Generating-Clusters/GAP-ML-2020/Higher-Symm/SD-CG/HFTN-CG
REM
REM
REM
REM
REM
REM ./C.cell (b20cbc046b6831c77cfcea5457e17084)
REM AIRSS Version 0.9.1 bugfix July 2018 build 013d7b7c2542+ Fri, 06 Jul 2018 19:26:36 +0100
REM compiler GCC version 9.3.0
REM options -cpp -mtune=generic -march=x86-64 -g -O0
REM seed -1388444694 -1435646571 217779249 -661384358 -1129856342 -444874847 -1074414315 1355526257 -584601223 -516042723 632339752 714887389 1691539615 -1141266907 1527879231 888098667 -1281852226 -2032393473 47956158 -351428920 2136752756 -1889478693 677533316 1028969708 552032880 -229254549 -1881756236 -1442001481 856837057 1867436341 -865337345 -501530761 176445051
REM
CELL 1.54180   50.00000   50.00000   50.00000   90.00000   90.00000   90.00000
LATT -1
SFAC C  
C      1  0.4914140000000  0.5182030000000  0.5525860000000 1.0
C      1  0.5156930000000  0.4877520000000  0.5700450000000 1.0
C      1  0.4883800000000  0.4936050000000  0.4840790000000 1.0
C      1  0.5181990000000  0.4972130000000  0.4891830000000 1.0
C      1  0.4446790000000  0.5272620000000  0.4668900000000 1.0
C      1  0.5426120000000  0.4795690000000  0.4765170000000 1.0
C      1  0.4589360000000  0.5509900000000  0.4661230000000 1.0
C      1  0.5373030000000  0.4514050000000  0.4717260000000 1.0
C      1  0.4929080000000  0.5678510000000  0.4841640000000 1.0
C      1  0.5073140000000  0.4279560000000  0.4861340000000 1.0
C      1  0.4347930000000  0.4846150000000  0.4496890000000 1.0
C      1  0.5673270000000  0.5106380000000  0.4508340000000 1.0
C      1  0.5622900000000  0.4658800000000  0.5211550000000 1.0
C      1  0.4362360000000  0.5365330000000  0.5155490000000 1.0
C      1  0.4710180000000  0.5592010000000  0.5362130000000 1.0
C      1  0.5244160000000  0.4525380000000  0.5408150000000 1.0
C      1  0.5590910000000  0.4796540000000  0.5471440000000 1.0
C      1  0.4436200000000  0.5247450000000  0.5409010000000 1.0
C      1  0.4770560000000  0.5090090000000  0.5042960000000 1.0
C      1  0.5182660000000  0.4968130000000  0.5189000000000 1.0
C      1  0.5067350000000  0.5363770000000  0.4524360000000 1.0
C      1  0.4930670000000  0.4561790000000  0.4502500000000 1.0
C      1  0.4290880000000  0.4754120000000  0.4753690000000 1.0
C      1  0.5714130000000  0.5230790000000  0.4761690000000 1.0
C      1  0.4524390000000  0.5056840000000  0.4478520000000 1.0
C      1  0.5462800000000  0.4933230000000  0.4496420000000 1.0
C      1  0.4688460000000  0.5369370000000  0.5516130000000 1.0
C      1  0.5357410000000  0.4700520000000  0.5604660000000 1.0
C      1  0.5424670000000  0.4445950000000  0.5202950000000 1.0
C      1  0.4538990000000  0.5596690000000  0.5141300000000 1.0
C      1  0.4609230000000  0.4768910000000  0.5511050000000 1.0
C      1  0.5420390000000  0.5265610000000  0.5551550000000 1.0
C      1  0.5756030000000  0.5072930000000  0.5004580000000 1.0
C      1  0.4244760000000  0.4938780000000  0.4970860000000 1.0
C      1  0.4647080000000  0.5664110000000  0.4901470000000 1.0
C      1  0.5336490000000  0.4355280000000  0.4958820000000 1.0
C      1  0.4495320000000  0.4569350000000  0.4809620000000 1.0
C      1  0.5496550000000  0.5393960000000  0.4821060000000 1.0
C      1  0.5212020000000  0.5292190000000  0.4773470000000 1.0
C      1  0.4786960000000  0.4640240000000  0.4749450000000 1.0
C      1  0.4962070000000  0.5161360000000  0.5235650000000 1.0
C      1  0.5052290000000  0.4726820000000  0.5329430000000 1.0
C      1  0.4309190000000  0.5213480000000  0.4920320000000 1.0
C      1  0.5653050000000  0.4810090000000  0.4976300000000 1.0
C      1  0.5401700000000  0.5531250000000  0.5068460000000 1.0
C      1  0.4586810000000  0.4452300000000  0.5064380000000 1.0
C      1  0.4401030000000  0.4978470000000  0.5450930000000 1.0
C      1  0.5635070000000  0.5067380000000  0.5491880000000 1.0
C      1  0.4972830000000  0.4784390000000  0.4339580000000 1.0
C      1  0.5029290000000  0.5170930000000  0.4326280000000 1.0
C      1  0.5180860000000  0.5158860000000  0.5652330000000 1.0
C      1  0.4883780000000  0.4845830000000  0.5555600000000 1.0
C      1  0.4865370000000  0.5545970000000  0.4579070000000 1.0
C      1  0.5145250000000  0.4397830000000  0.4585150000000 1.0
C      1  0.4502980000000  0.4612030000000  0.5281770000000 1.0
C      1  0.5491800000000  0.5406760000000  0.5299900000000 1.0
C      1  0.5215690000000  0.4937790000000  0.4342900000000 1.0
C      1  0.4786910000000  0.5017440000000  0.4349150000000 1.0
C      1  0.5707320000000  0.5203020000000  0.5250850000000 1.0
C      1  0.4309360000000  0.4831160000000  0.5223290000000 1.0
C      1  0.4854140000000  0.4418700000000  0.4951700000000 1.0
C      1  0.5133120000000  0.5539370000000  0.4961440000000 1.0
END
