TITL C-109996-9515-12 0.0411945644993791 125000 -210.337206328452 0 0 32 (C2h) n - 1
REM
REM in /rds/project/t2_vol4/rds-t2-cs072/BORA/CARBON/from-Arr/AIRSS/Generating-Clusters/GAP-ML-2020/Higher-Symm/SD-CG/HFTN-CG
REM
REM
REM
REM
REM
REM ./C.cell (b20cbc046b6831c77cfcea5457e17084)
REM AIRSS Version 0.9.1 bugfix July 2018 build 013d7b7c2542+ Fri, 06 Jul 2018 19:26:36 +0100
REM compiler GCC version 9.3.0
REM options -cpp -mtune=generic -march=x86-64 -g -O0
REM seed 322822461 1520457370 -1940888044 -666780363 -1877438308 419997541 227578096 -1528475316 -365746878 1644400387 -960182280 -1325700326 1812025084 -1977575472 902090441 1988122727 -1962100345 -371902747 755290656 -2057142447 1512141128 1134487675 -1195151817 -1607103527 679021666 -1088189358 281767788 231053119 1425943575 1172585762 -889708231 2016544933 2024219566
REM
CELL 1.54180   50.00000   50.00000   50.00000   90.00000   90.00000   90.00000
LATT -1
SFAC C  
C      1  0.4719630000000  0.4712920000000  0.5249210000000 1.0
C      1  0.5280840000000  0.4709880000000  0.4754880000000 1.0
C      1  0.4719160000000  0.5290120000000  0.5245120000000 1.0
C      1  0.5280370000000  0.5287080000000  0.4750790000000 1.0
C      1  0.4728810000000  0.5144330000000  0.4758770000000 1.0
C      1  0.5270950000000  0.5148190000000  0.5239160000000 1.0
C      1  0.4729050000000  0.4851810000000  0.4760840000000 1.0
C      1  0.5271190000000  0.4855670000000  0.5241230000000 1.0
C      1  0.4661310000000  0.4853560000000  0.4275100000000 1.0
C      1  0.5338920000000  0.4864410000000  0.5726900000000 1.0
C      1  0.4661080000000  0.5135590000000  0.4273100000000 1.0
C      1  0.5338690000000  0.5146440000000  0.5724900000000 1.0
C      1  0.5173280000000  0.5137950000000  0.4319930000000 1.0
C      1  0.4826480000000  0.5147290000000  0.5678050000000 1.0
C      1  0.5173520000000  0.4852710000000  0.4321950000000 1.0
C      1  0.4826720000000  0.4862050000000  0.5680070000000 1.0
C      1  0.5341140000000  0.4712440000000  0.4511150000000 1.0
C      1  0.4659330000000  0.4718840000000  0.5492880000000 1.0
C      1  0.5340670000000  0.5281160000000  0.4507120000000 1.0
C      1  0.4658860000000  0.5287560000000  0.5488850000000 1.0
C      1  0.4732760000000  0.4719050000000  0.4513960000000 1.0
C      1  0.5267700000000  0.4726410000000  0.5489970000000 1.0
C      1  0.4732300000000  0.5273590000000  0.4510030000000 1.0
C      1  0.5267240000000  0.5280950000000  0.5486040000000 1.0
C      1  0.5149790000000  0.5270950000000  0.4992180000000 1.0
C      1  0.4849770000000  0.5270790000000  0.5003980000000 1.0
C      1  0.5150230000000  0.4729210000000  0.4996020000000 1.0
C      1  0.4850210000000  0.4729050000000  0.5007820000000 1.0
C      1  0.4910390000000  0.5264280000000  0.4284740000000 1.0
C      1  0.5089160000000  0.5274540000000  0.5711440000000 1.0
C      1  0.4910840000000  0.4725460000000  0.4288560000000 1.0
C      1  0.5089610000000  0.4735720000000  0.5715260000000 1.0
END
