TITL C-109528-6449-10 466.443807880429 125000 -1254.50437113769 0 0 177 (C1) n - 1
REM
REM in /rds/project/t2_vol4/rds-t2-cs072/BORA/CARBON/from-Arr/AIRSS/Generating-Clusters/GAP-ML-2020/Higher-Symm/SD-CG/HFTN-CG
REM
REM
REM
REM
REM
REM ./C.cell (b20cbc046b6831c77cfcea5457e17084)
REM AIRSS Version 0.9.1 bugfix July 2018 build 013d7b7c2542+ Fri, 06 Jul 2018 19:26:36 +0100
REM compiler GCC version 9.3.0
REM options -cpp -mtune=generic -march=x86-64 -g -O0
REM seed -882477217 82686604 -359105358 1069498578 648645914 375909667 1277799428 1482169476 -1261786562 346249471 -1254512557 -1360267334 778336455 2006921051 -949974600 -1254113379 -352103772 1885517674 -1149849624 1510593272 -1780736676 -1923257170 -1369370986 -136811769 1485373566 -266050983 352804538 920277868 852911551 2086192373 -866393057 958841440 1475913554
REM
CELL 1.54180   50.00000   50.00000   50.00000   90.00000   90.00000   90.00000
LATT -1
SFAC C  
C      1  0.4282480000000  0.5482310000000  0.4458920000000 1.0
C      1  0.5090520000000  0.5527890000000  0.4085710000000 1.0
C      1  0.5711620000000  0.5460130000000  0.4366110000000 1.0
C      1  0.5896060000000  0.5503010000000  0.5223070000000 1.0
C      1  0.5306120000000  0.5526420000000  0.5836600000000 1.0
C      1  0.4619750000000  0.5472340000000  0.5826380000000 1.0
C      1  0.4135520000000  0.5474370000000  0.5238840000000 1.0
C      1  0.5230940000000  0.3971990000000  0.5234760000000 1.0
C      1  0.4964080000000  0.3965710000000  0.5335380000000 1.0
C      1  0.4712440000000  0.3964370000000  0.5180850000000 1.0
C      1  0.4681080000000  0.3966250000000  0.4896710000000 1.0
C      1  0.4890310000000  0.3977940000000  0.4691910000000 1.0
C      1  0.5181110000000  0.3968110000000  0.4702450000000 1.0
C      1  0.5322210000000  0.3975140000000  0.4956570000000 1.0
C      1  0.3957100000000  0.4594080000000  0.4817940000000 1.0
C      1  0.4494270000000  0.4622980000000  0.4070300000000 1.0
C      1  0.5400090000000  0.4609770000000  0.4044280000000 1.0
C      1  0.6018660000000  0.4595580000000  0.4717230000000 1.0
C      1  0.5845860000000  0.4623900000000  0.5620360000000 1.0
C      1  0.5039230000000  0.4623430000000  0.6028010000000 1.0
C      1  0.4198670000000  0.4621430000000  0.5687860000000 1.0
C      1  0.5950280000000  0.4979120000000  0.4352710000000 1.0
C      1  0.6063800000000  0.5018150000000  0.5319140000000 1.0
C      1  0.5376480000000  0.5045030000000  0.6019620000000 1.0
C      1  0.4410780000000  0.5020210000000  0.5955690000000 1.0
C      1  0.3873400000000  0.4997680000000  0.5163310000000 1.0
C      1  0.4172480000000  0.5010660000000  0.4256200000000 1.0
C      1  0.5092010000000  0.5036720000000  0.3910680000000 1.0
C      1  0.4724430000000  0.5020250000000  0.5232270000000 1.0
C      1  0.4639220000000  0.5037600000000  0.4923180000000 1.0
C      1  0.4832310000000  0.5047920000000  0.4654370000000 1.0
C      1  0.5154280000000  0.5039150000000  0.4661190000000 1.0
C      1  0.5374270000000  0.5056290000000  0.4908800000000 1.0
C      1  0.5305070000000  0.5059160000000  0.5231300000000 1.0
C      1  0.5016230000000  0.5034450000000  0.5367360000000 1.0
C      1  0.4080810000000  0.5535800000000  0.4774230000000 1.0
C      1  0.4596970000000  0.5566830000000  0.4156900000000 1.0
C      1  0.5539690000000  0.5551300000000  0.4139520000000 1.0
C      1  0.5947660000000  0.5544320000000  0.4746470000000 1.0
C      1  0.5727240000000  0.5558170000000  0.5620840000000 1.0
C      1  0.4867270000000  0.5566930000000  0.5974290000000 1.0
C      1  0.4226640000000  0.5558250000000  0.5522190000000 1.0
C      1  0.5303760000000  0.5697590000000  0.4204720000000 1.0
C      1  0.5753010000000  0.5664760000000  0.4574540000000 1.0
C      1  0.5740510000000  0.5696160000000  0.5372870000000 1.0
C      1  0.5067600000000  0.5702740000000  0.5824550000000 1.0
C      1  0.4516520000000  0.5637110000000  0.5571630000000 1.0
C      1  0.4207230000000  0.5654760000000  0.4998210000000 1.0
C      1  0.4485300000000  0.5671010000000  0.4400320000000 1.0
C      1  0.5764840000000  0.4281380000000  0.4932710000000 1.0
C      1  0.5567900000000  0.4276550000000  0.5520370000000 1.0
C      1  0.4892910000000  0.4275810000000  0.5764400000000 1.0
C      1  0.4358170000000  0.4269590000000  0.5441690000000 1.0
C      1  0.4276190000000  0.4274450000000  0.4727620000000 1.0
C      1  0.4706520000000  0.4278860000000  0.4281510000000 1.0
C      1  0.5403910000000  0.4257810000000  0.4334110000000 1.0
C      1  0.4850240000000  0.5475310000000  0.4209800000000 1.0
C      1  0.5506590000000  0.5216680000000  0.4383760000000 1.0
C      1  0.5827620000000  0.5424230000000  0.4966920000000 1.0
C      1  0.5464600000000  0.5458800000000  0.5616020000000 1.0
C      1  0.4813900000000  0.5231410000000  0.5775250000000 1.0
C      1  0.4269560000000  0.5215490000000  0.5359200000000 1.0
C      1  0.4287540000000  0.5353270000000  0.4708330000000 1.0
C      1  0.4747570000000  0.4716890000000  0.5596550000000 1.0
C      1  0.4369870000000  0.4709090000000  0.5175200000000 1.0
C      1  0.4461910000000  0.4732840000000  0.4610570000000 1.0
C      1  0.4963310000000  0.4718590000000  0.4343830000000 1.0
C      1  0.5497230000000  0.4726050000000  0.4558420000000 1.0
C      1  0.5658410000000  0.4743120000000  0.5111960000000 1.0
C      1  0.5319030000000  0.4712110000000  0.5567030000000 1.0
C      1  0.4369640000000  0.4878750000000  0.4087050000000 1.0
C      1  0.5328430000000  0.4883100000000  0.3983050000000 1.0
C      1  0.6061980000000  0.4847430000000  0.4585280000000 1.0
C      1  0.5954490000000  0.4878420000000  0.5553550000000 1.0
C      1  0.5131810000000  0.4894800000000  0.6055810000000 1.0
C      1  0.4224710000000  0.4889300000000  0.5784570000000 1.0
C      1  0.3864520000000  0.4853880000000  0.4912180000000 1.0
C      1  0.3931710000000  0.5275410000000  0.5110110000000 1.0
C      1  0.4249320000000  0.5287350000000  0.4244170000000 1.0
C      1  0.5194570000000  0.5313560000000  0.3924960000000 1.0
C      1  0.5949130000000  0.5261210000000  0.4405790000000 1.0
C      1  0.6008080000000  0.5293460000000  0.5383240000000 1.0
C      1  0.5278490000000  0.5324990000000  0.6037420000000 1.0
C      1  0.4385860000000  0.5306100000000  0.5894460000000 1.0
C      1  0.5234350000000  0.4396620000000  0.4136160000000 1.0
C      1  0.5823050000000  0.4389460000000  0.4664870000000 1.0
C      1  0.5800060000000  0.4417910000000  0.5433520000000 1.0
C      1  0.5139840000000  0.4399780000000  0.5868260000000 1.0
C      1  0.4391720000000  0.4412780000000  0.5685790000000 1.0
C      1  0.4113020000000  0.4383720000000  0.4948820000000 1.0
C      1  0.4457680000000  0.4415500000000  0.4259210000000 1.0
C      1  0.4672970000000  0.4476640000000  0.5780910000000 1.0
C      1  0.4207120000000  0.4451580000000  0.5236390000000 1.0
C      1  0.4299440000000  0.4479760000000  0.4509730000000 1.0
C      1  0.4935320000000  0.4465030000000  0.4174860000000 1.0
C      1  0.5618480000000  0.4455830000000  0.4438920000000 1.0
C      1  0.5838490000000  0.4485350000000  0.5139900000000 1.0
C      1  0.5402460000000  0.4460530000000  0.5711720000000 1.0
C      1  0.4765840000000  0.4654530000000  0.3995110000000 1.0
C      1  0.5650150000000  0.4614990000000  0.4181470000000 1.0
C      1  0.6056000000000  0.4639650000000  0.4995130000000 1.0
C      1  0.5629840000000  0.4654700000000  0.5803580000000 1.0
C      1  0.4753800000000  0.4643150000000  0.6016100000000 1.0
C      1  0.4056850000000  0.4629350000000  0.5444710000000 1.0
C      1  0.4039840000000  0.4632070000000  0.4549940000000 1.0
C      1  0.5259560000000  0.4582910000000  0.5167840000000 1.0
C      1  0.5025690000000  0.4556240000000  0.5293320000000 1.0
C      1  0.4778110000000  0.4549590000000  0.5190370000000 1.0
C      1  0.4694640000000  0.4556390000000  0.4936070000000 1.0
C      1  0.4856100000000  0.4574470000000  0.4727700000000 1.0
C      1  0.5123080000000  0.4567070000000  0.4718910000000 1.0
C      1  0.5311930000000  0.4570530000000  0.4908740000000 1.0
C      1  0.5471880000000  0.5320430000000  0.3974230000000 1.0
C      1  0.6069590000000  0.5303260000000  0.4655110000000 1.0
C      1  0.5894580000000  0.5323480000000  0.5640980000000 1.0
C      1  0.5003920000000  0.5341100000000  0.6105430000000 1.0
C      1  0.4177720000000  0.5347780000000  0.5709710000000 1.0
C      1  0.3923080000000  0.5305040000000  0.4831370000000 1.0
C      1  0.4459080000000  0.5328620000000  0.4062420000000 1.0
C      1  0.5206150000000  0.4775880000000  0.4522500000000 1.0
C      1  0.5517020000000  0.4790560000000  0.4854270000000 1.0
C      1  0.5428530000000  0.4792210000000  0.5301490000000 1.0
C      1  0.5027310000000  0.4768130000000  0.5511520000000 1.0
C      1  0.4615900000000  0.4754100000000  0.5332220000000 1.0
C      1  0.4482650000000  0.4774650000000  0.4901390000000 1.0
C      1  0.4750790000000  0.4783400000000  0.4537210000000 1.0
C      1  0.3893960000000  0.5040500000000  0.4701360000000 1.0
C      1  0.4558750000000  0.5065630000000  0.3981020000000 1.0
C      1  0.5539350000000  0.5058100000000  0.4097450000000 1.0
C      1  0.6127610000000  0.5040590000000  0.4783290000000 1.0
C      1  0.5832590000000  0.5059480000000  0.5740590000000 1.0
C      1  0.4893360000000  0.5076570000000  0.6044830000000 1.0
C      1  0.4104310000000  0.5072950000000  0.5589960000000 1.0
C      1  0.5581010000000  0.4092030000000  0.5037640000000 1.0
C      1  0.5485030000000  0.4095830000000  0.5320210000000 1.0
C      1  0.4826290000000  0.4084170000000  0.5568070000000 1.0
C      1  0.4569980000000  0.4085950000000  0.5409840000000 1.0
C      1  0.4486300000000  0.4086270000000  0.4707100000000 1.0
C      1  0.4700830000000  0.4095550000000  0.4498660000000 1.0
C      1  0.5323840000000  0.4050060000000  0.4483940000000 1.0
C      1  0.4692130000000  0.5872300000000  0.5499930000000 1.0
C      1  0.4494640000000  0.5749090000000  0.4925800000000 1.0
C      1  0.4653770000000  0.5741150000000  0.4637520000000 1.0
C      1  0.5261050000000  0.5777350000000  0.4492160000000 1.0
C      1  0.5497190000000  0.5776190000000  0.4697040000000 1.0
C      1  0.5492800000000  0.5784320000000  0.5254180000000 1.0
C      1  0.4983880000000  0.5789810000000  0.5552900000000 1.0
C      1  0.5619090000000  0.4933420000000  0.5893730000000 1.0
C      1  0.4655150000000  0.4908640000000  0.6064510000000 1.0
C      1  0.3946560000000  0.4891300000000  0.5415480000000 1.0
C      1  0.4007090000000  0.4905530000000  0.4468690000000 1.0
C      1  0.4815350000000  0.4934440000000  0.3925160000000 1.0
C      1  0.5762190000000  0.4877690000000  0.4166080000000 1.0
C      1  0.6120130000000  0.4915370000000  0.5050250000000 1.0
C      1  0.5064570000000  0.5987520000000  0.5324090000000 1.0
C      1  0.4779860000000  0.6004290000000  0.5256590000000 1.0
C      1  0.4677970000000  0.5983360000000  0.4989650000000 1.0
C      1  0.4822700000000  0.5975630000000  0.4738240000000 1.0
C      1  0.5111150000000  0.5977510000000  0.4677530000000 1.0
C      1  0.5321560000000  0.5980430000000  0.4867740000000 1.0
C      1  0.5311510000000  0.5989960000000  0.5163830000000 1.0
C      1  0.4651370000000  0.5478320000000  0.5353290000000 1.0
C      1  0.4608340000000  0.5503640000000  0.5057290000000 1.0
C      1  0.4881490000000  0.5505960000000  0.4675120000000 1.0
C      1  0.5178160000000  0.5509660000000  0.4618880000000 1.0
C      1  0.5391110000000  0.5529300000000  0.4842920000000 1.0
C      1  0.5355640000000  0.5536640000000  0.5142630000000 1.0
C      1  0.4946000000000  0.5502930000000  0.5412850000000 1.0
C      1  0.5427200000000  0.5315830000000  0.5332650000000 1.0
C      1  0.5001600000000  0.5255200000000  0.5559390000000 1.0
C      1  0.4557130000000  0.5206220000000  0.5377330000000 1.0
C      1  0.4474700000000  0.5279650000000  0.4914960000000 1.0
C      1  0.4795470000000  0.5297870000000  0.4496900000000 1.0
C      1  0.5245620000000  0.5254240000000  0.4488230000000 1.0
C      1  0.5558700000000  0.5298250000000  0.4864740000000 1.0
C      1  0.4881920000000  0.5462780000000  0.4959820000000 1.0
C      1  0.5067890000000  0.5509330000000  0.5150890000000 1.0
END
