TITL C-107699-8575-2 506.843863007241 125000 -1225.49335691289 0 0 180 (C1) n - 1
REM
REM in /rds/project/t2_vol4/rds-t2-cs072/BORA/CARBON/from-Arr/AIRSS/Generating-Clusters/GAP-ML-2020/Higher-Symm/SD-CG/HFTN-CG/C160-200
REM
REM
REM
REM
REM
REM ./C.cell (6b4489405718ea1b717e0baf1da4c2d9)
REM AIRSS Version 0.9.1 bugfix July 2018 build 013d7b7c2542+ Fri, 06 Jul 2018 19:26:36 +0100
REM compiler GCC version 9.3.0
REM options -cpp -mtune=generic -march=x86-64 -g -O0
REM seed 1164526747 -1640073894 -1449182328 -1468648348 363854713 -1130121522 -937913997 -1861798108 -33472977 1203099792 -609310305 -1535243149 -640379369 227213551 -572576464 -1889206671 295185470 1899284856 815268803 1301689349 973351769 -220011717 -1128626474 1344641102 -1142655095 -1520850381 -778260665 -83225457 -1635102714 -937598039 -1702238654 17933546 1988511786
REM
CELL 1.54180   50.00000   50.00000   50.00000   90.00000   90.00000   90.00000
LATT -1
SFAC C  
C      1  0.5177060000000  0.5165630000000  0.4778230000000 1.0
C      1  0.5257810000000  0.5170340000000  0.5097080000000 1.0
C      1  0.4982890000000  0.5160010000000  0.5303300000000 1.0
C      1  0.4702380000000  0.5156260000000  0.5077870000000 1.0
C      1  0.4848350000000  0.5168360000000  0.4771650000000 1.0
C      1  0.5211590000000  0.5003980000000  0.5320350000000 1.0
C      1  0.5370700000000  0.5003530000000  0.4906720000000 1.0
C      1  0.5015810000000  0.5000320000000  0.4617850000000 1.0
C      1  0.4642120000000  0.5002750000000  0.4852590000000 1.0
C      1  0.4750100000000  0.5006360000000  0.5304420000000 1.0
C      1  0.5283720000000  0.4609000000000  0.4607740000000 1.0
C      1  0.5462040000000  0.4603310000000  0.5148110000000 1.0
C      1  0.5001200000000  0.4609350000000  0.5485570000000 1.0
C      1  0.4536470000000  0.4612840000000  0.5151300000000 1.0
C      1  0.4710840000000  0.4602730000000  0.4607620000000 1.0
C      1  0.5250260000000  0.4698530000000  0.5351880000000 1.0
C      1  0.5412050000000  0.4702190000000  0.4872760000000 1.0
C      1  0.5002820000000  0.4696450000000  0.4569100000000 1.0
C      1  0.4588830000000  0.4703460000000  0.4859330000000 1.0
C      1  0.4739140000000  0.4704720000000  0.5350400000000 1.0
C      1  0.5450470000000  0.5523280000000  0.4844420000000 1.0
C      1  0.5261070000000  0.5533710000000  0.5364500000000 1.0
C      1  0.4721630000000  0.5517100000000  0.5384270000000 1.0
C      1  0.4553730000000  0.5525440000000  0.4868610000000 1.0
C      1  0.4997390000000  0.5536760000000  0.4550150000000 1.0
C      1  0.5406280000000  0.5414410000000  0.5129010000000 1.0
C      1  0.5259880000000  0.5407960000000  0.4636140000000 1.0
C      1  0.4753590000000  0.5412440000000  0.4662370000000 1.0
C      1  0.4564170000000  0.5399360000000  0.5138660000000 1.0
C      1  0.5000720000000  0.5408020000000  0.5452140000000 1.0
C      1  0.5678730000000  0.5328370000000  0.5281790000000 1.0
C      1  0.5047580000000  0.5332540000000  0.5753640000000 1.0
C      1  0.4280770000000  0.5323840000000  0.5255300000000 1.0
C      1  0.4618690000000  0.5318940000000  0.4366210000000 1.0
C      1  0.5396670000000  0.5330070000000  0.4365710000000 1.0
C      1  0.5701620000000  0.5360800000000  0.4786960000000 1.0
C      1  0.4911820000000  0.5337580000000  0.4269050000000 1.0
C      1  0.4315580000000  0.5365460000000  0.4751580000000 1.0
C      1  0.4573690000000  0.5358620000000  0.5610440000000 1.0
C      1  0.5497030000000  0.5343310000000  0.5542260000000 1.0
C      1  0.4974780000000  0.4075860000000  0.4536580000000 1.0
C      1  0.5435430000000  0.4081840000000  0.4831140000000 1.0
C      1  0.5291170000000  0.4076620000000  0.5359330000000 1.0
C      1  0.4744840000000  0.4084160000000  0.5389220000000 1.0
C      1  0.4546700000000  0.4085250000000  0.4879080000000 1.0
C      1  0.5031670000000  0.4105260000000  0.5452110000000 1.0
C      1  0.5442740000000  0.4099400000000  0.5107690000000 1.0
C      1  0.5239940000000  0.4104430000000  0.4612440000000 1.0
C      1  0.4703990000000  0.4099210000000  0.4651020000000 1.0
C      1  0.4575150000000  0.4108150000000  0.5170940000000 1.0
C      1  0.4554420000000  0.5789270000000  0.4263120000000 1.0
C      1  0.5364950000000  0.5791780000000  0.4135490000000 1.0
C      1  0.5906440000000  0.5804180000000  0.5186380000000 1.0
C      1  0.5210610000000  0.5799360000000  0.5909810000000 1.0
C      1  0.4076620000000  0.5777750000000  0.5381200000000 1.0
C      1  0.4383270000000  0.5780610000000  0.5801950000000 1.0
C      1  0.5487270000000  0.5801490000000  0.5784970000000 1.0
C      1  0.5944980000000  0.5782220000000  0.4885680000000 1.0
C      1  0.5064910000000  0.5794190000000  0.4071380000000 1.0
C      1  0.4098850000000  0.5763140000000  0.4580120000000 1.0
C      1  0.5867740000000  0.4643400000000  0.4581990000000 1.0
C      1  0.5669660000000  0.4625390000000  0.5698480000000 1.0
C      1  0.4545950000000  0.4637730000000  0.5854370000000 1.0
C      1  0.4050330000000  0.4648010000000  0.4825050000000 1.0
C      1  0.4869430000000  0.4624460000000  0.4040590000000 1.0
C      1  0.5877900000000  0.4639540000000  0.5434050000000 1.0
C      1  0.5681250000000  0.4652350000000  0.4305640000000 1.0
C      1  0.4545540000000  0.4638690000000  0.4130550000000 1.0
C      1  0.4035950000000  0.4653250000000  0.5158330000000 1.0
C      1  0.4862070000000  0.4647850000000  0.5966860000000 1.0
C      1  0.5027750000000  0.5974000000000  0.4281090000000 1.0
C      1  0.5736770000000  0.5964190000000  0.4841120000000 1.0
C      1  0.5386230000000  0.5980710000000  0.5593930000000 1.0
C      1  0.4479710000000  0.5910290000000  0.5585700000000 1.0
C      1  0.4311730000000  0.5905130000000  0.4658260000000 1.0
C      1  0.5110470000000  0.5997870000000  0.5704640000000 1.0
C      1  0.5699120000000  0.6009610000000  0.5140160000000 1.0
C      1  0.5328070000000  0.5988650000000  0.4346950000000 1.0
C      1  0.4518910000000  0.5986180000000  0.4471120000000 1.0
C      1  0.4301280000000  0.5954030000000  0.5343900000000 1.0
C      1  0.4217140000000  0.4974200000000  0.4247330000000 1.0
C      1  0.5458320000000  0.4958080000000  0.4010190000000 1.0
C      1  0.6074340000000  0.4974850000000  0.5143640000000 1.0
C      1  0.5213250000000  0.4957660000000  0.6072690000000 1.0
C      1  0.4041170000000  0.4959860000000  0.5533200000000 1.0
C      1  0.4114580000000  0.4918890000000  0.5794420000000 1.0
C      1  0.5480420000000  0.4902400000000  0.6090080000000 1.0
C      1  0.6170520000000  0.4935480000000  0.4888610000000 1.0
C      1  0.5253430000000  0.4903380000000  0.3838260000000 1.0
C      1  0.3989450000000  0.4946390000000  0.4399650000000 1.0
C      1  0.6111220000000  0.4961660000000  0.5682350000000 1.0
C      1  0.4708910000000  0.4972040000000  0.6270290000000 1.0
C      1  0.3709620000000  0.4983930000000  0.5103530000000 1.0
C      1  0.4504330000000  0.4963080000000  0.3793650000000 1.0
C      1  0.5980160000000  0.4982460000000  0.4153200000000 1.0
C      1  0.6119420000000  0.4977390000000  0.4372940000000 1.0
C      1  0.4750870000000  0.4942840000000  0.3716480000000 1.0
C      1  0.3724550000000  0.4984660000000  0.4843960000000 1.0
C      1  0.4466930000000  0.4963980000000  0.6174710000000 1.0
C      1  0.5956260000000  0.4944550000000  0.5889270000000 1.0
C      1  0.4988130000000  0.5849990000000  0.4564050000000 1.0
C      1  0.5451780000000  0.5840920000000  0.4833890000000 1.0
C      1  0.5256850000000  0.5842420000000  0.5341410000000 1.0
C      1  0.4716710000000  0.5840280000000  0.5386400000000 1.0
C      1  0.4541850000000  0.5843270000000  0.4877390000000 1.0
C      1  0.4982350000000  0.5940000000000  0.5455680000000 1.0
C      1  0.5423270000000  0.5942160000000  0.5126530000000 1.0
C      1  0.5282410000000  0.5935930000000  0.4618370000000 1.0
C      1  0.4733440000000  0.5963190000000  0.4665530000000 1.0
C      1  0.4523910000000  0.5931470000000  0.5159310000000 1.0
C      1  0.3894030000000  0.4859130000000  0.4654270000000 1.0
C      1  0.4981290000000  0.4822940000000  0.3832070000000 1.0
C      1  0.6098160000000  0.4850210000000  0.4626620000000 1.0
C      1  0.5702650000000  0.4823770000000  0.5933140000000 1.0
C      1  0.4332130000000  0.4837890000000  0.5959800000000 1.0
C      1  0.3869960000000  0.4857160000000  0.5293550000000 1.0
C      1  0.4937870000000  0.4853820000000  0.6163640000000 1.0
C      1  0.6087080000000  0.4850540000000  0.5427190000000 1.0
C      1  0.5735580000000  0.4858740000000  0.4101880000000 1.0
C      1  0.4372130000000  0.4849360000000  0.4011830000000 1.0
C      1  0.4048160000000  0.4273210000000  0.5514160000000 1.0
C      1  0.4211840000000  0.4260900000000  0.4255270000000 1.0
C      1  0.5470910000000  0.4264940000000  0.4026090000000 1.0
C      1  0.6072870000000  0.4259620000000  0.5137990000000 1.0
C      1  0.5195100000000  0.4260000000000  0.6063660000000 1.0
C      1  0.4072140000000  0.4261630000000  0.4470220000000 1.0
C      1  0.4209260000000  0.4261350000000  0.5713190000000 1.0
C      1  0.5434100000000  0.4246810000000  0.5972080000000 1.0
C      1  0.6059710000000  0.4257720000000  0.4882010000000 1.0
C      1  0.5223830000000  0.4248270000000  0.3959500000000 1.0
C      1  0.4182600000000  0.5527840000000  0.5432010000000 1.0
C      1  0.4443790000000  0.5543690000000  0.4321360000000 1.0
C      1  0.5339290000000  0.5512300000000  0.4160000000000 1.0
C      1  0.5878770000000  0.5519770000000  0.5199650000000 1.0
C      1  0.5215840000000  0.5517530000000  0.5879340000000 1.0
C      1  0.4238040000000  0.5531260000000  0.4528990000000 1.0
C      1  0.4356140000000  0.5534710000000  0.5673270000000 1.0
C      1  0.5502770000000  0.5516690000000  0.5777280000000 1.0
C      1  0.5916060000000  0.5498880000000  0.4906280000000 1.0
C      1  0.5045620000000  0.5511720000000  0.4078840000000 1.0
C      1  0.5047290000000  0.5066070000000  0.4324980000000 1.0
C      1  0.5659340000000  0.5080260000000  0.4868470000000 1.0
C      1  0.5359970000000  0.5069040000000  0.5575800000000 1.0
C      1  0.4546840000000  0.5076890000000  0.5520020000000 1.0
C      1  0.4386810000000  0.5084330000000  0.4712140000000 1.0
C      1  0.5140010000000  0.5047640000000  0.5790690000000 1.0
C      1  0.5775650000000  0.5047970000000  0.5149780000000 1.0
C      1  0.5350940000000  0.5045480000000  0.4282140000000 1.0
C      1  0.4459850000000  0.5048130000000  0.4418460000000 1.0
C      1  0.4281400000000  0.5044760000000  0.5368290000000 1.0
C      1  0.5598340000000  0.4334350000000  0.5239510000000 1.0
C      1  0.4957900000000  0.4342610000000  0.5640920000000 1.0
C      1  0.4374970000000  0.4346490000000  0.5157030000000 1.0
C      1  0.4655810000000  0.4333680000000  0.4452440000000 1.0
C      1  0.5410120000000  0.4343400000000  0.4505660000000 1.0
C      1  0.5624920000000  0.4254520000000  0.4685400000000 1.0
C      1  0.4893740000000  0.4243440000000  0.4307750000000 1.0
C      1  0.4308000000000  0.4258670000000  0.4884700000000 1.0
C      1  0.4678610000000  0.4253330000000  0.5621510000000 1.0
C      1  0.5491390000000  0.4244510000000  0.5496550000000 1.0
C      1  0.5560130000000  0.4351540000000  0.5743060000000 1.0
C      1  0.4466840000000  0.4362790000000  0.5763670000000 1.0
C      1  0.4108800000000  0.4370630000000  0.4726220000000 1.0
C      1  0.4985160000000  0.4350810000000  0.4068720000000 1.0
C      1  0.5879050000000  0.4366100000000  0.4695860000000 1.0
C      1  0.5562060000000  0.4391990000000  0.4252890000000 1.0
C      1  0.4458700000000  0.4378420000000  0.4228040000000 1.0
C      1  0.4102370000000  0.4393580000000  0.5272480000000 1.0
C      1  0.4986930000000  0.4386850000000  0.5935820000000 1.0
C      1  0.5889940000000  0.4378790000000  0.5304910000000 1.0
C      1  0.5653050000000  0.4815770000000  0.4703010000000 1.0
C      1  0.5489510000000  0.4795700000000  0.5529080000000 1.0
C      1  0.4650430000000  0.4811760000000  0.5634680000000 1.0
C      1  0.4294320000000  0.4818950000000  0.4854380000000 1.0
C      1  0.4914480000000  0.4793660000000  0.4284630000000 1.0
C      1  0.5666220000000  0.4794340000000  0.5279160000000 1.0
C      1  0.5465970000000  0.4809130000000  0.4456420000000 1.0
C      1  0.4624330000000  0.4793570000000  0.4381140000000 1.0
C      1  0.4298030000000  0.4810470000000  0.5163280000000 1.0
C      1  0.4946530000000  0.4806130000000  0.5718540000000 1.0
END
