TITL C-109520-6404-11 -0.0117543010579749 125000 -521.575964468689 0 0 72 (Cs) n - 1
REM
REM in /rds/project/t2_vol4/rds-t2-cs072/BORA/CARBON/from-Arr/AIRSS/Generating-Clusters/GAP-ML-2020/Higher-Symm/SD-CG/HFTN-CG
REM
REM
REM
REM
REM
REM ./C.cell (b20cbc046b6831c77cfcea5457e17084)
REM AIRSS Version 0.9.1 bugfix July 2018 build 013d7b7c2542+ Fri, 06 Jul 2018 19:26:36 +0100
REM compiler GCC version 9.3.0
REM options -cpp -mtune=generic -march=x86-64 -g -O0
REM seed -2007021718 -1702823321 137712896 -605091027 200291502 484762064 -567019580 358123658 1063707905 1082390609 -501202026 -208677022 -1793690659 -1123306882 -1769891829 1534048982 137419448 -176502675 1575016754 617178738 2062549015 1797864620 1221804379 -482151604 181398827 -663512287 374645454 -1689682586 1650877143 -1223887070 312347898 -1524548290 1901643469
REM
CELL 1.54180   50.00000   50.00000   50.00000   90.00000   90.00000   90.00000
LATT -1
SFAC C  
C      1  0.4526370000000  0.5595280000000  0.4773940000000 1.0
C      1  0.4464840000000  0.5592090000000  0.5065630000000 1.0
C      1  0.4570920000000  0.5566560000000  0.5316800000000 1.0
C      1  0.4815710000000  0.5548290000000  0.5480860000000 1.0
C      1  0.5088070000000  0.5552220000000  0.5499000000000 1.0
C      1  0.5351830000000  0.5577840000000  0.5368830000000 1.0
C      1  0.5489500000000  0.5606890000000  0.5133900000000 1.0
C      1  0.5467140000000  0.5608870000000  0.4836620000000 1.0
C      1  0.5261070000000  0.5586640000000  0.4652020000000 1.0
C      1  0.4999890000000  0.5644470000000  0.4749090000000 1.0
C      1  0.4755650000000  0.5579340000000  0.4618340000000 1.0
C      1  0.5623670000000  0.4690440000000  0.5424320000000 1.0
C      1  0.5765550000000  0.4722260000000  0.5174260000000 1.0
C      1  0.5648380000000  0.4782320000000  0.4653490000000 1.0
C      1  0.5267060000000  0.4705910000000  0.4413970000000 1.0
C      1  0.5046200000000  0.4746050000000  0.4248700000000 1.0
C      1  0.4806620000000  0.4699260000000  0.4383300000000 1.0
C      1  0.4394860000000  0.4764220000000  0.4569970000000 1.0
C      1  0.4211430000000  0.4699820000000  0.5070720000000 1.0
C      1  0.4319750000000  0.4671610000000  0.5337450000000 1.0
C      1  0.4816720000000  0.4634040000000  0.5573210000000 1.0
C      1  0.5101110000000  0.4638140000000  0.5592160000000 1.0
C      1  0.4774030000000  0.5360060000000  0.4433420000000 1.0
C      1  0.4289740000000  0.5434030000000  0.4721850000000 1.0
C      1  0.4233170000000  0.5414640000000  0.5006980000000 1.0
C      1  0.4446090000000  0.5357900000000  0.5485280000000 1.0
C      1  0.4685190000000  0.5336240000000  0.5641290000000 1.0
C      1  0.5202200000000  0.5343710000000  0.5675730000000 1.0
C      1  0.5459160000000  0.5372530000000  0.5552780000000 1.0
C      1  0.5731910000000  0.5436290000000  0.5106830000000 1.0
C      1  0.5713120000000  0.5454580000000  0.4816680000000 1.0
C      1  0.5273690000000  0.5367280000000  0.4466710000000 1.0
C      1  0.5032850000000  0.5298690000000  0.4329200000000 1.0
C      1  0.5049960000000  0.5124200000000  0.4110280000000 1.0
C      1  0.4563340000000  0.5168280000000  0.4418490000000 1.0
C      1  0.4317790000000  0.5209290000000  0.4567990000000 1.0
C      1  0.4183830000000  0.5172480000000  0.5133470000000 1.0
C      1  0.4301100000000  0.5140130000000  0.5395070000000 1.0
C      1  0.4802830000000  0.5090980000000  0.5703050000000 1.0
C      1  0.5084510000000  0.5095050000000  0.5721810000000 1.0
C      1  0.5621030000000  0.5159200000000  0.5483010000000 1.0
C      1  0.5770990000000  0.5195410000000  0.5239210000000 1.0
C      1  0.5712200000000  0.5229430000000  0.4660890000000 1.0
C      1  0.5489930000000  0.5181670000000  0.4480220000000 1.0
C      1  0.5476370000000  0.4896330000000  0.4455790000000 1.0
C      1  0.5061050000000  0.4899330000000  0.3992560000000 1.0
C      1  0.4588220000000  0.4883500000000  0.4396620000000 1.0
C      1  0.4229090000000  0.4963070000000  0.4682140000000 1.0
C      1  0.4155220000000  0.4945890000000  0.4957000000000 1.0
C      1  0.4402260000000  0.4887620000000  0.5491280000000 1.0
C      1  0.4656560000000  0.4861260000000  0.5626380000000 1.0
C      1  0.5246200000000  0.4869780000000  0.5665660000000 1.0
C      1  0.5515310000000  0.4903690000000  0.5565430000000 1.0
C      1  0.5829250000000  0.4970070000000  0.5068520000000 1.0
C      1  0.5792020000000  0.4985640000000  0.4786270000000 1.0
C      1  0.4746390000000  0.4446500000000  0.5370820000000 1.0
C      1  0.5203020000000  0.4453090000000  0.5401240000000 1.0
C      1  0.5460850000000  0.4482810000000  0.5308760000000 1.0
C      1  0.5593170000000  0.4525050000000  0.5045680000000 1.0
C      1  0.5517450000000  0.4559620000000  0.4776760000000 1.0
C      1  0.5269210000000  0.4517620000000  0.4626650000000 1.0
C      1  0.5019570000000  0.4406180000000  0.4722060000000 1.0
C      1  0.4781690000000  0.4510580000000  0.4594170000000 1.0
C      1  0.4514630000000  0.4545140000000  0.4709950000000 1.0
C      1  0.4404940000000  0.4507890000000  0.4966520000000 1.0
C      1  0.4502360000000  0.4468960000000  0.5244910000000 1.0
C      1  0.5004140000000  0.4306240000000  0.4975380000000 1.0
C      1  0.4992400000000  0.5233580000000  0.4950530000000 1.0
C      1  0.5123100000000  0.5001910000000  0.5043880000000 1.0
C      1  0.4985980000000  0.4357370000000  0.5236790000000 1.0
C      1  0.4857190000000  0.4998070000000  0.5026170000000 1.0
C      1  0.4985830000000  0.5509040000000  0.4989460000000 1.0
END
