TITL C-100363-5731-11 -309.964694297185 125000 -297.9351718514 0 0 48 (Oh) n - 1
REM
REM in /rds/project/t2_vol4/rds-t2-cs072/BORA/CARBON/from-Arr/AIRSS/Generating-Clusters/GAP-ML-2020/Higher-Symm/SD-CG/HFTN-CG
REM
REM
REM
REM
REM
REM ./C.cell (b20cbc046b6831c77cfcea5457e17084)
REM AIRSS Version 0.9.1 bugfix July 2018 build 013d7b7c2542+ Fri, 06 Jul 2018 19:26:36 +0100
REM compiler GCC version 9.3.0
REM options -cpp -mtune=generic -march=x86-64 -g -O0
REM seed 305129441 662117433 1932389216 -853444541 1561607149 -1131081223 1720594390 -907021156 1226142354 1732936899 1101227220 355539922 1533282226 1567032955 1237678048 -413638521 -823059110 1319867095 -194778140 -2101641231 1517412377 -1714746441 -788192773 -1202630928 749867224 1970991978 1552200645 -301056062 825070682 -1385553613 -662598813 -361311097 -880060745
REM
CELL 1.54180   50.00000   50.00000   50.00000   90.00000   90.00000   90.00000
LATT -1
SFAC C  
C      1  0.5239130000000  0.4564600000000  0.5000000000000 1.0
C      1  0.5000000000000  0.5239120000000  0.4564610000000 1.0
C      1  0.4564610000000  0.5000000000000  0.5239120000000 1.0
C      1  0.5239130000000  0.5435400000000  0.5000000000000 1.0
C      1  0.4760870000000  0.5435400000000  0.5000000000000 1.0
C      1  0.4760870000000  0.4564600000000  0.5000000000000 1.0
C      1  0.5000000000000  0.4760880000000  0.5435400000000 1.0
C      1  0.5000000000000  0.4760870000000  0.4564600000000 1.0
C      1  0.5000000000000  0.5239130000000  0.5435400000000 1.0
C      1  0.4564600000000  0.5000000000000  0.4760870000000 1.0
C      1  0.5435400000000  0.5000000000000  0.5239130000000 1.0
C      1  0.5435390000000  0.5000000000000  0.4760880000000 1.0
C      1  0.5239120000000  0.5000000000000  0.4564600000000 1.0
C      1  0.5000000000000  0.4564600000000  0.5239120000000 1.0
C      1  0.4564600000000  0.5239130000000  0.5000000000000 1.0
C      1  0.5239130000000  0.5000000000000  0.5435400000000 1.0
C      1  0.4760880000000  0.5000000000000  0.5435390000000 1.0
C      1  0.4760870000000  0.5000000000000  0.4564600000000 1.0
C      1  0.5000000000000  0.5435390000000  0.4760880000000 1.0
C      1  0.5000000000000  0.4564600000000  0.4760870000000 1.0
C      1  0.5000000000000  0.5435400000000  0.5239130000000 1.0
C      1  0.4564600000000  0.4760880000000  0.5000000000000 1.0
C      1  0.5435400000000  0.5239130000000  0.5000000000000 1.0
C      1  0.5435400000000  0.4760870000000  0.5000000000000 1.0
C      1  0.5000000000000  0.4250390000000  0.4791920000000 1.0
C      1  0.4791920000000  0.5000000000000  0.4250390000000 1.0
C      1  0.4250390000000  0.4791920000000  0.5000000000000 1.0
C      1  0.5000000000000  0.5749610000000  0.5208080000000 1.0
C      1  0.5000000000000  0.5749610000000  0.4791920000000 1.0
C      1  0.5000000000000  0.4250390000000  0.5208080000000 1.0
C      1  0.4791920000000  0.5000000000000  0.5749610000000 1.0
C      1  0.5208080000000  0.5000000000000  0.4250390000000 1.0
C      1  0.5208080000000  0.5000000000000  0.5749610000000 1.0
C      1  0.4250390000000  0.5208080000000  0.5000000000000 1.0
C      1  0.5749610000000  0.5208080000000  0.5000000000000 1.0
C      1  0.5749610000000  0.4791920000000  0.5000000000000 1.0
C      1  0.5000000000000  0.4791920000000  0.4250390000000 1.0
C      1  0.4791920000000  0.4250390000000  0.5000000000000 1.0
C      1  0.4250390000000  0.5000000000000  0.4791920000000 1.0
C      1  0.5000000000000  0.5208080000000  0.5749610000000 1.0
C      1  0.5000000000000  0.4791920000000  0.5749610000000 1.0
C      1  0.5000000000000  0.5208080000000  0.4250390000000 1.0
C      1  0.4791920000000  0.5749610000000  0.5000000000000 1.0
C      1  0.5208080000000  0.4250390000000  0.5000000000000 1.0
C      1  0.5208080000000  0.5749610000000  0.5000000000000 1.0
C      1  0.4250390000000  0.5000000000000  0.5208080000000 1.0
C      1  0.5749610000000  0.5000000000000  0.5208080000000 1.0
C      1  0.5749610000000  0.5000000000000  0.4791920000000 1.0
END
