TITL C-107708-8651-4 55.7041815655153 125000 -1309.37037548114 0 0 185 (C5) n - 1
REM
REM in /rds/project/t2_vol4/rds-t2-cs072/BORA/CARBON/from-Arr/AIRSS/Generating-Clusters/GAP-ML-2020/Higher-Symm/SD-CG/HFTN-CG/C160-200
REM
REM
REM
REM
REM
REM ./C.cell (6b4489405718ea1b717e0baf1da4c2d9)
REM AIRSS Version 0.9.1 bugfix July 2018 build 013d7b7c2542+ Fri, 06 Jul 2018 19:26:36 +0100
REM compiler GCC version 9.3.0
REM options -cpp -mtune=generic -march=x86-64 -g -O0
REM seed 1816199039 892134546 2068657748 36429365 1370827332 -1594335544 -1410595558 1714670485 910820216 643376292 -937705541 -573655787 -1831146474 -1137836640 -908401728 2015008837 885278699 -1946647345 -967278222 671730718 2050466164 -827611336 1711519353 -1485794186 -234188387 1016844562 -1657907482 314293043 915817791 -141781790 1175223154 -949050108 -1819572005
REM
CELL 1.54180   50.00000   50.00000   50.00000   90.00000   90.00000   90.00000
LATT -1
SFAC C  
C      1  0.5879290000000  0.5374460000000  0.4580300000000 1.0
C      1  0.5879310000000  0.4716570000000  0.4514210000000 1.0
C      1  0.5879320000000  0.4450410000000  0.5119480000000 1.0
C      1  0.5879290000000  0.4943810000000  0.5559650000000 1.0
C      1  0.5879280000000  0.5514910000000  0.5226420000000 1.0
C      1  0.4517600000000  0.5618040000000  0.4257470000000 1.0
C      1  0.4517640000000  0.4484790000000  0.4182740000000 1.0
C      1  0.4517640000000  0.4063520000000  0.5237430000000 1.0
C      1  0.4517600000000  0.4936410000000  0.5963990000000 1.0
C      1  0.4517580000000  0.5897160000000  0.5358340000000 1.0
C      1  0.5093430000000  0.6107220000000  0.4904660000000 1.0
C      1  0.5093480000000  0.5251480000000  0.3917510000000 1.0
C      1  0.5093510000000  0.4048210000000  0.4426320000000 1.0
C      1  0.5093490000000  0.4160280000000  0.5727940000000 1.0
C      1  0.5093440000000  0.5432820000000  0.6023570000000 1.0
C      1  0.4535920000000  0.5176840000000  0.4410150000000 1.0
C      1  0.4535940000000  0.4493660000000  0.4649530000000 1.0
C      1  0.4535930000000  0.4510200000000  0.5373240000000 1.0
C      1  0.4535900000000  0.5203610000000  0.5581140000000 1.0
C      1  0.4535900000000  0.5615610000000  0.4985920000000 1.0
C      1  0.4636050000000  0.4209630000000  0.4588620000000 1.0
C      1  0.4636030000000  0.4364500000000  0.5624550000000 1.0
C      1  0.4635990000000  0.5397600000000  0.5797370000000 1.0
C      1  0.4635990000000  0.5881210000000  0.4868250000000 1.0
C      1  0.4636020000000  0.5147000000000  0.4121200000000 1.0
C      1  0.4992080000000  0.5748020000000  0.5144260000000 1.0
C      1  0.4992110000000  0.5368350000000  0.4333170000000 1.0
C      1  0.4992140000000  0.4479630000000  0.4443620000000 1.0
C      1  0.4992130000000  0.4310050000000  0.5322970000000 1.0
C      1  0.4992100000000  0.5093950000000  0.5755990000000 1.0
C      1  0.4251050000000  0.4482710000000  0.5472380000000 1.0
C      1  0.4251020000000  0.5289400000000  0.5637910000000 1.0
C      1  0.4251020000000  0.5696110000000  0.4921850000000 1.0
C      1  0.4251040000000  0.5140780000000  0.4313780000000 1.0
C      1  0.4251070000000  0.4390860000000  0.4654030000000 1.0
C      1  0.5488350000000  0.4752250000000  0.5047510000000 1.0
C      1  0.5488340000000  0.4968630000000  0.5250330000000 1.0
C      1  0.5488340000000  0.5228390000000  0.5107210000000 1.0
C      1  0.5488340000000  0.5172540000000  0.4815940000000 1.0
C      1  0.5488350000000  0.4878270000000  0.4779050000000 1.0
C      1  0.5397350000000  0.3897420000000  0.5119040000000 1.0
C      1  0.5397310000000  0.4772500000000  0.6085420000000 1.0
C      1  0.5397270000000  0.5962000000000  0.5551790000000 1.0
C      1  0.5397290000000  0.5822060000000  0.4255610000000 1.0
C      1  0.5397340000000  0.4546080000000  0.3988160000000 1.0
C      1  0.5071210000000  0.5347550000000  0.5355810000000 1.0
C      1  0.5071210000000  0.5445800000000  0.4779410000000 1.0
C      1  0.5071230000000  0.4927970000000  0.4507860000000 1.0
C      1  0.5071240000000  0.4509690000000  0.4916430000000 1.0
C      1  0.5071230000000  0.4769000000000  0.5440490000000 1.0
C      1  0.3988190000000  0.4933110000000  0.5239290000000 1.0
C      1  0.3988180000000  0.5206900000000  0.5137520000000 1.0
C      1  0.3988180000000  0.5194710000000  0.4845680000000 1.0
C      1  0.3988190000000  0.4913390000000  0.4767100000000 1.0
C      1  0.3988200000000  0.4751720000000  0.5010360000000 1.0
C      1  0.4624830000000  0.5670320000000  0.5739710000000 1.0
C      1  0.4624830000000  0.5910640000000  0.4591050000000 1.0
C      1  0.4624880000000  0.4892460000000  0.4007540000000 1.0
C      1  0.4624900000000  0.4022880000000  0.4795570000000 1.0
C      1  0.4624870000000  0.4503620000000  0.5866110000000 1.0
C      1  0.5618620000000  0.5918830000000  0.5379210000000 1.0
C      1  0.5618640000000  0.5644590000000  0.4243350000000 1.0
C      1  0.5618690000000  0.4479590000000  0.4153160000000 1.0
C      1  0.5618690000000  0.4033800000000  0.5233280000000 1.0
C      1  0.5618650000000  0.4923300000000  0.5991020000000 1.0
C      1  0.4617560000000  0.5637120000000  0.5265860000000 1.0
C      1  0.4617570000000  0.5449730000000  0.4476200000000 1.0
C      1  0.4617600000000  0.4640800000000  0.4410410000000 1.0
C      1  0.4617610000000  0.4328260000000  0.5159410000000 1.0
C      1  0.4617580000000  0.4944020000000  0.5688100000000 1.0
C      1  0.5749860000000  0.4714000000000  0.4245990000000 1.0
C      1  0.5749870000000  0.4194530000000  0.5039030000000 1.0
C      1  0.5749840000000  0.4788230000000  0.5778150000000 1.0
C      1  0.5749810000000  0.5674630000000  0.5441900000000 1.0
C      1  0.5749820000000  0.5628750000000  0.4494980000000 1.0
C      1  0.4897470000000  0.4731570000000  0.4344490000000 1.0
C      1  0.4897480000000  0.4293620000000  0.5052730000000 1.0
C      1  0.4897450000000  0.4831860000000  0.5688100000000 1.0
C      1  0.4897420000000  0.5602460000000  0.5372540000000 1.0
C      1  0.4897440000000  0.5540480000000  0.4542140000000 1.0
C      1  0.5286020000000  0.5227830000000  0.6111960000000 1.0
C      1  0.5286000000000  0.6127940000000  0.5126950000000 1.0
C      1  0.5286040000000  0.5469290000000  0.3966500000000 1.0
C      1  0.5286080000000  0.4162110000000  0.4234320000000 1.0
C      1  0.5286070000000  0.4012870000000  0.5560290000000 1.0
C      1  0.4060740000000  0.4512630000000  0.4510650000000 1.0
C      1  0.4060730000000  0.4383970000000  0.5312260000000 1.0
C      1  0.4060710000000  0.5106610000000  0.5682330000000 1.0
C      1  0.4060690000000  0.5681870000000  0.5109420000000 1.0
C      1  0.4060710000000  0.5314770000000  0.4385280000000 1.0
C      1  0.4404840000000  0.4735290000000  0.4112720000000 1.0
C      1  0.4404850000000  0.4074340000000  0.4977550000000 1.0
C      1  0.4404820000000  0.4692590000000  0.5873400000000 1.0
C      1  0.4404790000000  0.5735650000000  0.5562230000000 1.0
C      1  0.4404800000000  0.5762040000000  0.4474070000000 1.0
C      1  0.4845190000000  0.5995160000000  0.5037110000000 1.0
C      1  0.4845220000000  0.5342820000000  0.4065010000000 1.0
C      1  0.4845260000000  0.4216710000000  0.4385030000000 1.0
C      1  0.4845250000000  0.4173070000000  0.5554910000000 1.0
C      1  0.4845200000000  0.5272220000000  0.5957930000000 1.0
C      1  0.4736200000000  0.4324990000000  0.4118530000000 1.0
C      1  0.4736200000000  0.3953070000000  0.5369570000000 1.0
C      1  0.4736150000000  0.5027960000000  0.6109880000000 1.0
C      1  0.4736120000000  0.6064190000000  0.5316360000000 1.0
C      1  0.4736150000000  0.5629730000000  0.4085640000000 1.0
C      1  0.5859840000000  0.5239640000000  0.4348130000000 1.0
C      1  0.5859870000000  0.4454100000000  0.4570690000000 1.0
C      1  0.5859860000000  0.4423020000000  0.5386560000000 1.0
C      1  0.5859830000000  0.5189350000000  0.5668230000000 1.0
C      1  0.5859820000000  0.5694050000000  0.5026450000000 1.0
C      1  0.4901410000000  0.5869010000000  0.4477290000000 1.0
C      1  0.4901450000000  0.4771420000000  0.4012000000000 1.0
C      1  0.4901470000000  0.3989710000000  0.4912080000000 1.0
C      1  0.4901440000000  0.4604190000000  0.5933670000000 1.0
C      1  0.4901400000000  0.5765660000000  0.5664950000000 1.0
C      1  0.5702270000000  0.5350360000000  0.5818480000000 1.0
C      1  0.5702260000000  0.5886690000000  0.4919740000000 1.0
C      1  0.5702290000000  0.5197680000000  0.4131930000000 1.0
C      1  0.5702320000000  0.4235510000000  0.4543780000000 1.0
C      1  0.5702310000000  0.4329880000000  0.5586120000000 1.0
C      1  0.4583090000000  0.5031220000000  0.4721760000000 1.0
C      1  0.4583100000000  0.4745020000000  0.4884310000000 1.0
C      1  0.4583090000000  0.4811170000000  0.5206730000000 1.0
C      1  0.4583080000000  0.5138260000000  0.5243450000000 1.0
C      1  0.4583080000000  0.5274260000000  0.4943720000000 1.0
C      1  0.5300500000000  0.4537550000000  0.5101050000000 1.0
C      1  0.5300480000000  0.4953210000000  0.5471050000000 1.0
C      1  0.5300470000000  0.5433540000000  0.5190080000000 1.0
C      1  0.5300480000000  0.5314750000000  0.4646430000000 1.0
C      1  0.5300500000000  0.4761000000000  0.4591410000000 1.0
C      1  0.5819400000000  0.4875680000000  0.4762720000000 1.0
C      1  0.5819400000000  0.4735930000000  0.5044950000000 1.0
C      1  0.5819390000000  0.4961150000000  0.5265070000000 1.0
C      1  0.5819380000000  0.5240100000000  0.5118890000000 1.0
C      1  0.5819390000000  0.5187280000000  0.4808420000000 1.0
C      1  0.5195820000000  0.4948790000000  0.6170470000000 1.0
C      1  0.5195790000000  0.6097360000000  0.5410410000000 1.0
C      1  0.5195820000000  0.5729430000000  0.4083180000000 1.0
C      1  0.5195870000000  0.4353460000000  0.4022970000000 1.0
C      1  0.5195870000000  0.3871000000000  0.5312980000000 1.0
C      1  0.5556100000000  0.5436430000000  0.4063940000000 1.0
C      1  0.5556140000000  0.4244620000000  0.4295700000000 1.0
C      1  0.5556140000000  0.4096750000000  0.5500790000000 1.0
C      1  0.5556090000000  0.5197170000000  0.6013820000000 1.0
C      1  0.5556070000000  0.6025130000000  0.5125790000000 1.0
C      1  0.4197180000000  0.5654490000000  0.4651890000000 1.0
C      1  0.4197210000000  0.4871170000000  0.4269940000000 1.0
C      1  0.4197220000000  0.4265850000000  0.4896890000000 1.0
C      1  0.4197200000000  0.4675060000000  0.5666320000000 1.0
C      1  0.4197170000000  0.5533290000000  0.5514910000000 1.0
C      1  0.4039200000000  0.4881880000000  0.5531140000000 1.0
C      1  0.4039180000000  0.5468630000000  0.5276430000000 1.0
C      1  0.4039190000000  0.5407710000000  0.4639690000000 1.0
C      1  0.4039220000000  0.4783300000000  0.4500870000000 1.0
C      1  0.4039220000000  0.4458320000000  0.5051820000000 1.0
C      1  0.5627750000000  0.5841400000000  0.4647440000000 1.0
C      1  0.5627790000000  0.4924710000000  0.4090860000000 1.0
C      1  0.5627810000000  0.4112100000000  0.4790690000000 1.0
C      1  0.5627780000000  0.4526570000000  0.5779790000000 1.0
C      1  0.5627750000000  0.5595330000000  0.5691250000000 1.0
C      1  0.4893430000000  0.4862620000000  0.5212900000000 1.0
C      1  0.4893420000000  0.5160020000000  0.5196440000000 1.0
C      1  0.4893420000000  0.5236270000000  0.4908510000000 1.0
C      1  0.4893440000000  0.4986000000000  0.4747010000000 1.0
C      1  0.4893440000000  0.4755070000000  0.4935140000000 1.0
C      1  0.5382430000000  0.4526750000000  0.5942530000000 1.0
C      1  0.5382390000000  0.5750160000000  0.5741360000000 1.0
C      1  0.5382400000000  0.5936890000000  0.4515660000000 1.0
C      1  0.5382440000000  0.4828890000000  0.3959310000000 1.0
C      1  0.5382460000000  0.3957370000000  0.4841160000000 1.0
C      1  0.5127360000000  0.5664840000000  0.5848730000000 1.0
C      1  0.5127370000000  0.6012640000000  0.4629980000000 1.0
C      1  0.5127410000000  0.4961010000000  0.3922590000000 1.0
C      1  0.5127440000000  0.3963270000000  0.4704150000000 1.0
C      1  0.5127410000000  0.4398260000000  0.5894570000000 1.0
C      1  0.4938470000000  0.3856870000000  0.5196210000000 1.0
C      1  0.4938430000000  0.4833360000000  0.6147810000000 1.0
C      1  0.4938390000000  0.6040140000000  0.5513170000000 1.0
C      1  0.4938420000000  0.5809480000000  0.4169340000000 1.0
C      1  0.4938470000000  0.4460140000000  0.3973450000000 1.0
C      1  0.5183760000000  0.5182480000000  0.4429850000000 1.0
C      1  0.5183780000000  0.4514150000000  0.4650270000000 1.0
C      1  0.5183770000000  0.4517250000000  0.5354010000000 1.0
C      1  0.5183740000000  0.5187510000000  0.5568520000000 1.0
C      1  0.5183730000000  0.5598640000000  0.4997360000000 1.0
END
