TITL C-105238-9092-6 0.0160736505796187 125000 -487.203885403308 0 0 70 (C1) n - 1
REM
REM in /rds/project/t2_vol4/rds-t2-cs072/BORA/CARBON/from-Arr/AIRSS/Generating-Clusters/GAP-ML-2020/Higher-Symm/SD-CG/HFTN-CG
REM
REM
REM
REM
REM
REM ./C.cell (b20cbc046b6831c77cfcea5457e17084)
REM AIRSS Version 0.9.1 bugfix July 2018 build 013d7b7c2542+ Fri, 06 Jul 2018 19:26:36 +0100
REM compiler GCC version 9.3.0
REM options -cpp -mtune=generic -march=x86-64 -g -O0
REM seed -282761484 -1425760923 492527748 1150400474 891400762 -2145930334 -1849260012 1431049434 -1611429041 -355531953 307182143 -1099600282 443309783 1718686920 601412414 1701142622 -1141658473 1551236482 -1100324991 -1420585769 1027310443 610378029 1425437637 -1260743688 1520144342 -396846721 1907355328 -1113881459 -399419581 1138429868 969151580 -623292525 893660331
REM
CELL 1.54180   50.00000   50.00000   50.00000   90.00000   90.00000   90.00000
LATT -1
SFAC C  
C      1  0.5354700000000  0.5408280000000  0.4484600000000 1.0
C      1  0.5264790000000  0.5496480000000  0.5577270000000 1.0
C      1  0.4374870000000  0.5418690000000  0.4956200000000 1.0
C      1  0.5486530000000  0.4618130000000  0.5358510000000 1.0
C      1  0.4454780000000  0.4701960000000  0.5210740000000 1.0
C      1  0.5096660000000  0.4700980000000  0.4413000000000 1.0
C      1  0.4578690000000  0.4435460000000  0.5179920000000 1.0
C      1  0.5041610000000  0.4531990000000  0.4641350000000 1.0
C      1  0.5294360000000  0.4403840000000  0.5326390000000 1.0
C      1  0.5081980000000  0.4864990000000  0.5261720000000 1.0
C      1  0.4685780000000  0.4879890000000  0.4831310000000 1.0
C      1  0.5294680000000  0.4895700000000  0.4788640000000 1.0
C      1  0.5687200000000  0.4605110000000  0.5176680000000 1.0
C      1  0.4509200000000  0.4871280000000  0.5436920000000 1.0
C      1  0.4880190000000  0.4860540000000  0.4326580000000 1.0
C      1  0.5352440000000  0.4888490000000  0.5410350000000 1.0
C      1  0.4412690000000  0.4839230000000  0.4962890000000 1.0
C      1  0.5332100000000  0.4844130000000  0.4490680000000 1.0
C      1  0.4471270000000  0.5167020000000  0.5434570000000 1.0
C      1  0.4893660000000  0.5160810000000  0.4306960000000 1.0
C      1  0.5525380000000  0.5135850000000  0.5312680000000 1.0
C      1  0.4627700000000  0.4403150000000  0.4894660000000 1.0
C      1  0.5256730000000  0.4398250000000  0.4780150000000 1.0
C      1  0.5047480000000  0.4384630000000  0.5484800000000 1.0
C      1  0.5345740000000  0.5608960000000  0.5187920000000 1.0
C      1  0.4636100000000  0.5605800000000  0.5219450000000 1.0
C      1  0.4984710000000  0.5584620000000  0.4578980000000 1.0
C      1  0.4483840000000  0.4371540000000  0.4669070000000 1.0
C      1  0.5499760000000  0.4354380000000  0.4654860000000 1.0
C      1  0.5017080000000  0.4398870000000  0.5757260000000 1.0
C      1  0.4596300000000  0.5622820000000  0.4934980000000 1.0
C      1  0.5254780000000  0.5610450000000  0.4678860000000 1.0
C      1  0.5131730000000  0.5669460000000  0.5367500000000 1.0
C      1  0.4438810000000  0.5377380000000  0.5239660000000 1.0
C      1  0.5075810000000  0.5362880000000  0.4393990000000 1.0
C      1  0.5447780000000  0.5397500000000  0.5381900000000 1.0
C      1  0.5046720000000  0.5105090000000  0.5789080000000 1.0
C      1  0.4276260000000  0.5056380000000  0.4579560000000 1.0
C      1  0.5717720000000  0.5032600000000  0.4604820000000 1.0
C      1  0.4847340000000  0.5645600000000  0.5404940000000 1.0
C      1  0.4716940000000  0.5617430000000  0.4671550000000 1.0
C      1  0.5412410000000  0.5590990000000  0.4920270000000 1.0
C      1  0.4628280000000  0.5268550000000  0.5651270000000 1.0
C      1  0.4622690000000  0.5251230000000  0.4334620000000 1.0
C      1  0.5665710000000  0.5164050000000  0.5062680000000 1.0
C      1  0.5198680000000  0.4412090000000  0.5058110000000 1.0
C      1  0.4839340000000  0.4437270000000  0.5287200000000 1.0
C      1  0.4841120000000  0.4621240000000  0.4845110000000 1.0
C      1  0.5604770000000  0.5382960000000  0.4877060000000 1.0
C      1  0.4811770000000  0.5481190000000  0.5637370000000 1.0
C      1  0.4538930000000  0.5441630000000  0.4526900000000 1.0
C      1  0.4435060000000  0.4609290000000  0.4538290000000 1.0
C      1  0.5658000000000  0.4572680000000  0.4665960000000 1.0
C      1  0.4984160000000  0.4669600000000  0.5708450000000 1.0
C      1  0.5123070000000  0.5082570000000  0.4877990000000 1.0
C      1  0.5004940000000  0.5102860000000  0.5131620000000 1.0
C      1  0.4844340000000  0.5098770000000  0.4894730000000 1.0
C      1  0.4707320000000  0.4808750000000  0.5654790000000 1.0
C      1  0.4592050000000  0.4780280000000  0.4355660000000 1.0
C      1  0.5749750000000  0.4684030000000  0.4926510000000 1.0
C      1  0.4445850000000  0.5028470000000  0.4355520000000 1.0
C      1  0.5772490000000  0.4967260000000  0.4881400000000 1.0
C      1  0.4766810000000  0.5054640000000  0.5774430000000 1.0
C      1  0.5589350000000  0.5289320000000  0.4602830000000 1.0
C      1  0.5068180000000  0.5382390000000  0.5735660000000 1.0
C      1  0.4337500000000  0.5312770000000  0.4697630000000 1.0
C      1  0.5612760000000  0.4796810000000  0.4477140000000 1.0
C      1  0.5188610000000  0.4886390000000  0.5674800000000 1.0
C      1  0.4271060000000  0.4804560000000  0.4715860000000 1.0
C      1  0.4990210000000  0.4612680000000  0.5102320000000 1.0
END
