TITL C-101421-5140-6 -0.0762785359577674 125000 -373.637789143613 0 0 56 (C1) n - 1
REM
REM in /rds/project/t2_vol4/rds-t2-cs072/BORA/CARBON/from-Arr/AIRSS/Generating-Clusters/GAP-ML-2020/Higher-Symm/SD-CG/HFTN-CG
REM
REM
REM
REM
REM
REM ./C.cell (b20cbc046b6831c77cfcea5457e17084)
REM AIRSS Version 0.9.1 bugfix July 2018 build 013d7b7c2542+ Fri, 06 Jul 2018 19:26:36 +0100
REM compiler GCC version 9.3.0
REM options -cpp -mtune=generic -march=x86-64 -g -O0
REM seed 972918172 -2080169567 -832397337 1843784260 -1672289456 -218105933 -25479511 -626417938 613326504 -1956111239 1362325809 368338014 -964282909 -650723703 1517181454 2078828966 -256537662 141772276 -175067741 2073727030 505991775 -572102338 -1391693168 314149417 -840798526 -1212883848 821896683 -1582788997 296326920 -207187445 -1809481834 -410483020 1402499294
REM
CELL 1.54180   50.00000   50.00000   50.00000   90.00000   90.00000   90.00000
LATT -1
SFAC C  
C      1  0.4940260000000  0.5025110000000  0.4659970000000 1.0
C      1  0.4718700000000  0.5077150000000  0.4833360000000 1.0
C      1  0.4683680000000  0.5020740000000  0.5115770000000 1.0
C      1  0.4900130000000  0.5125130000000  0.5260950000000 1.0
C      1  0.5153540000000  0.5021600000000  0.5232810000000 1.0
C      1  0.5294630000000  0.5081600000000  0.5000640000000 1.0
C      1  0.5222540000000  0.5005660000000  0.4742020000000 1.0
C      1  0.4918040000000  0.4804130000000  0.4454630000000 1.0
C      1  0.4409700000000  0.4746200000000  0.4740570000000 1.0
C      1  0.4377780000000  0.4815130000000  0.5364450000000 1.0
C      1  0.4913280000000  0.4749070000000  0.5599520000000 1.0
C      1  0.5445190000000  0.4777900000000  0.5414710000000 1.0
C      1  0.5573320000000  0.4761070000000  0.5157140000000 1.0
C      1  0.5555010000000  0.4792420000000  0.4531450000000 1.0
C      1  0.4442020000000  0.5400970000000  0.4964570000000 1.0
C      1  0.4621100000000  0.5403860000000  0.5409060000000 1.0
C      1  0.5090260000000  0.5398740000000  0.5544730000000 1.0
C      1  0.5477740000000  0.5412320000000  0.5278240000000 1.0
C      1  0.5519940000000  0.5418490000000  0.4800820000000 1.0
C      1  0.5164860000000  0.5389910000000  0.4474090000000 1.0
C      1  0.4684810000000  0.5405850000000  0.4535800000000 1.0
C      1  0.4896400000000  0.4310650000000  0.5303830000000 1.0
C      1  0.5081000000000  0.4181150000000  0.5119930000000 1.0
C      1  0.5315460000000  0.4317130000000  0.5007810000000 1.0
C      1  0.5152590000000  0.4194320000000  0.4829810000000 1.0
C      1  0.4958060000000  0.4361460000000  0.4695620000000 1.0
C      1  0.4720980000000  0.4356520000000  0.4862410000000 1.0
C      1  0.4780930000000  0.4190410000000  0.5090800000000 1.0
C      1  0.5281530000000  0.5594790000000  0.5168330000000 1.0
C      1  0.5313490000000  0.5601450000000  0.4873410000000 1.0
C      1  0.5098270000000  0.5575400000000  0.4680310000000 1.0
C      1  0.4810370000000  0.5581010000000  0.4724700000000 1.0
C      1  0.4662970000000  0.5583040000000  0.4980080000000 1.0
C      1  0.4765820000000  0.5592450000000  0.5249940000000 1.0
C      1  0.5049580000000  0.5592220000000  0.5334710000000 1.0
C      1  0.4494900000000  0.5242280000000  0.4708530000000 1.0
C      1  0.4456070000000  0.5237230000000  0.5218600000000 1.0
C      1  0.4840870000000  0.5243700000000  0.5547090000000 1.0
C      1  0.5320410000000  0.5224410000000  0.5455440000000 1.0
C      1  0.5611710000000  0.5293080000000  0.5050520000000 1.0
C      1  0.5402750000000  0.5230280000000  0.4581460000000 1.0
C      1  0.4906840000000  0.5245330000000  0.4416220000000 1.0
C      1  0.4855840000000  0.4982750000000  0.5669350000000 1.0
C      1  0.5440010000000  0.4997720000000  0.5574460000000 1.0
C      1  0.5582070000000  0.5012160000000  0.5035490000000 1.0
C      1  0.5589330000000  0.5036110000000  0.4452680000000 1.0
C      1  0.4876700000000  0.4997730000000  0.4262990000000 1.0
C      1  0.4374170000000  0.4982970000000  0.4647430000000 1.0
C      1  0.4268740000000  0.5047640000000  0.5349580000000 1.0
C      1  0.4631750000000  0.4730130000000  0.5184330000000 1.0
C      1  0.4895310000000  0.4607130000000  0.5341050000000 1.0
C      1  0.5175240000000  0.4729170000000  0.5252940000000 1.0
C      1  0.5354000000000  0.4608000000000  0.5014260000000 1.0
C      1  0.5309890000000  0.4714530000000  0.4712350000000 1.0
C      1  0.5064890000000  0.4590090000000  0.4574270000000 1.0
C      1  0.4554520000000  0.4582500000000  0.4913950000000 1.0
END
