TITL C-102473-7279-3 0.0702868684345064 125000 -616.735049654704 0 0 90 (C1) n - 1
REM
REM in /rds/project/t2_vol4/rds-t2-cs072/BORA/CARBON/from-Arr/AIRSS/Generating-Clusters/GAP-ML-2020/Higher-Symm/SD-CG/HFTN-CG
REM
REM
REM
REM
REM
REM ./C.cell (b20cbc046b6831c77cfcea5457e17084)
REM AIRSS Version 0.9.1 bugfix July 2018 build 013d7b7c2542+ Fri, 06 Jul 2018 19:26:36 +0100
REM compiler GCC version 9.3.0
REM options -cpp -mtune=generic -march=x86-64 -g -O0
REM seed 1446503498 -1195523539 1540627842 136457480 478773316 -1510850032 1942542900 -909691852 -2047190565 -290662532 -1901162971 -1022103669 196406567 -964609724 951942984 1796819737 -1258608205 -637125802 634446218 -464921390 -1132699238 -1548416273 629680462 -2140830538 -1297440805 -1296421751 2093777035 1653321501 1794528750 -394400453 -2006105241 -1959892324 -952147471
REM
CELL 1.54180   50.00000   50.00000   50.00000   90.00000   90.00000   90.00000
LATT -1
SFAC C  
C      1  0.4461150000000  0.5565570000000  0.5308000000000 1.0
C      1  0.4518430000000  0.5585410000000  0.4525100000000 1.0
C      1  0.4986420000000  0.5513410000000  0.4411680000000 1.0
C      1  0.5403140000000  0.5520110000000  0.4624280000000 1.0
C      1  0.5510480000000  0.5491600000000  0.5081500000000 1.0
C      1  0.5269540000000  0.5493560000000  0.5479260000000 1.0
C      1  0.4814560000000  0.5529110000000  0.5574890000000 1.0
C      1  0.5805420000000  0.5054730000000  0.5257760000000 1.0
C      1  0.5288950000000  0.5034480000000  0.5812570000000 1.0
C      1  0.4544970000000  0.5060150000000  0.5763150000000 1.0
C      1  0.4164440000000  0.5116720000000  0.5108560000000 1.0
C      1  0.4409910000000  0.5063180000000  0.4382530000000 1.0
C      1  0.5119150000000  0.5099320000000  0.4071120000000 1.0
C      1  0.5752190000000  0.5070570000000  0.4500090000000 1.0
C      1  0.4770670000000  0.4922380000000  0.4903950000000 1.0
C      1  0.5119760000000  0.5008010000000  0.4508590000000 1.0
C      1  0.5291960000000  0.4889540000000  0.4685560000000 1.0
C      1  0.5298810000000  0.4987710000000  0.4938930000000 1.0
C      1  0.5066420000000  0.4962670000000  0.5285380000000 1.0
C      1  0.4815580000000  0.4860630000000  0.5371090000000 1.0
C      1  0.4629200000000  0.4986170000000  0.5172990000000 1.0
C      1  0.5318320000000  0.4308260000000  0.4899970000000 1.0
C      1  0.5261400000000  0.4310890000000  0.5179560000000 1.0
C      1  0.4999280000000  0.4295810000000  0.5295830000000 1.0
C      1  0.4837580000000  0.4562620000000  0.5309020000000 1.0
C      1  0.4678560000000  0.4275500000000  0.4927940000000 1.0
C      1  0.4844210000000  0.4308080000000  0.4698060000000 1.0
C      1  0.5133180000000  0.4298660000000  0.4683400000000 1.0
C      1  0.4719580000000  0.4831150000000  0.5673730000000 1.0
C      1  0.4346800000000  0.4886700000000  0.5206800000000 1.0
C      1  0.4371880000000  0.4847300000000  0.4559580000000 1.0
C      1  0.5030020000000  0.4874560000000  0.4267640000000 1.0
C      1  0.5628680000000  0.4829670000000  0.4418820000000 1.0
C      1  0.5809080000000  0.4805200000000  0.5123890000000 1.0
C      1  0.5382810000000  0.4783360000000  0.5718760000000 1.0
C      1  0.4642330000000  0.5761770000000  0.5196510000000 1.0
C      1  0.4706010000000  0.5771540000000  0.4666560000000 1.0
C      1  0.4979450000000  0.5742960000000  0.4593970000000 1.0
C      1  0.5213280000000  0.5684670000000  0.4778500000000 1.0
C      1  0.5314180000000  0.5711160000000  0.5060290000000 1.0
C      1  0.5168630000000  0.5711300000000  0.5304480000000 1.0
C      1  0.4882480000000  0.5697090000000  0.5346940000000 1.0
C      1  0.5522600000000  0.5031900000000  0.5669080000000 1.0
C      1  0.4800650000000  0.5054710000000  0.5856090000000 1.0
C      1  0.4221430000000  0.5100090000000  0.5376260000000 1.0
C      1  0.4258400000000  0.5099550000000  0.4615250000000 1.0
C      1  0.4856630000000  0.5072850000000  0.4125170000000 1.0
C      1  0.5580170000000  0.5077290000000  0.4282020000000 1.0
C      1  0.5856380000000  0.5057380000000  0.4988680000000 1.0
C      1  0.5627580000000  0.5441170000000  0.4801890000000 1.0
C      1  0.5541410000000  0.5432360000000  0.5381080000000 1.0
C      1  0.5065840000000  0.5445420000000  0.5706280000000 1.0
C      1  0.4506500000000  0.5486640000000  0.5569650000000 1.0
C      1  0.4373830000000  0.5443870000000  0.4754630000000 1.0
C      1  0.4678970000000  0.5462470000000  0.4329600000000 1.0
C      1  0.5288840000000  0.5465380000000  0.4354050000000 1.0
C      1  0.5287080000000  0.5267470000000  0.5031890000000 1.0
C      1  0.5123600000000  0.5251220000000  0.5285090000000 1.0
C      1  0.4869510000000  0.5378950000000  0.5313070000000 1.0
C      1  0.4630670000000  0.5299590000000  0.5179660000000 1.0
C      1  0.4773190000000  0.5185420000000  0.4761750000000 1.0
C      1  0.5000830000000  0.5257700000000  0.4611900000000 1.0
C      1  0.5172860000000  0.5391290000000  0.4801880000000 1.0
C      1  0.4186390000000  0.5245310000000  0.4851020000000 1.0
C      1  0.4620230000000  0.5201590000000  0.4229640000000 1.0
C      1  0.5353700000000  0.5243190000000  0.4186410000000 1.0
C      1  0.5791120000000  0.5212570000000  0.4753000000000 1.0
C      1  0.5659780000000  0.5189420000000  0.5465040000000 1.0
C      1  0.5052340000000  0.5195170000000  0.5840730000000 1.0
C      1  0.4378140000000  0.5227940000000  0.5599340000000 1.0
C      1  0.5434790000000  0.4476300000000  0.5317360000000 1.0
C      1  0.5004830000000  0.4452970000000  0.5554050000000 1.0
C      1  0.4564300000000  0.4499130000000  0.5413090000000 1.0
C      1  0.4497790000000  0.4491460000000  0.4949660000000 1.0
C      1  0.4761080000000  0.4522170000000  0.4539570000000 1.0
C      1  0.5217680000000  0.4480470000000  0.4486370000000 1.0
C      1  0.5529710000000  0.4484540000000  0.4850130000000 1.0
C      1  0.4578070000000  0.4686720000000  0.4720490000000 1.0
C      1  0.4985910000000  0.4595090000000  0.4365610000000 1.0
C      1  0.5448950000000  0.4646100000000  0.4594420000000 1.0
C      1  0.5635730000000  0.4571890000000  0.5107450000000 1.0
C      1  0.5293650000000  0.4550500000000  0.5569090000000 1.0
C      1  0.4721900000000  0.4537000000000  0.5664320000000 1.0
C      1  0.4386850000000  0.4585490000000  0.5204310000000 1.0
C      1  0.4656810000000  0.5695170000000  0.4928350000000 1.0
C      1  0.5060100000000  0.4858760000000  0.5009780000000 1.0
C      1  0.5104660000000  0.3754600000000  0.4913790000000 1.0
C      1  0.4622920000000  0.5394320000000  0.4904910000000 1.0
C      1  0.4819300000000  0.4123020000000  0.5136050000000 1.0
C      1  0.4946930000000  0.3905160000000  0.5037630000000 1.0
END
