TITL C-105232-9170-9 -0.068219807473889 125000 -287.055405277577 0 0 43 (C1) n - 1
REM
REM in /rds/project/t2_vol4/rds-t2-cs072/BORA/CARBON/from-Arr/AIRSS/Generating-Clusters/GAP-ML-2020/Higher-Symm/SD-CG/HFTN-CG
REM
REM
REM
REM
REM
REM ./C.cell (b20cbc046b6831c77cfcea5457e17084)
REM AIRSS Version 0.9.1 bugfix July 2018 build 013d7b7c2542+ Fri, 06 Jul 2018 19:26:36 +0100
REM compiler GCC version 9.3.0
REM options -cpp -mtune=generic -march=x86-64 -g -O0
REM seed -183310716 1949136827 -160322921 1533493313 -917845429 1439950086 -692550944 -1814379205 1405009022 503685581 105389228 487532228 -2073912072 610886485 843854797 1759868318 -1017760854 570026861 -1646324179 -1962419994 681600626 -2111752573 522926796 -1218596669 1551182831 -1441318045 -575829381 484849920 -1436105415 -1621993187 -1753551361 -1376753163 1304255106
REM
CELL 1.54180   50.00000   50.00000   50.00000   90.00000   90.00000   90.00000
LATT -1
SFAC C  
C      1  0.5441850000000  0.4534380000000  0.5123230000000 1.0
C      1  0.5300130000000  0.4998700000000  0.5525650000000 1.0
C      1  0.5484010000000  0.5438520000000  0.5070800000000 1.0
C      1  0.5299720000000  0.5228700000000  0.4591780000000 1.0
C      1  0.5296030000000  0.4693760000000  0.4605760000000 1.0
C      1  0.4742960000000  0.4402970000000  0.5111730000000 1.0
C      1  0.4708600000000  0.4949070000000  0.5579330000000 1.0
C      1  0.4662010000000  0.5493450000000  0.5098750000000 1.0
C      1  0.4656360000000  0.5336430000000  0.4494070000000 1.0
C      1  0.4698010000000  0.4755670000000  0.4615690000000 1.0
C      1  0.5546160000000  0.4826970000000  0.4714780000000 1.0
C      1  0.5591330000000  0.4746250000000  0.4993170000000 1.0
C      1  0.5559300000000  0.5002270000000  0.5430800000000 1.0
C      1  0.5615290000000  0.5215950000000  0.4971310000000 1.0
C      1  0.5549510000000  0.5111190000000  0.4704460000000 1.0
C      1  0.4480470000000  0.4916700000000  0.4709060000000 1.0
C      1  0.4451520000000  0.4847970000000  0.4994690000000 1.0
C      1  0.4627890000000  0.5104000000000  0.5354530000000 1.0
C      1  0.4479580000000  0.5318810000000  0.4964950000000 1.0
C      1  0.4500120000000  0.5212810000000  0.4688770000000 1.0
C      1  0.4848490000000  0.4810580000000  0.4872940000000 1.0
C      1  0.4694680000000  0.4688170000000  0.5102390000000 1.0
C      1  0.4826810000000  0.4835180000000  0.5343110000000 1.0
C      1  0.4800830000000  0.5313400000000  0.5290940000000 1.0
C      1  0.4890160000000  0.5109070000000  0.4911960000000 1.0
C      1  0.5143080000000  0.4806880000000  0.4834010000000 1.0
C      1  0.5215600000000  0.4736300000000  0.5098090000000 1.0
C      1  0.5104960000000  0.4937300000000  0.5286530000000 1.0
C      1  0.5218320000000  0.5461070000000  0.5112960000000 1.0
C      1  0.5146340000000  0.5091190000000  0.4788790000000 1.0
C      1  0.5050110000000  0.5678880000000  0.5077930000000 1.0
C      1  0.5150060000000  0.5365290000000  0.4419170000000 1.0
C      1  0.5115920000000  0.4613600000000  0.4421770000000 1.0
C      1  0.5193790000000  0.4427010000000  0.5158890000000 1.0
C      1  0.5163470000000  0.5067640000000  0.5769970000000 1.0
C      1  0.4796730000000  0.5728230000000  0.5057350000000 1.0
C      1  0.4887040000000  0.5386260000000  0.4390970000000 1.0
C      1  0.4851560000000  0.4639080000000  0.4419970000000 1.0
C      1  0.4965860000000  0.4278070000000  0.5166160000000 1.0
C      1  0.4910360000000  0.5060730000000  0.5721060000000 1.0
C      1  0.5641080000000  0.4988400000000  0.5158150000000 1.0
C      1  0.4445320000000  0.5088710000000  0.5139730000000 1.0
C      1  0.5036100000000  0.5196220000000  0.5151340000000 1.0
END
