TITL C-101420-5162-2 0.0165356469625901 125000 -201.46485738004 0 0 31 (Cs) n - 1
REM
REM in /rds/project/t2_vol4/rds-t2-cs072/BORA/CARBON/from-Arr/AIRSS/Generating-Clusters/GAP-ML-2020/Higher-Symm/SD-CG/HFTN-CG
REM
REM
REM
REM
REM
REM ./C.cell (b20cbc046b6831c77cfcea5457e17084)
REM AIRSS Version 0.9.1 bugfix July 2018 build 013d7b7c2542+ Fri, 06 Jul 2018 19:26:36 +0100
REM compiler GCC version 9.3.0
REM options -cpp -mtune=generic -march=x86-64 -g -O0
REM seed -1584783913 1931523922 263696585 -1026256010 -1817138684 -1861532470 917185373 25951505 -207077178 -1198157317 1943072002 -1847275103 1411857822 -1768806295 -1893231455 96842384 1254362039 -295395592 1436662807 2138510858 152260066 -420135617 978826970 -390101045 -491870065 -1446347410 -1129256254 905592088 41381016 250202666 -786406230 884470380 1301628681
REM
CELL 1.54180   50.00000   50.00000   50.00000   90.00000   90.00000   90.00000
LATT -1
SFAC C  
C      1  0.5136870000000  0.4214190000000  0.5450170000000 1.0
C      1  0.4866560000000  0.4214780000000  0.5455460000000 1.0
C      1  0.5258020000000  0.5183130000000  0.4474990000000 1.0
C      1  0.4711570000000  0.5184340000000  0.4485690000000 1.0
C      1  0.5110520000000  0.4990190000000  0.4328420000000 1.0
C      1  0.4852360000000  0.4990760000000  0.4333480000000 1.0
C      1  0.5300790000000  0.5168180000000  0.4754130000000 1.0
C      1  0.4679700000000  0.5169550000000  0.4766300000000 1.0
C      1  0.4660570000000  0.4679130000000  0.5319520000000 1.0
C      1  0.5339420000000  0.4677640000000  0.5306220000000 1.0
C      1  0.4850620000000  0.5303760000000  0.4936660000000 1.0
C      1  0.5137280000000  0.5303130000000  0.4931050000000 1.0
C      1  0.5582950000000  0.5089500000000  0.5325310000000 1.0
C      1  0.4419790000000  0.5092070000000  0.5348100000000 1.0
C      1  0.4723200000000  0.5454370000000  0.4392290000000 1.0
C      1  0.5243940000000  0.5453220000000  0.4382090000000 1.0
C      1  0.4606180000000  0.4923600000000  0.5474630000000 1.0
C      1  0.5400910000000  0.4921850000000  0.5459060000000 1.0
C      1  0.4356000000000  0.4972130000000  0.5099140000000 1.0
C      1  0.5636410000000  0.4969310000000  0.5074050000000 1.0
C      1  0.4852150000000  0.5318730000000  0.5225230000000 1.0
C      1  0.5147110000000  0.5318080000000  0.5219450000000 1.0
C      1  0.5146550000000  0.4481570000000  0.5372210000000 1.0
C      1  0.4855000000000  0.4482210000000  0.5377920000000 1.0
C      1  0.4672140000000  0.5197730000000  0.5389530000000 1.0
C      1  0.5332890000000  0.5196270000000  0.5376580000000 1.0
C      1  0.5454670000000  0.4741020000000  0.5045120000000 1.0
C      1  0.4535460000000  0.4743050000000  0.5063130000000 1.0
C      1  0.4548930000000  0.4970900000000  0.4905650000000 1.0
C      1  0.5436050000000  0.4968940000000  0.4888270000000 1.0
C      1  0.4984430000000  0.5484710000000  0.4427910000000 1.0
END
