TITL C-107709-8508-4 54.6878142046901 125000 -1179.60952276176 0 0 169 (Cs) n - 1
REM
REM in /rds/project/t2_vol4/rds-t2-cs072/BORA/CARBON/from-Arr/AIRSS/Generating-Clusters/GAP-ML-2020/Higher-Symm/SD-CG/HFTN-CG/C160-200
REM
REM
REM
REM
REM
REM ./C.cell (6b4489405718ea1b717e0baf1da4c2d9)
REM AIRSS Version 0.9.1 bugfix July 2018 build 013d7b7c2542+ Fri, 06 Jul 2018 19:26:36 +0100
REM compiler GCC version 9.3.0
REM options -cpp -mtune=generic -march=x86-64 -g -O0
REM seed 1179280245 -128060094 1673871674 2090523941 1895028602 -653054952 928943407 -662595815 -241484940 -2044000262 -626323881 -82079216 349485000 2048535030 1621858038 -1988968177 -1965227123 180167609 960015587 -2015017443 -1225097933 1049821499 -264420987 -2074059974 -941255029 -61143338 -1797808073 55212870 1327742752 1973111897 -1380699288 1716291266 1104047546
REM
CELL 1.54180   50.00000   50.00000   50.00000   90.00000   90.00000   90.00000
LATT -1
SFAC C  
C      1  0.4997010000000  0.4365520000000  0.4708530000000 1.0
C      1  0.5250700000000  0.4364060000000  0.5149170000000 1.0
C      1  0.4766530000000  0.4268300000000  0.5133400000000 1.0
C      1  0.4997060000000  0.5640640000000  0.4708570000000 1.0
C      1  0.5250760000000  0.5642040000000  0.5149200000000 1.0
C      1  0.4766590000000  0.5737850000000  0.5133440000000 1.0
C      1  0.4989190000000  0.4363890000000  0.5290640000000 1.0
C      1  0.5246530000000  0.4360470000000  0.4858500000000 1.0
C      1  0.4742950000000  0.4365960000000  0.4861610000000 1.0
C      1  0.4989240000000  0.5642230000000  0.5290680000000 1.0
C      1  0.5246580000000  0.5645650000000  0.4858540000000 1.0
C      1  0.4743000000000  0.5640210000000  0.4861650000000 1.0
C      1  0.4769020000000  0.5233520000000  0.5135770000000 1.0
C      1  0.4999470000000  0.5319700000000  0.4699820000000 1.0
C      1  0.5260490000000  0.5321250000000  0.5153070000000 1.0
C      1  0.4769000000000  0.4772620000000  0.5135760000000 1.0
C      1  0.4999440000000  0.4686450000000  0.4699800000000 1.0
C      1  0.5260470000000  0.4684850000000  0.5153050000000 1.0
C      1  0.4739550000000  0.5326150000000  0.4856470000000 1.0
C      1  0.4994630000000  0.5327240000000  0.5301510000000 1.0
C      1  0.5256190000000  0.5314870000000  0.4853440000000 1.0
C      1  0.4739530000000  0.4680020000000  0.4856460000000 1.0
C      1  0.4994600000000  0.4678880000000  0.5301490000000 1.0
C      1  0.5256170000000  0.4691250000000  0.4853420000000 1.0
C      1  0.4895970000000  0.5577370000000  0.4123590000000 1.0
C      1  0.5812340000000  0.5576580000000  0.5349190000000 1.0
C      1  0.4294440000000  0.5574620000000  0.5530270000000 1.0
C      1  0.4895920000000  0.4428830000000  0.4123550000000 1.0
C      1  0.5812300000000  0.4429470000000  0.5349150000000 1.0
C      1  0.4294390000000  0.4431550000000  0.5530230000000 1.0
C      1  0.4896470000000  0.5578630000000  0.5874510000000 1.0
C      1  0.5811300000000  0.5575440000000  0.4654240000000 1.0
C      1  0.4294530000000  0.5579360000000  0.4469980000000 1.0
C      1  0.4896420000000  0.4427460000000  0.5874480000000 1.0
C      1  0.5811250000000  0.4430640000000  0.4654210000000 1.0
C      1  0.4294480000000  0.4426870000000  0.4469940000000 1.0
C      1  0.4513120000000  0.5161840000000  0.5264140000000 1.0
C      1  0.5016190000000  0.5161640000000  0.4452500000000 1.0
C      1  0.5465560000000  0.5161530000000  0.5290040000000 1.0
C      1  0.4513110000000  0.4844320000000  0.5264130000000 1.0
C      1  0.5016180000000  0.4844530000000  0.4452490000000 1.0
C      1  0.5465550000000  0.4844550000000  0.5290030000000 1.0
C      1  0.4518290000000  0.5164840000000  0.4738710000000 1.0
C      1  0.5018750000000  0.5165640000000  0.5552020000000 1.0
C      1  0.5463820000000  0.5161670000000  0.4714690000000 1.0
C      1  0.4518280000000  0.4841350000000  0.4738700000000 1.0
C      1  0.5018740000000  0.4840460000000  0.5552010000000 1.0
C      1  0.5463800000000  0.4844440000000  0.4714680000000 1.0
C      1  0.4756980000000  0.4850960000000  0.5739110000000 1.0
C      1  0.4483910000000  0.4851650000000  0.4417860000000 1.0
C      1  0.5762200000000  0.4851430000000  0.4846570000000 1.0
C      1  0.4756990000000  0.5155150000000  0.5739120000000 1.0
C      1  0.4483920000000  0.5154560000000  0.4417870000000 1.0
C      1  0.5762210000000  0.5154650000000  0.4846580000000 1.0
C      1  0.4752130000000  0.4851320000000  0.4261050000000 1.0
C      1  0.4486720000000  0.4851170000000  0.5583640000000 1.0
C      1  0.5762740000000  0.4851190000000  0.5157310000000 1.0
C      1  0.4752140000000  0.5154880000000  0.4261060000000 1.0
C      1  0.4486740000000  0.5154970000000  0.5583650000000 1.0
C      1  0.5762750000000  0.5154870000000  0.5157320000000 1.0
C      1  0.4554780000000  0.4131820000000  0.4727520000000 1.0
C      1  0.5449270000000  0.4145910000000  0.4748510000000 1.0
C      1  0.4997990000000  0.4133450000000  0.5519500000000 1.0
C      1  0.4554850000000  0.5874370000000  0.4727570000000 1.0
C      1  0.5449340000000  0.5860200000000  0.4748560000000 1.0
C      1  0.4998060000000  0.5872660000000  0.5519550000000 1.0
C      1  0.4540870000000  0.4143670000000  0.5273630000000 1.0
C      1  0.5459100000000  0.4134560000000  0.5255420000000 1.0
C      1  0.4996070000000  0.4134280000000  0.4473980000000 1.0
C      1  0.4540940000000  0.5862490000000  0.5273680000000 1.0
C      1  0.5459170000000  0.5871520000000  0.5255470000000 1.0
C      1  0.4996140000000  0.5871890000000  0.4474030000000 1.0
C      1  0.5709150000000  0.5149190000000  0.5937440000000 1.0
C      1  0.3838520000000  0.5149080000000  0.5150760000000 1.0
C      1  0.5455670000000  0.5149280000000  0.3918770000000 1.0
C      1  0.5709140000000  0.4856830000000  0.5937430000000 1.0
C      1  0.3838510000000  0.4857140000000  0.5150750000000 1.0
C      1  0.5455650000000  0.4856880000000  0.3918770000000 1.0
C      1  0.5709230000000  0.5149170000000  0.4066290000000 1.0
C      1  0.3839300000000  0.5149180000000  0.4857170000000 1.0
C      1  0.5455480000000  0.5149400000000  0.6084590000000 1.0
C      1  0.5709220000000  0.4856960000000  0.4066280000000 1.0
C      1  0.3839280000000  0.4857060000000  0.4857160000000 1.0
C      1  0.5455470000000  0.4856630000000  0.6084580000000 1.0
C      1  0.5240100000000  0.5296720000000  0.5722220000000 1.0
C      1  0.4260830000000  0.5298580000000  0.4848070000000 1.0
C      1  0.5502630000000  0.5294450000000  0.4434430000000 1.0
C      1  0.5240080000000  0.4709360000000  0.5722200000000 1.0
C      1  0.4260810000000  0.4707630000000  0.4848060000000 1.0
C      1  0.5502600000000  0.4711670000000  0.4434410000000 1.0
C      1  0.5239420000000  0.5293990000000  0.4280590000000 1.0
C      1  0.4260710000000  0.5301490000000  0.5154020000000 1.0
C      1  0.5503650000000  0.5296340000000  0.5568790000000 1.0
C      1  0.5239400000000  0.4712170000000  0.4280570000000 1.0
C      1  0.4260690000000  0.4704700000000  0.5154000000000 1.0
C      1  0.5503630000000  0.4709720000000  0.5568780000000 1.0
C      1  0.5169120000000  0.5153620000000  0.4026370000000 1.0
C      1  0.5757740000000  0.5154100000000  0.5635430000000 1.0
C      1  0.4077270000000  0.5154440000000  0.5340290000000 1.0
C      1  0.5169100000000  0.4852550000000  0.4026360000000 1.0
C      1  0.5757730000000  0.4851940000000  0.5635420000000 1.0
C      1  0.4077260000000  0.4851750000000  0.5340280000000 1.0
C      1  0.5169740000000  0.5154380000000  0.5975590000000 1.0
C      1  0.5757790000000  0.5153720000000  0.4368750000000 1.0
C      1  0.4075160000000  0.5154970000000  0.4663840000000 1.0
C      1  0.5169730000000  0.4851680000000  0.5975580000000 1.0
C      1  0.5757770000000  0.4852380000000  0.4368740000000 1.0
C      1  0.4075150000000  0.4851260000000  0.4663830000000 1.0
C      1  0.4232450000000  0.5307300000000  0.4410020000000 1.0
C      1  0.5897170000000  0.5304690000000  0.4631940000000 1.0
C      1  0.4872740000000  0.5307610000000  0.5963520000000 1.0
C      1  0.4232430000000  0.4698930000000  0.4410000000000 1.0
C      1  0.5897150000000  0.4701390000000  0.4631930000000 1.0
C      1  0.4872710000000  0.4698480000000  0.5963500000000 1.0
C      1  0.4234760000000  0.5304430000000  0.5593190000000 1.0
C      1  0.5897840000000  0.5305280000000  0.5372050000000 1.0
C      1  0.4870960000000  0.5306200000000  0.4038020000000 1.0
C      1  0.4234740000000  0.4701730000000  0.5593170000000 1.0
C      1  0.5897810000000  0.4700760000000  0.5372040000000 1.0
C      1  0.4870940000000  0.4700000000000  0.4038000000000 1.0
C      1  0.5470060000000  0.5805520000000  0.5537500000000 1.0
C      1  0.4300930000000  0.5800870000000  0.5133420000000 1.0
C      1  0.5232840000000  0.5800240000000  0.4324990000000 1.0
C      1  0.5469990000000  0.4200550000000  0.5537450000000 1.0
C      1  0.4300860000000  0.4205320000000  0.5133370000000 1.0
C      1  0.5232770000000  0.4205920000000  0.4324940000000 1.0
C      1  0.5465890000000  0.5798220000000  0.4465590000000 1.0
C      1  0.4304480000000  0.5807630000000  0.4859780000000 1.0
C      1  0.5233580000000  0.5805310000000  0.5673930000000 1.0
C      1  0.5465820000000  0.4207910000000  0.4465550000000 1.0
C      1  0.4304410000000  0.4198570000000  0.4859740000000 1.0
C      1  0.5233520000000  0.4200770000000  0.5673880000000 1.0
C      1  0.5624690000000  0.5574020000000  0.4444320000000 1.0
C      1  0.5171160000000  0.5577790000000  0.5819330000000 1.0
C      1  0.4207980000000  0.5579980000000  0.4735350000000 1.0
C      1  0.5624650000000  0.4432090000000  0.4444290000000 1.0
C      1  0.5171110000000  0.4428280000000  0.5819300000000 1.0
C      1  0.4207930000000  0.4426240000000  0.4735320000000 1.0
C      1  0.5625520000000  0.5577260000000  0.5558040000000 1.0
C      1  0.5170580000000  0.5574090000000  0.4179530000000 1.0
C      1  0.4207030000000  0.5576540000000  0.5262680000000 1.0
C      1  0.5625480000000  0.4428790000000  0.5558000000000 1.0
C      1  0.5170540000000  0.4432080000000  0.4179500000000 1.0
C      1  0.4206980000000  0.4429650000000  0.5262640000000 1.0
C      1  0.5016850000000  0.3927910000000  0.5290490000000 1.0
C      1  0.4757470000000  0.3928470000000  0.4836990000000 1.0
C      1  0.5250610000000  0.3951540000000  0.4856750000000 1.0
C      1  0.5016940000000  0.6078200000000  0.5290550000000 1.0
C      1  0.4757560000000  0.6077690000000  0.4837050000000 1.0
C      1  0.5250700000000  0.6054590000000  0.4856810000000 1.0
C      1  0.5004800000000  0.3940510000000  0.4702530000000 1.0
C      1  0.4783620000000  0.3968720000000  0.5124410000000 1.0
C      1  0.5260220000000  0.3939940000000  0.5143770000000 1.0
C      1  0.5004890000000  0.6065640000000  0.4702590000000 1.0
C      1  0.4783710000000  0.6037430000000  0.5124470000000 1.0
C      1  0.5260310000000  0.6066170000000  0.5143830000000 1.0
C      1  0.5714450000000  0.4246330000000  0.5144240000000 1.0
C      1  0.4520170000000  0.4248840000000  0.5545950000000 1.0
C      1  0.4768840000000  0.4241040000000  0.4307760000000 1.0
C      1  0.5714520000000  0.5759740000000  0.5144280000000 1.0
C      1  0.4520230000000  0.5757300000000  0.5545990000000 1.0
C      1  0.4768900000000  0.5765160000000  0.4307810000000 1.0
C      1  0.5710820000000  0.4248750000000  0.4858510000000 1.0
C      1  0.4520090000000  0.4240050000000  0.4450150000000 1.0
C      1  0.4770460000000  0.4242550000000  0.5687820000000 1.0
C      1  0.5710880000000  0.5757330000000  0.4858550000000 1.0
C      1  0.4520160000000  0.5766160000000  0.4450190000000 1.0
C      1  0.4770530000000  0.5763570000000  0.5687860000000 1.0
C      1  0.4909700000000  0.5003070000000  0.5064850000000 1.0
END
