TITL C-105230-9138-2 -0.0168876789857638 125000 -86.9000885080534 0 0 14 (Cs) n - 1
REM
REM in /rds/project/t2_vol4/rds-t2-cs072/BORA/CARBON/from-Arr/AIRSS/Generating-Clusters/GAP-ML-2020/Higher-Symm/SD-CG/HFTN-CG
REM
REM
REM
REM
REM
REM ./C.cell (b20cbc046b6831c77cfcea5457e17084)
REM AIRSS Version 0.9.1 bugfix July 2018 build 013d7b7c2542+ Fri, 06 Jul 2018 19:26:36 +0100
REM compiler GCC version 9.3.0
REM options -cpp -mtune=generic -march=x86-64 -g -O0
REM seed 1004648718 1757420027 1473289326 293205787 -637845957 -858482343 -1445524064 -1736161642 1670002640 -2100788057 -314464597 -360393230 1977938740 1528947240 -1139342638 -182267876 636801666 1625553903 -9685284 -117893366 -716438794 -2141479136 -1951487797 -333330660 1792968339 627468289 183994773 991117101 734170026 764812741 -1368473164 2051962546 -346458974
REM
CELL 1.54180   50.00000   50.00000   50.00000   90.00000   90.00000   90.00000
LATT -1
SFAC C  
C      1  0.5316570000000  0.5131700000000  0.5261060000000 1.0
C      1  0.5327680000000  0.5110510000000  0.4771760000000 1.0
C      1  0.5315870000000  0.4690740000000  0.5024010000000 1.0
C      1  0.4614470000000  0.5184850000000  0.5546620000000 1.0
C      1  0.4636500000000  0.5261220000000  0.4493430000000 1.0
C      1  0.4613270000000  0.4424960000000  0.5138150000000 1.0
C      1  0.5050430000000  0.5116390000000  0.4761640000000 1.0
C      1  0.5037770000000  0.4694480000000  0.5023940000000 1.0
C      1  0.5038460000000  0.5130390000000  0.5258260000000 1.0
C      1  0.4824620000000  0.4542680000000  0.5077130000000 1.0
C      1  0.4825610000000  0.5170280000000  0.5414490000000 1.0
C      1  0.4839900000000  0.5193050000000  0.4619650000000 1.0
C      1  0.5343420000000  0.4975680000000  0.5022530000000 1.0
C      1  0.5042350000000  0.4981500000000  0.5012590000000 1.0
END
