TITL C-109996-9515-8 -0.0126995629277579 125000 -51.311035716429 0 0 8 (D(inf)h) n - 1
REM
REM in /rds/project/t2_vol4/rds-t2-cs072/BORA/CARBON/from-Arr/AIRSS/Generating-Clusters/GAP-ML-2020/Higher-Symm/SD-CG/HFTN-CG
REM
REM
REM
REM
REM
REM ./C.cell (b20cbc046b6831c77cfcea5457e17084)
REM AIRSS Version 0.9.1 bugfix July 2018 build 013d7b7c2542+ Fri, 06 Jul 2018 19:26:36 +0100
REM compiler GCC version 9.3.0
REM options -cpp -mtune=generic -march=x86-64 -g -O0
REM seed -1608568638 967810610 -1870750264 848242407 -1448290735 -1475372388 -579759109 -403850122 -1617446621 2055504811 -1474616464 593431856 763950939 -1101710027 -1597931877 -1477096179 -560686158 291994073 -987186533 604097994 -1719686019 -347566015 -484008813 1899260710 478179590 76473101 941790423 -142789657 489459272 -1879101454 86739 -470894702 -1775290297
REM
CELL 1.54180   50.00000   50.00000   50.00000   90.00000   90.00000   90.00000
LATT -1
SFAC C  
C      1  0.4992350000000  0.5007270000000  0.5896510000000 1.0
C      1  0.4992350000000  0.5007270000000  0.5381020000000 1.0
C      1  0.4992350000000  0.5007270000000  0.4103490000000 1.0
C      1  0.4992350000000  0.5007270000000  0.4618980000000 1.0
C      1  0.4992350000000  0.5007270000000  0.5130250000000 1.0
C      1  0.4992350000000  0.5007270000000  0.5641290000000 1.0
C      1  0.4992350000000  0.5007270000000  0.4358710000000 1.0
C      1  0.4992350000000  0.5007270000000  0.4869750000000 1.0
END
