TITL C-103936-4955-3 -0.187066118942202 125000 -1238.25907607819 0 0 174 (S4) n - 1
REM
REM in /rds/project/t2_vol4/rds-t2-cs072/BORA/CARBON/from-Arr/AIRSS/Generating-Clusters/GAP-ML-2020/Higher-Symm/SD-CG/HFTN-CG/C160-200
REM
REM
REM
REM
REM
REM ./C.cell (6b4489405718ea1b717e0baf1da4c2d9)
REM AIRSS Version 0.9.1 bugfix July 2018 build 013d7b7c2542+ Fri, 06 Jul 2018 19:26:36 +0100
REM compiler GCC version 9.3.0
REM options -cpp -mtune=generic -march=x86-64 -g -O0
REM seed 1171613905 488188668 757514128 1014523274 1892663600 -219673591 -1188198385 396459188 -1867146014 1370380029 -1443017910 -1728695498 1858172921 1106363968 564071256 -1772176414 275881920 -379272936 -1106110068 -1156220818 -491120980 -178080291 1596946064 2014515819 -74015562 -1600495334 1732443953 783782252 -1491957035 -1619776594 265738241 1356188157 1094713592
REM
CELL 1.54180   50.00000   50.00000   50.00000   90.00000   90.00000   90.00000
LATT -1
SFAC C  
C      1  0.5358650000000  0.4395680000000  0.5660670000000 1.0
C      1  0.4641470000000  0.4342160000000  0.4396180000000 1.0
C      1  0.5358410000000  0.5606770000000  0.4342660000000 1.0
C      1  0.4641470000000  0.5660170000000  0.5607280000000 1.0
C      1  0.3964500000000  0.4995310000000  0.5259800000000 1.0
C      1  0.6035550000000  0.4743280000000  0.4995810000000 1.0
C      1  0.3964450000000  0.5006890000000  0.4743790000000 1.0
C      1  0.6035500000000  0.5259290000000  0.5007380000000 1.0
C      1  0.5239580000000  0.5156880000000  0.4258200000000 1.0
C      1  0.4760280000000  0.5744650000000  0.5157380000000 1.0
C      1  0.5239750000000  0.4845550000000  0.5745150000000 1.0
C      1  0.4760390000000  0.4257690000000  0.4846060000000 1.0
C      1  0.4953500000000  0.5932620000000  0.4564940000000 1.0
C      1  0.5046430000000  0.5437960000000  0.5933120000000 1.0
C      1  0.4953750000000  0.4069760000000  0.5438460000000 1.0
C      1  0.5046330000000  0.4564440000000  0.4070260000000 1.0
C      1  0.4243250000000  0.4944000000000  0.5127270000000 1.0
C      1  0.5756780000000  0.4875760000000  0.4944500000000 1.0
C      1  0.4243210000000  0.5058250000000  0.4876270000000 1.0
C      1  0.5756770000000  0.5126760000000  0.5058750000000 1.0
C      1  0.5829760000000  0.5470390000000  0.4366250000000 1.0
C      1  0.4170130000000  0.5636480000000  0.5470890000000 1.0
C      1  0.5829960000000  0.4532150000000  0.5636980000000 1.0
C      1  0.4170150000000  0.4365760000000  0.4532660000000 1.0
C      1  0.4338700000000  0.5293260000000  0.5790920000000 1.0
C      1  0.5661450000000  0.4212090000000  0.5293760000000 1.0
C      1  0.4338600000000  0.4709000000000  0.4212600000000 1.0
C      1  0.5661250000000  0.5790420000000  0.4709510000000 1.0
C      1  0.4141520000000  0.5378330000000  0.5602380000000 1.0
C      1  0.5858590000000  0.4400670000000  0.5378830000000 1.0
C      1  0.4141470000000  0.4623900000000  0.4401180000000 1.0
C      1  0.5858410000000  0.5601870000000  0.4624400000000 1.0
C      1  0.4684060000000  0.4970260000000  0.4029860000000 1.0
C      1  0.5315760000000  0.5973090000000  0.4970760000000 1.0
C      1  0.4684240000000  0.5032070000000  0.5973600000000 1.0
C      1  0.5315940000000  0.4029350000000  0.5032570000000 1.0
C      1  0.5972610000000  0.5232320000000  0.4458230000000 1.0
C      1  0.4027290000000  0.5544480000000  0.5232830000000 1.0
C      1  0.5972750000000  0.4770240000000  0.5544980000000 1.0
C      1  0.4027350000000  0.4457730000000  0.4770750000000 1.0
C      1  0.5551610000000  0.4726280000000  0.4092440000000 1.0
C      1  0.4448220000000  0.5910350000000  0.4726790000000 1.0
C      1  0.5551730000000  0.5276200000000  0.5910850000000 1.0
C      1  0.4448440000000  0.4091940000000  0.5276710000000 1.0
C      1  0.5047340000000  0.4622400000000  0.5968240000000 1.0
C      1  0.4952840000000  0.4034640000000  0.4622900000000 1.0
C      1  0.5047090000000  0.5380000000000  0.4035140000000 1.0
C      1  0.4952730000000  0.5967740000000  0.5380500000000 1.0
C      1  0.4607920000000  0.5187820000000  0.4495990000000 1.0
C      1  0.5391990000000  0.5506970000000  0.5188320000000 1.0
C      1  0.4608050000000  0.4814500000000  0.5507480000000 1.0
C      1  0.5392050000000  0.4495490000000  0.4815000000000 1.0
C      1  0.5989820000000  0.5285040000000  0.5542010000000 1.0
C      1  0.4010280000000  0.4460700000000  0.5285540000000 1.0
C      1  0.5989770000000  0.4717530000000  0.4461200000000 1.0
C      1  0.4010130000000  0.5541510000000  0.4718040000000 1.0
C      1  0.5214120000000  0.5946920000000  0.5247360000000 1.0
C      1  0.4785930000000  0.4755490000000  0.5947430000000 1.0
C      1  0.5214240000000  0.4055500000000  0.4755990000000 1.0
C      1  0.4785710000000  0.5246860000000  0.4056010000000 1.0
C      1  0.4712440000000  0.6009500000000  0.5233560000000 1.0
C      1  0.5287610000000  0.4769390000000  0.6010000000000 1.0
C      1  0.4712580000000  0.3992840000000  0.4769890000000 1.0
C      1  0.5287370000000  0.5233050000000  0.3993340000000 1.0
C      1  0.5395730000000  0.5184250000000  0.4696060000000 1.0
C      1  0.4604210000000  0.5306750000000  0.5184760000000 1.0
C      1  0.5395830000000  0.4818210000000  0.5307250000000 1.0
C      1  0.4604230000000  0.4695560000000  0.4818710000000 1.0
C      1  0.4116050000000  0.4651630000000  0.5648390000000 1.0
C      1  0.5884070000000  0.4354660000000  0.4652130000000 1.0
C      1  0.4115870000000  0.5350600000000  0.4355170000000 1.0
C      1  0.5884010000000  0.5647880000000  0.5351100000000 1.0
C      1  0.4163180000000  0.5613270000000  0.4482030000000 1.0
C      1  0.5836730000000  0.5521020000000  0.5613770000000 1.0
C      1  0.4163390000000  0.4388960000000  0.5521520000000 1.0
C      1  0.5836710000000  0.4481520000000  0.4389460000000 1.0
C      1  0.5524400000000  0.5241950000000  0.5192810000000 1.0
C      1  0.4475630000000  0.4809980000000  0.5242460000000 1.0
C      1  0.5524410000000  0.4760530000000  0.4810480000000 1.0
C      1  0.4475550000000  0.5192310000000  0.4761030000000 1.0
C      1  0.4679580000000  0.5025500000000  0.5148800000000 1.0
C      1  0.5320450000000  0.4854150000000  0.5026000000000 1.0
C      1  0.4679560000000  0.4976830000000  0.4854650000000 1.0
C      1  0.5320410000000  0.5148300000000  0.4977330000000 1.0
C      1  0.4395370000000  0.4209850000000  0.4524130000000 1.0
C      1  0.5604540000000  0.5478870000000  0.4210350000000 1.0
C      1  0.4395320000000  0.5792420000000  0.5479370000000 1.0
C      1  0.5604770000000  0.4523630000000  0.5792920000000 1.0
C      1  0.4445180000000  0.5920580000000  0.5223840000000 1.0
C      1  0.5554860000000  0.4779150000000  0.5921080000000 1.0
C      1  0.4445310000000  0.4081700000000  0.4779660000000 1.0
C      1  0.5554650000000  0.5223340000000  0.4082210000000 1.0
C      1  0.4556630000000  0.5416210000000  0.4931120000000 1.0
C      1  0.5443360000000  0.5071850000000  0.5416710000000 1.0
C      1  0.4556720000000  0.4586100000000  0.5072360000000 1.0
C      1  0.5443290000000  0.4930610000000  0.4586600000000 1.0
C      1  0.6009410000000  0.5368570000000  0.4719110000000 1.0
C      1  0.3990540000000  0.5283590000000  0.5369080000000 1.0
C      1  0.6009530000000  0.4634000000000  0.5284090000000 1.0
C      1  0.3990520000000  0.4718610000000  0.4634510000000 1.0
C      1  0.4994920000000  0.5482280000000  0.4852860000000 1.0
C      1  0.5005050000000  0.5150030000000  0.5482780000000 1.0
C      1  0.4995040000000  0.4520110000000  0.5150530000000 1.0
C      1  0.5004990000000  0.4852360000000  0.4520610000000 1.0
C      1  0.4399060000000  0.5765570000000  0.4482590000000 1.0
C      1  0.5600850000000  0.5520410000000  0.5766070000000 1.0
C      1  0.4399300000000  0.4236710000000  0.5520920000000 1.0
C      1  0.5600800000000  0.4482080000000  0.4237210000000 1.0
C      1  0.3953320000000  0.5275800000000  0.4589520000000 1.0
C      1  0.6046600000000  0.5413570000000  0.5276300000000 1.0
C      1  0.3953450000000  0.4726390000000  0.5414070000000 1.0
C      1  0.6046620000000  0.4589010000000  0.4726890000000 1.0
C      1  0.4592130000000  0.4626130000000  0.5761260000000 1.0
C      1  0.5408010000000  0.4241700000000  0.4626630000000 1.0
C      1  0.4591920000000  0.5376180000000  0.4242210000000 1.0
C      1  0.5407940000000  0.5760760000000  0.5376690000000 1.0
C      1  0.4890380000000  0.5774440000000  0.4328710000000 1.0
C      1  0.5109500000000  0.5674200000000  0.5774950000000 1.0
C      1  0.4890650000000  0.4227920000000  0.5674700000000 1.0
C      1  0.5109470000000  0.4328210000000  0.4228420000000 1.0
C      1  0.4905210000000  0.4190720000000  0.4373730000000 1.0
C      1  0.5094670000000  0.5629180000000  0.4191220000000 1.0
C      1  0.4905180000000  0.5811650000000  0.5629680000000 1.0
C      1  0.5094940000000  0.4373230000000  0.5812150000000 1.0
C      1  0.4731140000000  0.5905480000000  0.4743440000000 1.0
C      1  0.5268820000000  0.5259500000000  0.5905980000000 1.0
C      1  0.4731350000000  0.4096860000000  0.5260010000000 1.0
C      1  0.5268690000000  0.4742930000000  0.4097360000000 1.0
C      1  0.5018180000000  0.5317790000000  0.4633210000000 1.0
C      1  0.4981750000000  0.5369670000000  0.5318290000000 1.0
C      1  0.5018310000000  0.4684600000000  0.5370180000000 1.0
C      1  0.4981760000000  0.4632710000000  0.4685110000000 1.0
C      1  0.5590150000000  0.4117030000000  0.5030280000000 1.0
C      1  0.4409850000000  0.4972500000000  0.4117530000000 1.0
C      1  0.5589990000000  0.5885470000000  0.4973000000000 1.0
C      1  0.4410010000000  0.5029780000000  0.5885970000000 1.0
C      1  0.5428360000000  0.4186860000000  0.5458160000000 1.0
C      1  0.4571720000000  0.4544650000000  0.4187360000000 1.0
C      1  0.5428120000000  0.5815610000000  0.4545150000000 1.0
C      1  0.4571790000000  0.5457660000000  0.5816110000000 1.0
C      1  0.5218690000000  0.5949030000000  0.4686710000000 1.0
C      1  0.4781250000000  0.5316140000000  0.5949540000000 1.0
C      1  0.5218920000000  0.4053390000000  0.5316640000000 1.0
C      1  0.4781130000000  0.4686210000000  0.4053900000000 1.0
C      1  0.5143590000000  0.5391270000000  0.5079370000000 1.0
C      1  0.4856420000000  0.4923490000000  0.5391780000000 1.0
C      1  0.5143650000000  0.4611140000000  0.4924000000000 1.0
C      1  0.4856330000000  0.5078870000000  0.4611640000000 1.0
C      1  0.5380730000000  0.4325190000000  0.4340850000000 1.0
C      1  0.4619150000000  0.5661970000000  0.4325690000000 1.0
C      1  0.5380730000000  0.5677270000000  0.5662470000000 1.0
C      1  0.4619390000000  0.4340340000000  0.5677770000000 1.0
C      1  0.5237600000000  0.4891790000000  0.4360630000000 1.0
C      1  0.4762280000000  0.5642210000000  0.4892290000000 1.0
C      1  0.5237700000000  0.5110640000000  0.5642710000000 1.0
C      1  0.4762420000000  0.4360130000000  0.5111150000000 1.0
C      1  0.5675380000000  0.4197510000000  0.4763180000000 1.0
C      1  0.4324570000000  0.5239580000000  0.4198020000000 1.0
C      1  0.5675280000000  0.5805000000000  0.5240080000000 1.0
C      1  0.4324770000000  0.4762680000000  0.5805510000000 1.0
C      1  0.4739340000000  0.4487100000000  0.4664930000000 1.0
C      1  0.5260590000000  0.5338000000000  0.4487600000000 1.0
C      1  0.4739320000000  0.5515240000000  0.5338510000000 1.0
C      1  0.5260750000000  0.4664430000000  0.5515740000000 1.0
C      1  0.4299190000000  0.5864920000000  0.4973860000000 1.0
C      1  0.5700810000000  0.5029160000000  0.5865420000000 1.0
C      1  0.4299350000000  0.4137340000000  0.5029670000000 1.0
C      1  0.5700650000000  0.4973350000000  0.4137840000000 1.0
C      1  0.4071920000000  0.5668830000000  0.4972240000000 1.0
C      1  0.5928080000000  0.5030820000000  0.5669330000000 1.0
C      1  0.4072050000000  0.4333390000000  0.5031330000000 1.0
C      1  0.5927950000000  0.4971740000000  0.4333890000000 1.0
C      1  0.3833700000000  0.5001090000000  0.5001810000000 1.0
C      1  0.6166300000000  0.5001300000000  0.5001590000000 1.0
END
