TITL C-109505-6400-3 44.1421765082061 125000 -755.536341113751 0 0 108 (C1) n - 1
REM
REM in /rds/project/t2_vol4/rds-t2-cs072/BORA/CARBON/from-Arr/AIRSS/Generating-Clusters/GAP-ML-2020/Higher-Symm/SD-CG/HFTN-CG
REM
REM
REM
REM
REM
REM ./C.cell (b20cbc046b6831c77cfcea5457e17084)
REM AIRSS Version 0.9.1 bugfix July 2018 build 013d7b7c2542+ Fri, 06 Jul 2018 19:26:36 +0100
REM compiler GCC version 9.3.0
REM options -cpp -mtune=generic -march=x86-64 -g -O0
REM seed -1311149707 -265599605 -1477886477 -1682196493 1825726953 1236322007 1026755795 1355398314 805831084 -1061457278 -397987390 63914587 -929374634 2063439763 -1010248366 1246688013 1711846212 -2090504653 -977572392 1546763743 -346709261 -948481761 1375222155 507737497 1264485085 1527767154 -230627151 -1494036234 1528617781 -1141456933 -1681211401 -69779374 734206916
REM
CELL 1.54180   50.00000   50.00000   50.00000   90.00000   90.00000   90.00000
LATT -1
SFAC C  
C      1  0.4680970000000  0.5676070000000  0.4706840000000 1.0
C      1  0.4619330000000  0.5535240000000  0.4977450000000 1.0
C      1  0.4683860000000  0.5656110000000  0.5242950000000 1.0
C      1  0.4924320000000  0.5530470000000  0.5388940000000 1.0
C      1  0.5192950000000  0.5656260000000  0.5386430000000 1.0
C      1  0.5373950000000  0.5542540000000  0.5165680000000 1.0
C      1  0.5386540000000  0.5673540000000  0.4900200000000 1.0
C      1  0.5184520000000  0.5549180000000  0.4696520000000 1.0
C      1  0.4957890000000  0.5693210000000  0.4568440000000 1.0
C      1  0.5120050000000  0.4147340000000  0.4592640000000 1.0
C      1  0.4832640000000  0.4136910000000  0.4609840000000 1.0
C      1  0.4616660000000  0.4128110000000  0.4804540000000 1.0
C      1  0.4584090000000  0.4129170000000  0.5090340000000 1.0
C      1  0.4748830000000  0.4137640000000  0.5328760000000 1.0
C      1  0.5025090000000  0.4142280000000  0.5412080000000 1.0
C      1  0.5289930000000  0.4149030000000  0.5297400000000 1.0
C      1  0.5422930000000  0.4152610000000  0.5042810000000 1.0
C      1  0.5350740000000  0.4153800000000  0.4765600000000 1.0
C      1  0.5209300000000  0.6098470000000  0.4700770000000 1.0
C      1  0.4970740000000  0.5989000000000  0.4631590000000 1.0
C      1  0.4707040000000  0.5973600000000  0.4769640000000 1.0
C      1  0.4620840000000  0.6075390000000  0.5005850000000 1.0
C      1  0.4717560000000  0.5961690000000  0.5245290000000 1.0
C      1  0.4924540000000  0.6052450000000  0.5404340000000 1.0
C      1  0.5182080000000  0.5959210000000  0.5356200000000 1.0
C      1  0.5366000000000  0.6060070000000  0.5174640000000 1.0
C      1  0.5358240000000  0.5980780000000  0.4910560000000 1.0
C      1  0.4686500000000  0.5399110000000  0.4307490000000 1.0
C      1  0.4304360000000  0.5394180000000  0.4666280000000 1.0
C      1  0.4247890000000  0.5407060000000  0.5198430000000 1.0
C      1  0.4556210000000  0.5389030000000  0.5615600000000 1.0
C      1  0.5067590000000  0.5395000000000  0.5786700000000 1.0
C      1  0.5540580000000  0.5391130000000  0.5559360000000 1.0
C      1  0.5785340000000  0.5414620000000  0.5075510000000 1.0
C      1  0.5616700000000  0.5404310000000  0.4581350000000 1.0
C      1  0.5196260000000  0.5390980000000  0.4267210000000 1.0
C      1  0.5652730000000  0.4860490000000  0.4558160000000 1.0
C      1  0.5219210000000  0.4855250000000  0.4241560000000 1.0
C      1  0.4682210000000  0.4846540000000  0.4266070000000 1.0
C      1  0.4299250000000  0.4837440000000  0.4642830000000 1.0
C      1  0.4258840000000  0.4853950000000  0.5171980000000 1.0
C      1  0.4529260000000  0.4843190000000  0.5632930000000 1.0
C      1  0.5046460000000  0.4851860000000  0.5767340000000 1.0
C      1  0.5552430000000  0.4845930000000  0.5578070000000 1.0
C      1  0.5765620000000  0.4865700000000  0.5086930000000 1.0
C      1  0.5006880000000  0.4658150000000  0.5336710000000 1.0
C      1  0.5208780000000  0.4799360000000  0.5236150000000 1.0
C      1  0.5327140000000  0.4650870000000  0.5046600000000 1.0
C      1  0.5264370000000  0.4811860000000  0.4842080000000 1.0
C      1  0.5121400000000  0.4673730000000  0.4663800000000 1.0
C      1  0.4896650000000  0.4810990000000  0.4709640000000 1.0
C      1  0.4735950000000  0.4624420000000  0.4817830000000 1.0
C      1  0.4688120000000  0.4621550000000  0.5068480000000 1.0
C      1  0.4805940000000  0.4798880000000  0.5229750000000 1.0
C      1  0.5564060000000  0.5125110000000  0.4615280000000 1.0
C      1  0.5208550000000  0.5122910000000  0.4239920000000 1.0
C      1  0.4733480000000  0.5117090000000  0.4339840000000 1.0
C      1  0.4356510000000  0.5112950000000  0.4662350000000 1.0
C      1  0.4311910000000  0.5133430000000  0.5156610000000 1.0
C      1  0.4571450000000  0.5110380000000  0.5557040000000 1.0
C      1  0.5031300000000  0.5126110000000  0.5706200000000 1.0
C      1  0.5486540000000  0.5113430000000  0.5525160000000 1.0
C      1  0.5707850000000  0.5142300000000  0.5090120000000 1.0
C      1  0.5441210000000  0.4442510000000  0.4400380000000 1.0
C      1  0.4954020000000  0.4435110000000  0.4257230000000 1.0
C      1  0.4489350000000  0.4427190000000  0.4456880000000 1.0
C      1  0.4263400000000  0.4427150000000  0.4909180000000 1.0
C      1  0.4381620000000  0.4431950000000  0.5397290000000 1.0
C      1  0.4787680000000  0.4431640000000  0.5701270000000 1.0
C      1  0.5291940000000  0.4435520000000  0.5673920000000 1.0
C      1  0.5664070000000  0.4441750000000  0.5325140000000 1.0
C      1  0.5718840000000  0.4448980000000  0.4825190000000 1.0
C      1  0.4230630000000  0.4707860000000  0.4905610000000 1.0
C      1  0.4348340000000  0.4711010000000  0.5424390000000 1.0
C      1  0.4775370000000  0.4709230000000  0.5750010000000 1.0
C      1  0.5315140000000  0.4712150000000  0.5720590000000 1.0
C      1  0.5706730000000  0.4719100000000  0.5349810000000 1.0
C      1  0.5760630000000  0.4727650000000  0.4812550000000 1.0
C      1  0.5474370000000  0.4719360000000  0.4360280000000 1.0
C      1  0.4945060000000  0.4709260000000  0.4199890000000 1.0
C      1  0.4458040000000  0.4706540000000  0.4420620000000 1.0
C      1  0.5453330000000  0.4316590000000  0.5472080000000 1.0
C      1  0.5663190000000  0.4317240000000  0.5070590000000 1.0
C      1  0.5548070000000  0.4324350000000  0.4634440000000 1.0
C      1  0.5188760000000  0.4312880000000  0.4360940000000 1.0
C      1  0.4737910000000  0.4307190000000  0.4390950000000 1.0
C      1  0.4401650000000  0.4298210000000  0.4696030000000 1.0
C      1  0.4348470000000  0.4297740000000  0.5147870000000 1.0
C      1  0.4607310000000  0.4309170000000  0.5518990000000 1.0
C      1  0.5038790000000  0.4306380000000  0.5654660000000 1.0
C      1  0.4763260000000  0.5085240000000  0.5278810000000 1.0
C      1  0.5002050000000  0.5213190000000  0.5380710000000 1.0
C      1  0.5257280000000  0.5091290000000  0.5295520000000 1.0
C      1  0.5393280000000  0.5220760000000  0.5078800000000 1.0
C      1  0.5316280000000  0.5107080000000  0.4816660000000 1.0
C      1  0.5087680000000  0.5262530000000  0.4743860000000 1.0
C      1  0.4860340000000  0.5097600000000  0.4642530000000 1.0
C      1  0.4622290000000  0.5128480000000  0.4791350000000 1.0
C      1  0.4621830000000  0.5214260000000  0.5056290000000 1.0
C      1  0.5632060000000  0.5520570000000  0.5306370000000 1.0
C      1  0.5657970000000  0.5538730000000  0.4829750000000 1.0
C      1  0.5372260000000  0.5508880000000  0.4464950000000 1.0
C      1  0.4939330000000  0.5536300000000  0.4310680000000 1.0
C      1  0.4511610000000  0.5527250000000  0.4513830000000 1.0
C      1  0.4320040000000  0.5515630000000  0.4933430000000 1.0
C      1  0.4443510000000  0.5528400000000  0.5392430000000 1.0
C      1  0.4822630000000  0.5510090000000  0.5665510000000 1.0
C      1  0.5296420000000  0.5520600000000  0.5638040000000 1.0
END
