TITL C-107706-8616-2 -0.045873220043122 125000 -1136.70285082901 0 0 162 (Td) n - 1
REM
REM in /rds/project/t2_vol4/rds-t2-cs072/BORA/CARBON/from-Arr/AIRSS/Generating-Clusters/GAP-ML-2020/Higher-Symm/SD-CG/HFTN-CG/C160-200
REM
REM
REM
REM
REM
REM ./C.cell (6b4489405718ea1b717e0baf1da4c2d9)
REM AIRSS Version 0.9.1 bugfix July 2018 build 013d7b7c2542+ Fri, 06 Jul 2018 19:26:36 +0100
REM compiler GCC version 9.3.0
REM options -cpp -mtune=generic -march=x86-64 -g -O0
REM seed 1291079620 1362717939 1601598504 -541093656 -2062187882 149316708 343684606 64428500 924224920 -976155836 -201226661 937076180 376480774 -1785923970 -868639241 -525118715 -1174310025 944664885 1586069767 -997020108 1767933454 -1609068299 1897327433 723269398 -668331322 -1950463476 -1109106338 -792692106 -640328079 -1306166000 -1990810250 518034047 -908087619
REM
CELL 1.54180   50.00000   50.00000   50.00000   90.00000   90.00000   90.00000
LATT -1
SFAC C  
C      1  0.5213980000000  0.5414380000000  0.5007290000000 1.0
C      1  0.5417260000000  0.5008140000000  0.5210340000000 1.0
C      1  0.5010980000000  0.5211140000000  0.5413570000000 1.0
C      1  0.4787760000000  0.4581560000000  0.5007350000000 1.0
C      1  0.5214020000000  0.4581580000000  0.4987110000000 1.0
C      1  0.4787730000000  0.5414360000000  0.4987010000000 1.0
C      1  0.4584470000000  0.4987840000000  0.5210300000000 1.0
C      1  0.5417280000000  0.4987840000000  0.4784080000000 1.0
C      1  0.4584480000000  0.5008060000000  0.4784040000000 1.0
C      1  0.4990740000000  0.4784880000000  0.5413610000000 1.0
C      1  0.5011030000000  0.4784810000000  0.4580810000000 1.0
C      1  0.4990750000000  0.5211060000000  0.4580770000000 1.0
C      1  0.5417260000000  0.5211120000000  0.5007320000000 1.0
C      1  0.5010980000000  0.5414390000000  0.5210280000000 1.0
C      1  0.5213980000000  0.5008150000000  0.5413600000000 1.0
C      1  0.4584480000000  0.4784830000000  0.5007320000000 1.0
C      1  0.4584470000000  0.5211080000000  0.4987020000000 1.0
C      1  0.5417280000000  0.4784860000000  0.4987100000000 1.0
C      1  0.4990750000000  0.4581590000000  0.5210360000000 1.0
C      1  0.4990740000000  0.5414350000000  0.4784020000000 1.0
C      1  0.5011030000000  0.4581550000000  0.4784100000000 1.0
C      1  0.4787730000000  0.4987870000000  0.5413580000000 1.0
C      1  0.4787760000000  0.5008050000000  0.4580780000000 1.0
C      1  0.5214020000000  0.4987810000000  0.4580800000000 1.0
C      1  0.4855720000000  0.5874470000000  0.5468970000000 1.0
C      1  0.5877320000000  0.5469860000000  0.4852090000000 1.0
C      1  0.5472710000000  0.4852980000000  0.5873690000000 1.0
C      1  0.5145990000000  0.4121560000000  0.5469140000000 1.0
C      1  0.4855840000000  0.4121460000000  0.4525400000000 1.0
C      1  0.5145950000000  0.5874400000000  0.4525250000000 1.0
C      1  0.4124440000000  0.4526050000000  0.4852100000000 1.0
C      1  0.5877350000000  0.4526160000000  0.5142370000000 1.0
C      1  0.4124390000000  0.5469810000000  0.5142210000000 1.0
C      1  0.4528960000000  0.5143130000000  0.5873620000000 1.0
C      1  0.5472770000000  0.5143010000000  0.4120740000000 1.0
C      1  0.4529050000000  0.4852780000000  0.4120720000000 1.0
C      1  0.5877320000000  0.4852960000000  0.5469110000000 1.0
C      1  0.5472710000000  0.5874440000000  0.4852040000000 1.0
C      1  0.4855720000000  0.5469910000000  0.5873600000000 1.0
C      1  0.4124390000000  0.5143070000000  0.5469010000000 1.0
C      1  0.4124440000000  0.4852790000000  0.4525300000000 1.0
C      1  0.5877350000000  0.5143060000000  0.4525350000000 1.0
C      1  0.4529050000000  0.4121480000000  0.4852150000000 1.0
C      1  0.4528960000000  0.5874430000000  0.5142190000000 1.0
C      1  0.5472770000000  0.4121550000000  0.5142390000000 1.0
C      1  0.5145950000000  0.4526190000000  0.5873700000000 1.0
C      1  0.5145990000000  0.5469770000000  0.4120690000000 1.0
C      1  0.4855840000000  0.4526020000000  0.4120770000000 1.0
C      1  0.4389500000000  0.5813220000000  0.5406360000000 1.0
C      1  0.5816120000000  0.5407230000000  0.4385880000000 1.0
C      1  0.5410140000000  0.4386750000000  0.5812500000000 1.0
C      1  0.5612210000000  0.4182800000000  0.5406570000000 1.0
C      1  0.4389610000000  0.4182670000000  0.4587970000000 1.0
C      1  0.5612170000000  0.5813200000000  0.4587870000000 1.0
C      1  0.4185680000000  0.4588610000000  0.4385880000000 1.0
C      1  0.5816100000000  0.4588790000000  0.5608580000000 1.0
C      1  0.4185590000000  0.5407260000000  0.5608430000000 1.0
C      1  0.4591540000000  0.5609340000000  0.5812360000000 1.0
C      1  0.5410160000000  0.5609230000000  0.4181920000000 1.0
C      1  0.4591660000000  0.4386560000000  0.4181990000000 1.0
C      1  0.5816120000000  0.4386730000000  0.5406560000000 1.0
C      1  0.5410140000000  0.5813170000000  0.4385820000000 1.0
C      1  0.4389500000000  0.5407290000000  0.5812370000000 1.0
C      1  0.4185590000000  0.5609290000000  0.5406370000000 1.0
C      1  0.4185680000000  0.4386580000000  0.4587940000000 1.0
C      1  0.5816100000000  0.5609290000000  0.4587900000000 1.0
C      1  0.4591660000000  0.4182660000000  0.4385930000000 1.0
C      1  0.4591540000000  0.5813250000000  0.5608410000000 1.0
C      1  0.5410160000000  0.4182810000000  0.5608600000000 1.0
C      1  0.5612170000000  0.4588800000000  0.5812490000000 1.0
C      1  0.5612210000000  0.5407200000000  0.4181940000000 1.0
C      1  0.4389610000000  0.4588600000000  0.4181960000000 1.0
C      1  0.4213040000000  0.4624500000000  0.5570620000000 1.0
C      1  0.4627400000000  0.5571310000000  0.4209300000000 1.0
C      1  0.5574350000000  0.4210140000000  0.4623800000000 1.0
C      1  0.5788650000000  0.5371540000000  0.5570620000000 1.0
C      1  0.4213060000000  0.5371370000000  0.4423700000000 1.0
C      1  0.5788740000000  0.4624470000000  0.4423840000000 1.0
C      1  0.5374420000000  0.4424490000000  0.4209440000000 1.0
C      1  0.4627380000000  0.4424600000000  0.5785050000000 1.0
C      1  0.5374300000000  0.5571490000000  0.5784980000000 1.0
C      1  0.4427430000000  0.5785730000000  0.4623610000000 1.0
C      1  0.5574250000000  0.5785850000000  0.5370630000000 1.0
C      1  0.4427470000000  0.4210160000000  0.5370720000000 1.0
C      1  0.4627400000000  0.4210190000000  0.5570670000000 1.0
C      1  0.5574350000000  0.4624440000000  0.4209430000000 1.0
C      1  0.4213040000000  0.5571330000000  0.4623620000000 1.0
C      1  0.5374300000000  0.5785860000000  0.5570560000000 1.0
C      1  0.5374420000000  0.4210120000000  0.4423850000000 1.0
C      1  0.4627380000000  0.5785730000000  0.4423680000000 1.0
C      1  0.4427470000000  0.5371360000000  0.4209310000000 1.0
C      1  0.4427430000000  0.4624530000000  0.5785020000000 1.0
C      1  0.5574250000000  0.5371550000000  0.5785010000000 1.0
C      1  0.5788740000000  0.4424550000000  0.4623790000000 1.0
C      1  0.5788650000000  0.5571470000000  0.5370660000000 1.0
C      1  0.4213060000000  0.4424550000000  0.5370690000000 1.0
C      1  0.4907730000000  0.4361680000000  0.5842330000000 1.0
C      1  0.4364480000000  0.5843020000000  0.4903950000000 1.0
C      1  0.5845990000000  0.4904820000000  0.4360880000000 1.0
C      1  0.5093950000000  0.5634410000000  0.5842220000000 1.0
C      1  0.4907750000000  0.5634250000000  0.4152050000000 1.0
C      1  0.5094080000000  0.4361540000000  0.4152170000000 1.0
C      1  0.5637280000000  0.4152910000000  0.4904160000000 1.0
C      1  0.4364550000000  0.4152870000000  0.5090380000000 1.0
C      1  0.5637190000000  0.5843090000000  0.5090280000000 1.0
C      1  0.4155820000000  0.5091010000000  0.4360790000000 1.0
C      1  0.5845920000000  0.5091210000000  0.5633580000000 1.0
C      1  0.4155770000000  0.4904860000000  0.5633520000000 1.0
C      1  0.4364480000000  0.4904880000000  0.5842250000000 1.0
C      1  0.5845990000000  0.4361640000000  0.4904150000000 1.0
C      1  0.4907730000000  0.5842990000000  0.4360750000000 1.0
C      1  0.5637190000000  0.5091210000000  0.5842290000000 1.0
C      1  0.5637280000000  0.4904790000000  0.4152150000000 1.0
C      1  0.4364550000000  0.5091000000000  0.4152070000000 1.0
C      1  0.4155770000000  0.5634290000000  0.4903960000000 1.0
C      1  0.4155820000000  0.4361580000000  0.5090350000000 1.0
C      1  0.5845920000000  0.5634380000000  0.5090310000000 1.0
C      1  0.5094080000000  0.4152840000000  0.4360910000000 1.0
C      1  0.5093950000000  0.5843120000000  0.5633480000000 1.0
C      1  0.4907750000000  0.4152940000000  0.5633620000000 1.0
C      1  0.5179030000000  0.5381760000000  0.4405940000000 1.0
C      1  0.5384730000000  0.4406780000000  0.5175410000000 1.0
C      1  0.4409620000000  0.5176130000000  0.5380980000000 1.0
C      1  0.4822770000000  0.4614080000000  0.4405990000000 1.0
C      1  0.5179010000000  0.4614200000000  0.5588460000000 1.0
C      1  0.4822680000000  0.5381850000000  0.5588380000000 1.0
C      1  0.4617010000000  0.5589200000000  0.5175270000000 1.0
C      1  0.5384690000000  0.5589200000000  0.4819010000000 1.0
C      1  0.4617080000000  0.4406710000000  0.4819080000000 1.0
C      1  0.5592090000000  0.4819890000000  0.5381070000000 1.0
C      1  0.4409670000000  0.4819760000000  0.4613350000000 1.0
C      1  0.5592110000000  0.5176110000000  0.4613370000000 1.0
C      1  0.5384730000000  0.5176080000000  0.4405970000000 1.0
C      1  0.4409620000000  0.5381800000000  0.5175280000000 1.0
C      1  0.5179030000000  0.4406790000000  0.5381090000000 1.0
C      1  0.4617080000000  0.4819760000000  0.4405960000000 1.0
C      1  0.4617010000000  0.5176160000000  0.5588390000000 1.0
C      1  0.5384690000000  0.4819900000000  0.5588450000000 1.0
C      1  0.5592110000000  0.4614180000000  0.5175400000000 1.0
C      1  0.5592090000000  0.5381820000000  0.4819040000000 1.0
C      1  0.4409670000000  0.4614100000000  0.4819050000000 1.0
C      1  0.4822680000000  0.5589230000000  0.5380960000000 1.0
C      1  0.4822770000000  0.4406700000000  0.4613400000000 1.0
C      1  0.5179010000000  0.5589170000000  0.4613310000000 1.0
C      1  0.4810670000000  0.4807620000000  0.3990770000000 1.0
C      1  0.4810670000000  0.3991520000000  0.4807020000000 1.0
C      1  0.3994460000000  0.4807650000000  0.4806910000000 1.0
C      1  0.5191170000000  0.5188150000000  0.3990760000000 1.0
C      1  0.4810560000000  0.5188310000000  0.6003590000000 1.0
C      1  0.5191090000000  0.4807820000000  0.6003640000000 1.0
C      1  0.5191090000000  0.6004390000000  0.4806850000000 1.0
C      1  0.4810560000000  0.6004410000000  0.5187350000000 1.0
C      1  0.5191170000000  0.3991570000000  0.5187550000000 1.0
C      1  0.6007300000000  0.5188260000000  0.4806960000000 1.0
C      1  0.3994430000000  0.5188200000000  0.5187390000000 1.0
C      1  0.6007300000000  0.4807780000000  0.5187510000000 1.0
C      1  0.3914870000000  0.4997920000000  0.4997140000000 1.0
C      1  0.5000920000000  0.4997870000000  0.3911190000000 1.0
C      1  0.5000920000000  0.3911970000000  0.4997290000000 1.0
C      1  0.6086880000000  0.4998020000000  0.4997240000000 1.0
C      1  0.5000830000000  0.4998070000000  0.6083200000000 1.0
C      1  0.5000830000000  0.6083980000000  0.4997090000000 1.0
END
