TITL C-100751-6449-1 -230.634634646106 125000 -561.683646842365 0 0 81 (Cs) n - 1
REM
REM in /rds/project/t2_vol4/rds-t2-cs072/BORA/CARBON/from-Arr/AIRSS/Generating-Clusters/GAP-ML-2020/Higher-Symm/SD-CG/HFTN-CG
REM
REM
REM
REM
REM
REM ./C.cell (b20cbc046b6831c77cfcea5457e17084)
REM AIRSS Version 0.9.1 bugfix July 2018 build 013d7b7c2542+ Fri, 06 Jul 2018 19:26:36 +0100
REM compiler GCC version 9.3.0
REM options -cpp -mtune=generic -march=x86-64 -g -O0
REM seed -1863646437 -336211511 246870094 -239906781 -651001419 -1886466243 828750036 -1686476585 -310360504 -1294422761 -494305483 -729798325 481752828 -2076283230 848314888 652520396 -756995746 806461529 1805609725 -864712150 828494293 -1645375157 1489423152 997808574 1582446006 -817077134 583001401 940526474 1204165314 2109803798 -977064219 1460596457 -1513282964
REM
CELL 1.54180   50.00000   50.00000   50.00000   90.00000   90.00000   90.00000
LATT -1
SFAC C  
C      1  0.5634710000000  0.5757460000000  0.5042560000000 1.0
C      1  0.5696730000000  0.5508740000000  0.4638400000000 1.0
C      1  0.5686040000000  0.5126100000000  0.4336900000000 1.0
C      1  0.5652630000000  0.4643380000000  0.4359620000000 1.0
C      1  0.5652460000000  0.4323360000000  0.4717800000000 1.0
C      1  0.5685630000000  0.4354900000000  0.5200030000000 1.0
C      1  0.5696300000000  0.4697410000000  0.5546450000000 1.0
C      1  0.5634370000000  0.5126940000000  0.5748240000000 1.0
C      1  0.5685210000000  0.5456000000000  0.5407750000000 1.0
C      1  0.5010290000000  0.4644340000000  0.5295840000000 1.0
C      1  0.4998950000000  0.4912180000000  0.5462720000000 1.0
C      1  0.4993370000000  0.5228430000000  0.5416000000000 1.0
C      1  0.4993490000000  0.5439000000000  0.5180330000000 1.0
C      1  0.4999240000000  0.5449950000000  0.4860840000000 1.0
C      1  0.5010620000000  0.5254080000000  0.4613410000000 1.0
C      1  0.5004940000000  0.4941780000000  0.4547910000000 1.0
C      1  0.4991320000000  0.4662930000000  0.4698830000000 1.0
C      1  0.5004730000000  0.4544230000000  0.4992850000000 1.0
C      1  0.4294010000000  0.5420500000000  0.5375370000000 1.0
C      1  0.4345640000000  0.5725680000000  0.5013710000000 1.0
C      1  0.4316380000000  0.5478750000000  0.4607070000000 1.0
C      1  0.4383890000000  0.5173980000000  0.4243520000000 1.0
C      1  0.4307910000000  0.4741650000000  0.4441720000000 1.0
C      1  0.4307730000000  0.4416590000000  0.4805520000000 1.0
C      1  0.4383400000000  0.4268090000000  0.5257400000000 1.0
C      1  0.4315940000000  0.4663570000000  0.5519440000000 1.0
C      1  0.4345310000000  0.5095320000000  0.5719220000000 1.0
C      1  0.5794420000000  0.5242320000000  0.5553870000000 1.0
C      1  0.5794600000000  0.5577180000000  0.5179090000000 1.0
C      1  0.5802190000000  0.5602340000000  0.4886950000000 1.0
C      1  0.5816000000000  0.5338670000000  0.4460280000000 1.0
C      1  0.5789520000000  0.4873790000000  0.4286980000000 1.0
C      1  0.5770800000000  0.4430230000000  0.4491290000000 1.0
C      1  0.5789200000000  0.4276960000000  0.4954970000000 1.0
C      1  0.5815550000000  0.4501290000000  0.5397490000000 1.0
C      1  0.5801850000000  0.4954850000000  0.5611640000000 1.0
C      1  0.5222370000000  0.4509870000000  0.4562180000000 1.0
C      1  0.5246220000000  0.4362060000000  0.4984110000000 1.0
C      1  0.5266610000000  0.4516140000000  0.5398930000000 1.0
C      1  0.5240320000000  0.4881530000000  0.5650790000000 1.0
C      1  0.5237760000000  0.5316200000000  0.5578570000000 1.0
C      1  0.5237910000000  0.5610270000000  0.5249450000000 1.0
C      1  0.5240720000000  0.5633280000000  0.4809420000000 1.0
C      1  0.5267050000000  0.5342020000000  0.4474590000000 1.0
C      1  0.5246510000000  0.4912550000000  0.4368000000000 1.0
C      1  0.4739610000000  0.5600510000000  0.5240520000000 1.0
C      1  0.4752420000000  0.5620580000000  0.4800180000000 1.0
C      1  0.4771810000000  0.5352730000000  0.4446410000000 1.0
C      1  0.4768300000000  0.4919050000000  0.4354020000000 1.0
C      1  0.4728200000000  0.4549230000000  0.4597110000000 1.0
C      1  0.4768000000000  0.4349130000000  0.4991890000000 1.0
C      1  0.4771350000000  0.4489570000000  0.5412470000000 1.0
C      1  0.4752020000000  0.4871150000000  0.5638940000000 1.0
C      1  0.4739450000000  0.5306470000000  0.5569610000000 1.0
C      1  0.4601490000000  0.4646120000000  0.5570780000000 1.0
C      1  0.4625890000000  0.5104500000000  0.5724250000000 1.0
C      1  0.4573120000000  0.5482480000000  0.5430890000000 1.0
C      1  0.4626220000000  0.5731580000000  0.5022420000000 1.0
C      1  0.4601960000000  0.5527680000000  0.4584130000000 1.0
C      1  0.4664060000000  0.5164630000000  0.4271030000000 1.0
C      1  0.4594520000000  0.4707960000000  0.4414020000000 1.0
C      1  0.4594340000000  0.4385150000000  0.4775310000000 1.0
C      1  0.4663600000000  0.4294250000000  0.5245170000000 1.0
C      1  0.5352730000000  0.5120910000000  0.5739900000000 1.0
C      1  0.5400670000000  0.5501400000000  0.5448180000000 1.0
C      1  0.5353060000000  0.5748630000000  0.5037350000000 1.0
C      1  0.5408380000000  0.5540710000000  0.4605880000000 1.0
C      1  0.5397250000000  0.5143220000000  0.4331510000000 1.0
C      1  0.5362880000000  0.4660250000000  0.4372440000000 1.0
C      1  0.5362710000000  0.4338130000000  0.4732960000000 1.0
C      1  0.5396830000000  0.4351600000000  0.5217500000000 1.0
C      1  0.5407920000000  0.4668820000000  0.5581720000000 1.0
C      1  0.4199510000000  0.5559270000000  0.4849580000000 1.0
C      1  0.4214210000000  0.5281900000000  0.4434480000000 1.0
C      1  0.4207590000000  0.4998390000000  0.4366630000000 1.0
C      1  0.4187240000000  0.4558620000000  0.4605250000000 1.0
C      1  0.4207260000000  0.4370820000000  0.5069020000000 1.0
C      1  0.4213780000000  0.4470030000000  0.5343130000000 1.0
C      1  0.4199170000000  0.4913630000000  0.5572190000000 1.0
C      1  0.4190730000000  0.5199700000000  0.5514790000000 1.0
C      1  0.4190900000000  0.5534320000000  0.5140270000000 1.0
END
