TITL C-101406-5126-1 0.00540639133649403 125000 -58.3518446378539 0 0 9 (D(inf)h) n - 1
REM
REM in /rds/project/t2_vol4/rds-t2-cs072/BORA/CARBON/from-Arr/AIRSS/Generating-Clusters/GAP-ML-2020/Higher-Symm/SD-CG/HFTN-CG
REM
REM
REM
REM
REM
REM ./C.cell (b20cbc046b6831c77cfcea5457e17084)
REM AIRSS Version 0.9.1 bugfix July 2018 build 013d7b7c2542+ Fri, 06 Jul 2018 19:26:36 +0100
REM compiler GCC version 9.3.0
REM options -cpp -mtune=generic -march=x86-64 -g -O0
REM seed -31346796 -225776413 704573819 -670867740 1169311391 -1593959473 2011927897 1127138787 -2021295479 1646614662 -692632507 -572752588 -553254010 779516410 -1239004983 1852972509 823187007 -1805891263 -1678460463 -440789046 -223666531 1845632273 19005806 595591575 1250865166 -339233483 -1115302515 -1198948563 1039891333 649494117 1548008774 1301161851 1985538288
REM
CELL 1.54180   50.00000   50.00000   50.00000   90.00000   90.00000   90.00000
LATT -1
SFAC C  
C      1  0.4998840000000  0.5256270000000  0.5008260000000 1.0
C      1  0.4998840000000  0.5769040000000  0.5008260000000 1.0
C      1  0.4998840000000  0.3974880000000  0.5008260000000 1.0
C      1  0.4998840000000  0.5509740000000  0.5008260000000 1.0
C      1  0.4998840000000  0.4743730000000  0.5008260000000 1.0
C      1  0.4998840000000  0.5000000000000  0.5008260000000 1.0
C      1  0.4998840000000  0.6025120000000  0.5008260000000 1.0
C      1  0.4998840000000  0.4230960000000  0.5008260000000 1.0
C      1  0.4998840000000  0.4490260000000  0.5008260000000 1.0
END
