TITL C-101420-5162-11 0.0406802972016027 125000 -168.947029682191 0 0 26 (C2h) n - 1
REM
REM in /rds/project/t2_vol4/rds-t2-cs072/BORA/CARBON/from-Arr/AIRSS/Generating-Clusters/GAP-ML-2020/Higher-Symm/SD-CG/HFTN-CG
REM
REM
REM
REM
REM
REM ./C.cell (b20cbc046b6831c77cfcea5457e17084)
REM AIRSS Version 0.9.1 bugfix July 2018 build 013d7b7c2542+ Fri, 06 Jul 2018 19:26:36 +0100
REM compiler GCC version 9.3.0
REM options -cpp -mtune=generic -march=x86-64 -g -O0
REM seed -2049231073 -250793562 -2070319117 -868395803 571138001 -1496831616 154208612 -1925528174 1632456013 -1741866085 1692137155 479603129 -1267052341 304339797 -899000234 1421952579 -1916548337 -309983973 -2094379762 1960204871 1441176396 302761003 759702234 1081022506 1174395342 -306439391 1967026821 -1934954830 -332198427 674800932 -1542904672 630692864 -871634089
REM
CELL 1.54180   50.00000   50.00000   50.00000   90.00000   90.00000   90.00000
LATT -1
SFAC C  
C      1  0.5096210000000  0.5484450000000  0.5174250000000 1.0
C      1  0.4807660000000  0.5484160000000  0.5083460000000 1.0
C      1  0.4812800000000  0.5388630000000  0.4805020000000 1.0
C      1  0.5251600000000  0.5389060000000  0.4943080000000 1.0
C      1  0.5178990000000  0.4567430000000  0.5176460000000 1.0
C      1  0.4740190000000  0.4567000000000  0.5038410000000 1.0
C      1  0.4895570000000  0.4471610000000  0.4807240000000 1.0
C      1  0.5184130000000  0.4471900000000  0.4898020000000 1.0
C      1  0.5340610000000  0.4899390000000  0.5446060000000 1.0
C      1  0.4452720000000  0.4898500000000  0.5166710000000 1.0
C      1  0.4728220000000  0.4811450000000  0.4529860000000 1.0
C      1  0.5479530000000  0.4812200000000  0.4766230000000 1.0
C      1  0.5263560000000  0.5144610000000  0.5451630000000 1.0
C      1  0.4512250000000  0.5143860000000  0.5215250000000 1.0
C      1  0.4651170000000  0.5056670000000  0.4535430000000 1.0
C      1  0.5539070000000  0.5057560000000  0.4814780000000 1.0
C      1  0.4484620000000  0.4658000000000  0.5071420000000 1.0
C      1  0.4806680000000  0.4563620000000  0.4566330000000 1.0
C      1  0.5394770000000  0.4564210000000  0.4751360000000 1.0
C      1  0.5369450000000  0.4658880000000  0.5349810000000 1.0
C      1  0.4597010000000  0.5391850000000  0.5230120000000 1.0
C      1  0.4622340000000  0.5297180000000  0.4631670000000 1.0
C      1  0.5507160000000  0.5298060000000  0.4910060000000 1.0
C      1  0.5185110000000  0.5392430000000  0.5415150000000 1.0
C      1  0.4933430000000  0.4696950000000  0.5190180000000 1.0
C      1  0.5058360000000  0.5259110000000  0.4791310000000 1.0
END
