TITL C-105261-9252-3 0.126616562474823 125000 -478.032205621574 0 0 70 (C1) n - 1
REM
REM in /rds/project/t2_vol4/rds-t2-cs072/BORA/CARBON/from-Arr/AIRSS/Generating-Clusters/GAP-ML-2020/Higher-Symm/SD-CG/HFTN-CG
REM
REM
REM
REM
REM
REM ./C.cell (b20cbc046b6831c77cfcea5457e17084)
REM AIRSS Version 0.9.1 bugfix July 2018 build 013d7b7c2542+ Fri, 06 Jul 2018 19:26:36 +0100
REM compiler GCC version 9.3.0
REM options -cpp -mtune=generic -march=x86-64 -g -O0
REM seed 266019965 -158413044 2092915070 768164814 -311098624 -1530250044 -59647031 1445955940 1331985699 954435077 -1974775361 -41729568 271129775 1702972110 -485671269 -1670057548 -507066273 -2078279102 2126171393 685636005 -166991445 1431241251 -1872499896 1074345881 1153383391 -604309781 -1391280210 -2016682990 -1705166072 -1595342011 -2079510853 889705274 -172280816
REM
CELL 1.54180   50.00000   50.00000   50.00000   90.00000   90.00000   90.00000
LATT -1
SFAC C  
C      1  0.5435390000000  0.4586370000000  0.4537350000000 1.0
C      1  0.4396120000000  0.4806150000000  0.4532630000000 1.0
C      1  0.5123250000000  0.5622310000000  0.4527490000000 1.0
C      1  0.4554130000000  0.4564880000000  0.4537900000000 1.0
C      1  0.5576810000000  0.4837920000000  0.4554100000000 1.0
C      1  0.4838790000000  0.5602740000000  0.4539430000000 1.0
C      1  0.4483020000000  0.4887410000000  0.5520970000000 1.0
C      1  0.5158390000000  0.5494340000000  0.5515640000000 1.0
C      1  0.5363720000000  0.4618840000000  0.5524650000000 1.0
C      1  0.5463110000000  0.4882490000000  0.5537210000000 1.0
C      1  0.4875140000000  0.5470550000000  0.5531520000000 1.0
C      1  0.4662600000000  0.4669010000000  0.5526030000000 1.0
C      1  0.4471030000000  0.5474780000000  0.5181850000000 1.0
C      1  0.5680470000000  0.5235960000000  0.5185050000000 1.0
C      1  0.4860990000000  0.4310510000000  0.5184620000000 1.0
C      1  0.5545980000000  0.5490810000000  0.5166930000000 1.0
C      1  0.4309790000000  0.5234210000000  0.5169260000000 1.0
C      1  0.5150590000000  0.4291340000000  0.5175490000000 1.0
C      1  0.5334840000000  0.5331640000000  0.5651140000000 1.0
C      1  0.5122010000000  0.4562890000000  0.5634190000000 1.0
C      1  0.4550520000000  0.5127020000000  0.5640260000000 1.0
C      1  0.4802970000000  0.5222140000000  0.5666210000000 1.0
C      1  0.4914250000000  0.4734660000000  0.5655710000000 1.0
C      1  0.5285860000000  0.5065540000000  0.5677440000000 1.0
C      1  0.4749090000000  0.5505240000000  0.5261220000000 1.0
C      1  0.5568350000000  0.4979080000000  0.5275730000000 1.0
C      1  0.4700010000000  0.4541600000000  0.5258040000000 1.0
C      1  0.5270530000000  0.5525990000000  0.5243770000000 1.0
C      1  0.4416620000000  0.4977730000000  0.5247160000000 1.0
C      1  0.5318000000000  0.4515450000000  0.5251730000000 1.0
C      1  0.4377040000000  0.4799770000000  0.5024810000000 1.0
C      1  0.5137300000000  0.5658230000000  0.5027850000000 1.0
C      1  0.5513530000000  0.4554380000000  0.5037370000000 1.0
C      1  0.5648940000000  0.4788590000000  0.5052180000000 1.0
C      1  0.4865030000000  0.5671500000000  0.5043610000000 1.0
C      1  0.4501220000000  0.4555980000000  0.5036640000000 1.0
C      1  0.5328850000000  0.4510060000000  0.4795090000000 1.0
C      1  0.4420460000000  0.4971360000000  0.4783440000000 1.0
C      1  0.5264220000000  0.5539770000000  0.4782510000000 1.0
C      1  0.4678700000000  0.4511750000000  0.4794950000000 1.0
C      1  0.5598840000000  0.4964020000000  0.4814060000000 1.0
C      1  0.4741120000000  0.5540600000000  0.4802540000000 1.0
C      1  0.5242000000000  0.4693730000000  0.4333440000000 1.0
C      1  0.4564310000000  0.4913590000000  0.4312200000000 1.0
C      1  0.5121140000000  0.5406600000000  0.4317390000000 1.0
C      1  0.4731610000000  0.4665100000000  0.4317130000000 1.0
C      1  0.5377250000000  0.4954650000000  0.4375970000000 1.0
C      1  0.4831020000000  0.5371620000000  0.4346060000000 1.0
C      1  0.4735310000000  0.5015040000000  0.5226020000000 1.0
C      1  0.5137720000000  0.5242780000000  0.5238940000000 1.0
C      1  0.5144770000000  0.4762880000000  0.5159500000000 1.0
C      1  0.5287300000000  0.5015550000000  0.5171590000000 1.0
C      1  0.4874360000000  0.5244750000000  0.5138720000000 1.0
C      1  0.4855630000000  0.4779480000000  0.5140410000000 1.0
C      1  0.5545380000000  0.5487040000000  0.4875860000000 1.0
C      1  0.5147520000000  0.4287160000000  0.4883810000000 1.0
C      1  0.4316500000000  0.5235760000000  0.4876680000000 1.0
C      1  0.4469630000000  0.5479580000000  0.4891000000000 1.0
C      1  0.4858060000000  0.4297590000000  0.4892320000000 1.0
C      1  0.5686220000000  0.5233940000000  0.4893080000000 1.0
C      1  0.4883300000000  0.5250490000000  0.4835860000000 1.0
C      1  0.5301430000000  0.5018850000000  0.4872070000000 1.0
C      1  0.4857920000000  0.4779790000000  0.4821920000000 1.0
C      1  0.5171090000000  0.5244130000000  0.4737930000000 1.0
C      1  0.4730700000000  0.5031220000000  0.4716700000000 1.0
C      1  0.5153530000000  0.4764860000000  0.4844140000000 1.0
C      1  0.5265570000000  0.5201000000000  0.4447120000000 1.0
C      1  0.4991030000000  0.4634920000000  0.4248180000000 1.0
C      1  0.4698460000000  0.5134930000000  0.4426300000000 1.0
C      1  0.4999010000000  0.5007810000000  0.5714160000000 1.0
END
