TITL C-109507-8515-5 -0.00263983129498008 125000 -292.526826183308 0 0 43 (C1) n - 1
REM
REM in /rds/project/t2_vol4/rds-t2-cs072/BORA/CARBON/from-Arr/AIRSS/Generating-Clusters/GAP-ML-2020/Higher-Symm/SD-CG/HFTN-CG
REM
REM
REM
REM
REM
REM ./C.cell (b20cbc046b6831c77cfcea5457e17084)
REM AIRSS Version 0.9.1 bugfix July 2018 build 013d7b7c2542+ Fri, 06 Jul 2018 19:26:36 +0100
REM compiler GCC version 9.3.0
REM options -cpp -mtune=generic -march=x86-64 -g -O0
REM seed -891405031 1228908782 268178986 1833836426 1297092755 -2057654045 -1364679143 1459061076 -929078918 1855910929 1703486670 707879541 -1278995160 -1154947525 -1219407510 1368606164 -160156427 1557181296 1881178819 -2025503473 374931670 -2134819860 1010192822 -1632609279 -1796506831 2140482515 -1577475926 1465741357 -1821766244 -1174775712 217367187 -795150275 -253052127
REM
CELL 1.54180   50.00000   50.00000   50.00000   90.00000   90.00000   90.00000
LATT -1
SFAC C  
C      1  0.4703450000000  0.5477000000000  0.4988480000000 1.0
C      1  0.5449590000000  0.4825390000000  0.5438060000000 1.0
C      1  0.5523720000000  0.5040980000000  0.4769050000000 1.0
C      1  0.4648350000000  0.4537180000000  0.4946150000000 1.0
C      1  0.5216360000000  0.4482790000000  0.4994780000000 1.0
C      1  0.5278450000000  0.5532390000000  0.5005310000000 1.0
C      1  0.5326070000000  0.5192260000000  0.4621590000000 1.0
C      1  0.4640880000000  0.5221250000000  0.5373650000000 1.0
C      1  0.4702090000000  0.4773560000000  0.4554010000000 1.0
C      1  0.5553860000000  0.4807580000000  0.5192580000000 1.0
C      1  0.4479610000000  0.4878540000000  0.4698170000000 1.0
C      1  0.4436110000000  0.5147670000000  0.5190350000000 1.0
C      1  0.5088970000000  0.5414910000000  0.5238990000000 1.0
C      1  0.4601430000000  0.4745780000000  0.5360760000000 1.0
C      1  0.4515760000000  0.5155860000000  0.4718200000000 1.0
C      1  0.5088040000000  0.4556810000000  0.4736360000000 1.0
C      1  0.4751840000000  0.4534620000000  0.5212620000000 1.0
C      1  0.4907530000000  0.5393970000000  0.4778390000000 1.0
C      1  0.4757890000000  0.5228560000000  0.4589620000000 1.0
C      1  0.5303970000000  0.5280060000000  0.5397040000000 1.0
C      1  0.5281200000000  0.4701530000000  0.4558280000000 1.0
C      1  0.4409570000000  0.4858200000000  0.5185820000000 1.0
C      1  0.5497840000000  0.4755730000000  0.4730130000000 1.0
C      1  0.5516990000000  0.5318190000000  0.5201430000000 1.0
C      1  0.4434810000000  0.4728260000000  0.4933460000000 1.0
C      1  0.4800890000000  0.4548810000000  0.4699700000000 1.0
C      1  0.4870610000000  0.4991480000000  0.4470440000000 1.0
C      1  0.4489000000000  0.5295990000000  0.4956760000000 1.0
C      1  0.5527880000000  0.5574900000000  0.5091800000000 1.0
C      1  0.5467990000000  0.4623360000000  0.4984600000000 1.0
C      1  0.4799880000000  0.5443050000000  0.5261960000000 1.0
C      1  0.5195900000000  0.5420610000000  0.4752950000000 1.0
C      1  0.5035960000000  0.4551670000000  0.5211240000000 1.0
C      1  0.4732720000000  0.4971660000000  0.5497130000000 1.0
C      1  0.5154390000000  0.4972830000000  0.4513540000000 1.0
C      1  0.5274490000000  0.5025510000000  0.5524930000000 1.0
C      1  0.5005560000000  0.4938650000000  0.5502150000000 1.0
C      1  0.5536750000000  0.5075200000000  0.5054240000000 1.0
C      1  0.5011000000000  0.5216300000000  0.5018910000000 1.0
C      1  0.5046490000000  0.4870550000000  0.4812030000000 1.0
C      1  0.4825740000000  0.4960700000000  0.5019890000000 1.0
C      1  0.5037190000000  0.4843230000000  0.5227800000000 1.0
C      1  0.5221160000000  0.4997400000000  0.5029100000000 1.0
END
