TITL C-107730-8477-3 -38.2555122060867 125000 -1322.5120918573 0 0 184 (Ci) n - 1
REM
REM in /rds/project/t2_vol4/rds-t2-cs072/BORA/CARBON/from-Arr/AIRSS/Generating-Clusters/GAP-ML-2020/Higher-Symm/SD-CG/HFTN-CG/C160-200
REM
REM
REM
REM
REM
REM ./C.cell (6b4489405718ea1b717e0baf1da4c2d9)
REM AIRSS Version 0.9.1 bugfix July 2018 build 013d7b7c2542+ Fri, 06 Jul 2018 19:26:36 +0100
REM compiler GCC version 9.3.0
REM options -cpp -mtune=generic -march=x86-64 -g -O0
REM seed 1281610924 -350876909 252162045 -416287360 -390685195 -316254998 1789723298 -761010821 -900429358 1655942129 -1668234570 -254959474 -282813218 18977481 -574937477 -1841971188 940066760 961545047 1487139525 394035758 -422973545 8394511 -1266748652 1109693184 -275992176 -532091455 -1816493355 915849760 -274187035 -1960115853 -504756339 2130312021 -283185287
REM
CELL 1.54180   50.00000   50.00000   50.00000   90.00000   90.00000   90.00000
LATT -1
SFAC C  
C      1  0.3862620000000  0.5178130000000  0.5436100000000 1.0
C      1  0.3864050000000  0.4549510000000  0.5197400000000 1.0
C      1  0.3875790000000  0.4804620000000  0.4559630000000 1.0
C      1  0.3872940000000  0.5424600000000  0.4812770000000 1.0
C      1  0.6124210000000  0.5195380000000  0.5440370000000 1.0
C      1  0.6127060000000  0.4575400000000  0.5187230000000 1.0
C      1  0.6137380000000  0.4821870000000  0.4563900000000 1.0
C      1  0.6135950000000  0.5450490000000  0.4802600000000 1.0
C      1  0.4646760000000  0.4071020000000  0.5294010000000 1.0
C      1  0.4642370000000  0.4713640000000  0.4068960000000 1.0
C      1  0.4625120000000  0.5925580000000  0.4688970000000 1.0
C      1  0.4646650000000  0.5286260000000  0.5923380000000 1.0
C      1  0.5374880000000  0.4074420000000  0.5311030000000 1.0
C      1  0.5353350000000  0.4713740000000  0.4076620000000 1.0
C      1  0.5353240000000  0.5928980000000  0.4705990000000 1.0
C      1  0.5357630000000  0.5286360000000  0.5931040000000 1.0
C      1  0.4390480000000  0.4382900000000  0.4413600000000 1.0
C      1  0.4357910000000  0.5618460000000  0.4353370000000 1.0
C      1  0.4390440000000  0.5610330000000  0.5585330000000 1.0
C      1  0.4386720000000  0.4403920000000  0.5622770000000 1.0
C      1  0.5609560000000  0.4389670000000  0.4414670000000 1.0
C      1  0.5613280000000  0.5596080000000  0.4377230000000 1.0
C      1  0.5609520000000  0.5617100000000  0.5586400000000 1.0
C      1  0.5642090000000  0.4381540000000  0.5646630000000 1.0
C      1  0.4407470000000  0.4696220000000  0.5026010000000 1.0
C      1  0.4439190000000  0.5004630000000  0.4653010000000 1.0
C      1  0.4479140000000  0.5369810000000  0.4947690000000 1.0
C      1  0.4454700000000  0.5065700000000  0.5329680000000 1.0
C      1  0.5520860000000  0.4630190000000  0.5052310000000 1.0
C      1  0.5545300000000  0.4934300000000  0.4670320000000 1.0
C      1  0.5592530000000  0.5303780000000  0.4973990000000 1.0
C      1  0.5560810000000  0.4995370000000  0.5346990000000 1.0
C      1  0.4385940000000  0.5920460000000  0.4854790000000 1.0
C      1  0.4399160000000  0.5131140000000  0.5921750000000 1.0
C      1  0.4399720000000  0.4070250000000  0.5137430000000 1.0
C      1  0.4394380000000  0.4868670000000  0.4068790000000 1.0
C      1  0.5600280000000  0.5929750000000  0.4862570000000 1.0
C      1  0.5605620000000  0.5131330000000  0.5931210000000 1.0
C      1  0.5614060000000  0.4079540000000  0.5145210000000 1.0
C      1  0.5600840000000  0.4868860000000  0.4078250000000 1.0
C      1  0.5143060000000  0.4909430000000  0.3995270000000 1.0
C      1  0.5138940000000  0.6005550000000  0.4895820000000 1.0
C      1  0.5148360000000  0.5090220000000  0.6005800000000 1.0
C      1  0.5154600000000  0.4000900000000  0.5112390000000 1.0
C      1  0.4851640000000  0.4909780000000  0.3994200000000 1.0
C      1  0.4845400000000  0.5999100000000  0.4887610000000 1.0
C      1  0.4856940000000  0.5090570000000  0.6004730000000 1.0
C      1  0.4861060000000  0.3994450000000  0.5104180000000 1.0
C      1  0.4161810000000  0.5210400000000  0.5792210000000 1.0
C      1  0.4164660000000  0.4199980000000  0.5217950000000 1.0
C      1  0.4162250000000  0.4780870000000  0.4200200000000 1.0
C      1  0.4146300000000  0.5797340000000  0.4772760000000 1.0
C      1  0.5837750000000  0.5219130000000  0.5799800000000 1.0
C      1  0.5853700000000  0.4202660000000  0.5227240000000 1.0
C      1  0.5838190000000  0.4789600000000  0.4207790000000 1.0
C      1  0.5835340000000  0.5800020000000  0.4782050000000 1.0
C      1  0.5867290000000  0.4331280000000  0.5482080000000 1.0
C      1  0.5840320000000  0.4539400000000  0.4344830000000 1.0
C      1  0.5841010000000  0.5669550000000  0.4526930000000 1.0
C      1  0.5839720000000  0.5472900000000  0.5663020000000 1.0
C      1  0.4158990000000  0.4330450000000  0.5473070000000 1.0
C      1  0.4160280000000  0.4527100000000  0.4336980000000 1.0
C      1  0.4132710000000  0.5668720000000  0.4517920000000 1.0
C      1  0.4159680000000  0.5460600000000  0.5655170000000 1.0
C      1  0.4822310000000  0.4474950000000  0.4766620000000 1.0
C      1  0.4862470000000  0.5232370000000  0.4478360000000 1.0
C      1  0.4871370000000  0.5530000000000  0.5230940000000 1.0
C      1  0.4831560000000  0.4779730000000  0.5529130000000 1.0
C      1  0.5128630000000  0.4470000000000  0.4769060000000 1.0
C      1  0.5168440000000  0.5220270000000  0.4470870000000 1.0
C      1  0.5177690000000  0.5525050000000  0.5233380000000 1.0
C      1  0.5137530000000  0.4767630000000  0.5521640000000 1.0
C      1  0.5558890000000  0.4844050000000  0.5936680000000 1.0
C      1  0.5555700000000  0.4077290000000  0.4859750000000 1.0
C      1  0.5549900000000  0.5152520000000  0.4070780000000 1.0
C      1  0.5551160000000  0.5935430000000  0.5145580000000 1.0
C      1  0.4450100000000  0.4847480000000  0.5929220000000 1.0
C      1  0.4448840000000  0.4064570000000  0.4854420000000 1.0
C      1  0.4441110000000  0.5155950000000  0.4063320000000 1.0
C      1  0.4444300000000  0.5922710000000  0.5140250000000 1.0
C      1  0.5721790000000  0.5172730000000  0.5192520000000 1.0
C      1  0.5609540000000  0.4731010000000  0.5291000000000 1.0
C      1  0.5631770000000  0.4715490000000  0.4814000000000 1.0
C      1  0.5652220000000  0.5174430000000  0.4741820000000 1.0
C      1  0.4368230000000  0.5284510000000  0.5186000000000 1.0
C      1  0.4347780000000  0.4825570000000  0.5258180000000 1.0
C      1  0.4278210000000  0.4827270000000  0.4807480000000 1.0
C      1  0.4390460000000  0.5268990000000  0.4709000000000 1.0
C      1  0.5126970000000  0.4786860000000  0.5029800000000 1.0
C      1  0.5148040000000  0.4968410000000  0.4797170000000 1.0
C      1  0.5169920000000  0.5193770000000  0.4982230000000 1.0
C      1  0.5148980000000  0.5017660000000  0.5207200000000 1.0
C      1  0.4830080000000  0.4806230000000  0.5017770000000 1.0
C      1  0.4851020000000  0.4982340000000  0.4792800000000 1.0
C      1  0.4873030000000  0.5213140000000  0.4970200000000 1.0
C      1  0.4851960000000  0.5031590000000  0.5202830000000 1.0
C      1  0.4720350000000  0.5059350000000  0.5446620000000 1.0
C      1  0.4674370000000  0.4574260000000  0.5030140000000 1.0
C      1  0.4710560000000  0.4957350000000  0.4555330000000 1.0
C      1  0.4752660000000  0.5461700000000  0.4954630000000 1.0
C      1  0.5289440000000  0.5042650000000  0.5444670000000 1.0
C      1  0.5247340000000  0.4538300000000  0.5045370000000 1.0
C      1  0.5279650000000  0.4940650000000  0.4553380000000 1.0
C      1  0.5325630000000  0.5425740000000  0.4969860000000 1.0
C      1  0.3984960000000  0.5026120000000  0.5652870000000 1.0
C      1  0.3990910000000  0.4343460000000  0.5035280000000 1.0
C      1  0.3988180000000  0.4962070000000  0.4340480000000 1.0
C      1  0.3983560000000  0.5650050000000  0.4961540000000 1.0
C      1  0.6011820000000  0.5037930000000  0.5659520000000 1.0
C      1  0.6016440000000  0.4349950000000  0.5038460000000 1.0
C      1  0.6015040000000  0.4973880000000  0.4347130000000 1.0
C      1  0.6009090000000  0.5656540000000  0.4964720000000 1.0
C      1  0.5271790000000  0.5177500000000  0.4010030000000 1.0
C      1  0.5273270000000  0.5996230000000  0.5166450000000 1.0
C      1  0.5280460000000  0.4823610000000  0.5985550000000 1.0
C      1  0.5279520000000  0.4017860000000  0.4843930000000 1.0
C      1  0.4719540000000  0.5176390000000  0.4014450000000 1.0
C      1  0.4720480000000  0.5982140000000  0.5156070000000 1.0
C      1  0.4728210000000  0.4822500000000  0.5989970000000 1.0
C      1  0.4726730000000  0.4003770000000  0.4833550000000 1.0
C      1  0.6193790000000  0.5207010000000  0.4918140000000 1.0
C      1  0.6067150000000  0.5097090000000  0.5173340000000 1.0
C      1  0.6169090000000  0.4826860000000  0.5075470000000 1.0
C      1  0.6220510000000  0.4937030000000  0.4812570000000 1.0
C      1  0.3830910000000  0.5173140000000  0.4924530000000 1.0
C      1  0.3779490000000  0.5062970000000  0.5187430000000 1.0
C      1  0.3806210000000  0.4792990000000  0.5081860000000 1.0
C      1  0.3932850000000  0.4902910000000  0.4826660000000 1.0
C      1  0.5157080000000  0.4637850000000  0.5797180000000 1.0
C      1  0.5144350000000  0.4188740000000  0.4645350000000 1.0
C      1  0.5145040000000  0.5366380000000  0.4192380000000 1.0
C      1  0.5155770000000  0.5815670000000  0.5359260000000 1.0
C      1  0.4854960000000  0.4633620000000  0.5807620000000 1.0
C      1  0.4844230000000  0.4184330000000  0.4640740000000 1.0
C      1  0.4842920000000  0.5362150000000  0.4202820000000 1.0
C      1  0.4855650000000  0.5811260000000  0.5354650000000 1.0
C      1  0.5390170000000  0.4232740000000  0.5575330000000 1.0
C      1  0.5332400000000  0.4489220000000  0.4299440000000 1.0
C      1  0.5338090000000  0.5699320000000  0.4491760000000 1.0
C      1  0.5336940000000  0.5510480000000  0.5704080000000 1.0
C      1  0.4661910000000  0.4300680000000  0.5508240000000 1.0
C      1  0.4663060000000  0.4489520000000  0.4295920000000 1.0
C      1  0.4609830000000  0.5767260000000  0.4424670000000 1.0
C      1  0.4667600000000  0.5510780000000  0.5700560000000 1.0
C      1  0.4045780000000  0.4744780000000  0.5654820000000 1.0
C      1  0.4051510000000  0.4349180000000  0.4755420000000 1.0
C      1  0.4041120000000  0.5245180000000  0.4339900000000 1.0
C      1  0.4047680000000  0.5644490000000  0.5242080000000 1.0
C      1  0.5958880000000  0.4754820000000  0.5660100000000 1.0
C      1  0.5952320000000  0.4355510000000  0.4757920000000 1.0
C      1  0.5954220000000  0.5255220000000  0.4345180000000 1.0
C      1  0.5948490000000  0.5650820000000  0.5244580000000 1.0
C      1  0.5103290000000  0.4526620000000  0.5315820000000 1.0
C      1  0.5150620000000  0.4658770000000  0.4508180000000 1.0
C      1  0.5206110000000  0.5472230000000  0.4673930000000 1.0
C      1  0.5178810000000  0.5337210000000  0.5492080000000 1.0
C      1  0.4793890000000  0.4527770000000  0.5326070000000 1.0
C      1  0.4821190000000  0.4662790000000  0.4507920000000 1.0
C      1  0.4896710000000  0.5473380000000  0.4684180000000 1.0
C      1  0.4849380000000  0.5341230000000  0.5491810000000 1.0
C      1  0.5125580000000  0.5654010000000  0.4274930000000 1.0
C      1  0.5141060000000  0.5740560000000  0.5652440000000 1.0
C      1  0.5159850000000  0.4340930000000  0.5726280000000 1.0
C      1  0.5138880000000  0.4258340000000  0.4349770000000 1.0
C      1  0.4840150000000  0.5659070000000  0.4273720000000 1.0
C      1  0.4861120000000  0.5741660000000  0.5650230000000 1.0
C      1  0.4874420000000  0.4345990000000  0.5725070000000 1.0
C      1  0.4858940000000  0.4259440000000  0.4347560000000 1.0
C      1  0.6034200000000  0.5461470000000  0.4530590000000 1.0
C      1  0.6029890000000  0.5468960000000  0.5452370000000 1.0
C      1  0.6038760000000  0.4559290000000  0.5463690000000 1.0
C      1  0.6028930000000  0.4551530000000  0.4558260000000 1.0
C      1  0.3961240000000  0.5440710000000  0.4536310000000 1.0
C      1  0.3971070000000  0.5448470000000  0.5441740000000 1.0
C      1  0.3965800000000  0.4538530000000  0.5469410000000 1.0
C      1  0.3970110000000  0.4531040000000  0.4547630000000 1.0
C      1  0.5697770000000  0.5344230000000  0.4232810000000 1.0
C      1  0.5693120000000  0.5762190000000  0.5334170000000 1.0
C      1  0.5713600000000  0.4649780000000  0.5785420000000 1.0
C      1  0.5696660000000  0.4242010000000  0.4665050000000 1.0
C      1  0.4286400000000  0.5350220000000  0.4214580000000 1.0
C      1  0.4303340000000  0.5757990000000  0.5334950000000 1.0
C      1  0.4302230000000  0.4655770000000  0.5767190000000 1.0
C      1  0.4306880000000  0.4237810000000  0.4665830000000 1.0
END
