TITL C-100368-321-8 5.58345971108717 125000 -166.005012201901 0 0 26 (C1) n - 1
REM
REM in /rds/project/t2_vol4/rds-t2-cs072/BORA/CARBON/from-Arr/AIRSS/Generating-Clusters/GAP-ML-2020/Higher-Symm/SD-CG/HFTN-CG
REM
REM
REM
REM
REM
REM ./C.cell (b20cbc046b6831c77cfcea5457e17084)
REM AIRSS Version 0.9.1 bugfix July 2018 build 013d7b7c2542+ Fri, 06 Jul 2018 19:26:36 +0100
REM compiler GCC version 9.3.0
REM options -cpp -mtune=generic -march=x86-64 -g -O0
REM seed -1619215874 -1874446207 111984234 -1249520551 -1932417456 -1432496741 1979988599 1401086466 1360888 1919797406 1174315585 719722295 1662418514 -1811833899 -919839738 197240557 -874447893 -1314253953 587381872 1237156979 851778125 -1883030330 -1362969267 648542435 2111150750 2101504724 955616919 -1287283636 1056765348 -847621471 1565202426 1986446062 -418222591
REM
CELL 1.54180   50.00000   50.00000   50.00000   90.00000   90.00000   90.00000
LATT -1
SFAC C  
C      1  0.5273930000000  0.4974180000000  0.4961630000000 1.0
C      1  0.4629890000000  0.5257970000000  0.5292360000000 1.0
C      1  0.4951790000000  0.4869470000000  0.5282870000000 1.0
C      1  0.4927260000000  0.5266810000000  0.4928170000000 1.0
C      1  0.5351900000000  0.5406650000000  0.4685800000000 1.0
C      1  0.5536530000000  0.4684230000000  0.5277400000000 1.0
C      1  0.5085000000000  0.5316900000000  0.5377920000000 1.0
C      1  0.4948800000000  0.5084980000000  0.4456310000000 1.0
C      1  0.4854390000000  0.5033160000000  0.4713980000000 1.0
C      1  0.5219380000000  0.4998210000000  0.4469270000000 1.0
C      1  0.4422010000000  0.4859840000000  0.5245370000000 1.0
C      1  0.4569070000000  0.4799860000000  0.5017530000000 1.0
C      1  0.4843420000000  0.4733780000000  0.5061310000000 1.0
C      1  0.5486970000000  0.4833610000000  0.5079750000000 1.0
C      1  0.5328580000000  0.4589710000000  0.5449300000000 1.0
C      1  0.5140530000000  0.4610190000000  0.4646290000000 1.0
C      1  0.4427990000000  0.5085220000000  0.5369770000000 1.0
C      1  0.5037510000000  0.4785420000000  0.4859770000000 1.0
C      1  0.4846270000000  0.5369900000000  0.5448910000000 1.0
C      1  0.4584930000000  0.5041400000000  0.4842340000000 1.0
C      1  0.4647320000000  0.5286920000000  0.5003160000000 1.0
C      1  0.5086130000000  0.5115100000000  0.5157740000000 1.0
C      1  0.5104510000000  0.4706970000000  0.5424880000000 1.0
C      1  0.5238990000000  0.4716260000000  0.4433200000000 1.0
C      1  0.5328460000000  0.5128270000000  0.4702270000000 1.0
C      1  0.5128470000000  0.5445000000000  0.4812690000000 1.0
END
