TITL C-109519-6404-6 0.0346718220381402 125000 -456.536838812766 0 0 67 (C1) n - 1
REM
REM in /rds/project/t2_vol4/rds-t2-cs072/BORA/CARBON/from-Arr/AIRSS/Generating-Clusters/GAP-ML-2020/Higher-Symm/SD-CG/HFTN-CG
REM
REM
REM
REM
REM
REM ./C.cell (b20cbc046b6831c77cfcea5457e17084)
REM AIRSS Version 0.9.1 bugfix July 2018 build 013d7b7c2542+ Fri, 06 Jul 2018 19:26:36 +0100
REM compiler GCC version 9.3.0
REM options -cpp -mtune=generic -march=x86-64 -g -O0
REM seed 1608959520 -2125625342 353842561 -269912172 -2085287795 518839876 241890555 984144666 -281478422 -1896533230 -1918775654 -593222628 -1587645911 1042157378 -218275927 -1210729970 -1780445500 -307739213 -1196105155 346274352 -202942964 1813168133 134650862 -2089357294 1149399127 -96055939 784520352 -271303409 -2088990797 675488879 1971303494 -305933527 -7279486
REM
CELL 1.54180   50.00000   50.00000   50.00000   90.00000   90.00000   90.00000
LATT -1
SFAC C  
C      1  0.4738570000000  0.5631890000000  0.5126900000000 1.0
C      1  0.5305610000000  0.4305790000000  0.5106650000000 1.0
C      1  0.4771330000000  0.4384750000000  0.5117810000000 1.0
C      1  0.5244020000000  0.5637450000000  0.5129200000000 1.0
C      1  0.5466570000000  0.4553300000000  0.4691730000000 1.0
C      1  0.4525160000000  0.5443520000000  0.4730890000000 1.0
C      1  0.5425180000000  0.5402720000000  0.4682130000000 1.0
C      1  0.4563360000000  0.4603530000000  0.4693070000000 1.0
C      1  0.4752720000000  0.4397380000000  0.4813930000000 1.0
C      1  0.5248420000000  0.5623530000000  0.4812190000000 1.0
C      1  0.4736410000000  0.5625870000000  0.4838780000000 1.0
C      1  0.5264200000000  0.4359340000000  0.4822620000000 1.0
C      1  0.4631980000000  0.5277430000000  0.4525400000000 1.0
C      1  0.5351110000000  0.4722070000000  0.4492770000000 1.0
C      1  0.4614510000000  0.4774100000000  0.4457160000000 1.0
C      1  0.5360810000000  0.5234390000000  0.4447550000000 1.0
C      1  0.5086820000000  0.5267120000000  0.5026460000000 1.0
C      1  0.4990290000000  0.4730700000000  0.5065840000000 1.0
C      1  0.5180420000000  0.4618700000000  0.5272460000000 1.0
C      1  0.4816660000000  0.5201140000000  0.5052680000000 1.0
C      1  0.5237580000000  0.4765900000000  0.5508760000000 1.0
C      1  0.4728100000000  0.5274690000000  0.5519810000000 1.0
C      1  0.5273450000000  0.5225680000000  0.5477580000000 1.0
C      1  0.4736340000000  0.4747670000000  0.5515710000000 1.0
C      1  0.4862360000000  0.5858440000000  0.4703980000000 1.0
C      1  0.5120190000000  0.4140560000000  0.4683260000000 1.0
C      1  0.4864060000000  0.4154680000000  0.4679290000000 1.0
C      1  0.5119310000000  0.5855780000000  0.4681830000000 1.0
C      1  0.4891320000000  0.5725950000000  0.5514180000000 1.0
C      1  0.4775330000000  0.4472720000000  0.5642790000000 1.0
C      1  0.4919890000000  0.4298340000000  0.5517520000000 1.0
C      1  0.4753260000000  0.5556100000000  0.5651040000000 1.0
C      1  0.5628020000000  0.4717540000000  0.5124380000000 1.0
C      1  0.4392690000000  0.5252190000000  0.5164540000000 1.0
C      1  0.5570450000000  0.5228530000000  0.5123060000000 1.0
C      1  0.4442300000000  0.4767180000000  0.5143540000000 1.0
C      1  0.5321210000000  0.5364660000000  0.5219880000000 1.0
C      1  0.4700920000000  0.4653880000000  0.5219070000000 1.0
C      1  0.5447730000000  0.4521700000000  0.5209110000000 1.0
C      1  0.4653180000000  0.5367980000000  0.5237400000000 1.0
C      1  0.4355400000000  0.5270100000000  0.4884510000000 1.0
C      1  0.5634950000000  0.4725820000000  0.4840860000000 1.0
C      1  0.4395290000000  0.4761070000000  0.4864840000000 1.0
C      1  0.5599120000000  0.5239730000000  0.4842350000000 1.0
C      1  0.4573940000000  0.5006860000000  0.5513950000000 1.0
C      1  0.5415000000000  0.4981940000000  0.5472790000000 1.0
C      1  0.5065660000000  0.4728330000000  0.4552730000000 1.0
C      1  0.4924230000000  0.5262160000000  0.4558250000000 1.0
C      1  0.5484630000000  0.4978130000000  0.4481170000000 1.0
C      1  0.4488860000000  0.5028490000000  0.4506850000000 1.0
C      1  0.5029550000000  0.5154890000000  0.5924040000000 1.0
C      1  0.4998020000000  0.4895110000000  0.5937620000000 1.0
C      1  0.4998730000000  0.5440490000000  0.4794440000000 1.0
C      1  0.5018550000000  0.4556210000000  0.4805550000000 1.0
C      1  0.4388330000000  0.4999840000000  0.5297730000000 1.0
C      1  0.5599160000000  0.4976410000000  0.5255410000000 1.0
C      1  0.4338550000000  0.5017120000000  0.4744480000000 1.0
C      1  0.5636330000000  0.4986280000000  0.4715520000000 1.0
C      1  0.4987100000000  0.5712150000000  0.5244070000000 1.0
C      1  0.5032980000000  0.4333450000000  0.5248740000000 1.0
C      1  0.5006630000000  0.5171310000000  0.5607370000000 1.0
C      1  0.4992430000000  0.4863210000000  0.5625620000000 1.0
C      1  0.5101120000000  0.5217450000000  0.4323260000000 1.0
C      1  0.4870980000000  0.4780890000000  0.4328190000000 1.0
C      1  0.4994030000000  0.4994720000000  0.4958280000000 1.0
C      1  0.4986470000000  0.4997890000000  0.4207150000000 1.0
C      1  0.4984800000000  0.4988140000000  0.4676380000000 1.0
END
