TITL C-101436-5186-12 0.0350698193872967 125000 -231.576678865878 0 0 34 (C1) n - 1
REM
REM in /rds/project/t2_vol4/rds-t2-cs072/BORA/CARBON/from-Arr/AIRSS/Generating-Clusters/GAP-ML-2020/Higher-Symm/SD-CG/HFTN-CG
REM
REM
REM
REM
REM
REM ./C.cell (b20cbc046b6831c77cfcea5457e17084)
REM AIRSS Version 0.9.1 bugfix July 2018 build 013d7b7c2542+ Fri, 06 Jul 2018 19:26:36 +0100
REM compiler GCC version 9.3.0
REM options -cpp -mtune=generic -march=x86-64 -g -O0
REM seed 420165048 252213023 -1833854356 -146215464 -1811648363 -1987439750 -375035402 447437521 773504538 1461730791 -263213130 1169277323 -1667088399 1465075686 1356217231 -656971554 -381890741 234083237 -201518972 -418069872 -484941277 1503653208 734951639 -952270520 967702307 1037691701 1359221724 1339569869 745207284 -558213137 1168896473 -1593180297 -372929803
REM
CELL 1.54180   50.00000   50.00000   50.00000   90.00000   90.00000   90.00000
LATT -1
SFAC C  
C      1  0.5186080000000  0.4466870000000  0.5318130000000 1.0
C      1  0.5301150000000  0.4455230000000  0.5029920000000 1.0
C      1  0.5233920000000  0.4455070000000  0.4730550000000 1.0
C      1  0.4974050000000  0.4456330000000  0.4586010000000 1.0
C      1  0.4723410000000  0.4446190000000  0.4733440000000 1.0
C      1  0.4687440000000  0.4483620000000  0.5219940000000 1.0
C      1  0.4904820000000  0.4493660000000  0.5408290000000 1.0
C      1  0.4659480000000  0.5134250000000  0.4888310000000 1.0
C      1  0.4823670000000  0.5165580000000  0.5333970000000 1.0
C      1  0.5114930000000  0.5121580000000  0.5388350000000 1.0
C      1  0.5327660000000  0.5081240000000  0.5179740000000 1.0
C      1  0.5329400000000  0.5070630000000  0.4879920000000 1.0
C      1  0.5133500000000  0.5092570000000  0.4648800000000 1.0
C      1  0.4829860000000  0.5103800000000  0.4651140000000 1.0
C      1  0.5198800000000  0.4857000000000  0.4472310000000 1.0
C      1  0.4739680000000  0.4858440000000  0.4516410000000 1.0
C      1  0.4543170000000  0.4870960000000  0.4939170000000 1.0
C      1  0.4696040000000  0.4915920000000  0.5400300000000 1.0
C      1  0.5128310000000  0.4878130000000  0.5559650000000 1.0
C      1  0.5476760000000  0.4836520000000  0.5267560000000 1.0
C      1  0.5501580000000  0.4834230000000  0.4814560000000 1.0
C      1  0.5323790000000  0.4694360000000  0.5456920000000 1.0
C      1  0.5516700000000  0.4667880000000  0.5043540000000 1.0
C      1  0.5380770000000  0.4684750000000  0.4608850000000 1.0
C      1  0.4961280000000  0.4703740000000  0.4427780000000 1.0
C      1  0.4591690000000  0.4701870000000  0.4707560000000 1.0
C      1  0.4575720000000  0.4755630000000  0.5195010000000 1.0
C      1  0.4879560000000  0.4747880000000  0.5545290000000 1.0
C      1  0.4748350000000  0.4322280000000  0.4990690000000 1.0
C      1  0.4977490000000  0.4164070000000  0.5018420000000 1.0
C      1  0.4996940000000  0.5716950000000  0.4993490000000 1.0
C      1  0.4725460000000  0.5312220000000  0.5105880000000 1.0
C      1  0.5189950000000  0.5866960000000  0.4913250000000 1.0
C      1  0.4803980000000  0.5562970000000  0.5060850000000 1.0
END
