TITL C-109519-6404-5 -7.41521491166648 125000 -627.877118786623 0 0 88 (C1) n - 1
REM
REM in /rds/project/t2_vol4/rds-t2-cs072/BORA/CARBON/from-Arr/AIRSS/Generating-Clusters/GAP-ML-2020/Higher-Symm/SD-CG/HFTN-CG
REM
REM
REM
REM
REM
REM ./C.cell (b20cbc046b6831c77cfcea5457e17084)
REM AIRSS Version 0.9.1 bugfix July 2018 build 013d7b7c2542+ Fri, 06 Jul 2018 19:26:36 +0100
REM compiler GCC version 9.3.0
REM options -cpp -mtune=generic -march=x86-64 -g -O0
REM seed -375411355 -907242738 1288031990 1040843939 -518263277 -126200428 462624368 -20473706 859401830 -971066977 341080353 -2305285 -185778431 -1989664643 -1331030574 -1436375142 728644644 829264666 -1196709967 -537991920 627317039 518566259 1652481206 -167892153 1042625781 388103713 1103700971 130862721 -633702014 809762304 -714360081 -450479916 -489554425
REM
CELL 1.54180   50.00000   50.00000   50.00000   90.00000   90.00000   90.00000
LATT -1
SFAC C  
C      1  0.5188130000000  0.4231710000000  0.4889510000000 1.0
C      1  0.5172540000000  0.4261700000000  0.5178420000000 1.0
C      1  0.4899620000000  0.4254720000000  0.5256150000000 1.0
C      1  0.4746390000000  0.4230200000000  0.5012340000000 1.0
C      1  0.4924880000000  0.4229070000000  0.4782340000000 1.0
C      1  0.5228300000000  0.5772180000000  0.4866540000000 1.0
C      1  0.5203610000000  0.5780790000000  0.5151630000000 1.0
C      1  0.4924250000000  0.5784090000000  0.5212590000000 1.0
C      1  0.4777570000000  0.5769090000000  0.4963730000000 1.0
C      1  0.4965830000000  0.5770050000000  0.4748130000000 1.0
C      1  0.4964030000000  0.5319900000000  0.5787870000000 1.0
C      1  0.4323360000000  0.5249600000000  0.5198270000000 1.0
C      1  0.4663280000000  0.5212850000000  0.4336840000000 1.0
C      1  0.5537310000000  0.5294180000000  0.4404160000000 1.0
C      1  0.5693270000000  0.5226220000000  0.5310490000000 1.0
C      1  0.4930340000000  0.4842380000000  0.5750580000000 1.0
C      1  0.4219770000000  0.4702270000000  0.5216410000000 1.0
C      1  0.4534030000000  0.4667350000000  0.4373220000000 1.0
C      1  0.5499740000000  0.4688340000000  0.4401180000000 1.0
C      1  0.5744860000000  0.4690540000000  0.5248590000000 1.0
C      1  0.4415970000000  0.4456140000000  0.4743000000000 1.0
C      1  0.5058670000000  0.4524370000000  0.4402530000000 1.0
C      1  0.5615030000000  0.4448980000000  0.4891570000000 1.0
C      1  0.5279650000000  0.4585820000000  0.5538100000000 1.0
C      1  0.4532340000000  0.4473790000000  0.5479180000000 1.0
C      1  0.4481060000000  0.5509110000000  0.4678780000000 1.0
C      1  0.5140730000000  0.5518760000000  0.4365650000000 1.0
C      1  0.5619540000000  0.5498520000000  0.4924830000000 1.0
C      1  0.5304440000000  0.5556700000000  0.5574320000000 1.0
C      1  0.4597610000000  0.5498050000000  0.5435470000000 1.0
C      1  0.4858100000000  0.4356680000000  0.4528870000000 1.0
C      1  0.5402070000000  0.4337030000000  0.4736620000000 1.0
C      1  0.5366520000000  0.4407010000000  0.5328350000000 1.0
C      1  0.4807890000000  0.4397810000000  0.5488570000000 1.0
C      1  0.4488640000000  0.4345380000000  0.4996050000000 1.0
C      1  0.4919170000000  0.5633690000000  0.4498800000000 1.0
C      1  0.5449890000000  0.5643190000000  0.4746020000000 1.0
C      1  0.5395580000000  0.5655190000000  0.5325730000000 1.0
C      1  0.4831590000000  0.5658640000000  0.5452390000000 1.0
C      1  0.4532830000000  0.5625060000000  0.4940610000000 1.0
C      1  0.4548160000000  0.5244630000000  0.5585390000000 1.0
C      1  0.4328040000000  0.5282730000000  0.4639210000000 1.0
C      1  0.5116450000000  0.5267080000000  0.4227950000000 1.0
C      1  0.5699850000000  0.5233560000000  0.4852460000000 1.0
C      1  0.5419980000000  0.5313370000000  0.5681950000000 1.0
C      1  0.4433630000000  0.4701470000000  0.5610400000000 1.0
C      1  0.4274760000000  0.4706340000000  0.4727810000000 1.0
C      1  0.5054800000000  0.4794440000000  0.4261360000000 1.0
C      1  0.5766070000000  0.4681790000000  0.4805000000000 1.0
C      1  0.5409770000000  0.4832040000000  0.5634770000000 1.0
C      1  0.5213600000000  0.5199520000000  0.5837630000000 1.0
C      1  0.4312240000000  0.5130560000000  0.5459600000000 1.0
C      1  0.4406150000000  0.5108710000000  0.4436980000000 1.0
C      1  0.5375000000000  0.5139300000000  0.4241830000000 1.0
C      1  0.5823300000000  0.5103110000000  0.5079910000000 1.0
C      1  0.5199960000000  0.4926880000000  0.5806790000000 1.0
C      1  0.4256120000000  0.4853200000000  0.5461250000000 1.0
C      1  0.4347450000000  0.4835960000000  0.4479480000000 1.0
C      1  0.5335220000000  0.4858750000000  0.4237590000000 1.0
C      1  0.5855250000000  0.4829630000000  0.5041300000000 1.0
C      1  0.5135970000000  0.5007100000000  0.5252480000000 1.0
C      1  0.4650170000000  0.4893710000000  0.5245730000000 1.0
C      1  0.4753110000000  0.4831700000000  0.4756430000000 1.0
C      1  0.5193920000000  0.4826610000000  0.4842370000000 1.0
C      1  0.5351670000000  0.4920470000000  0.5070650000000 1.0
C      1  0.5021690000000  0.5234890000000  0.5159830000000 1.0
C      1  0.4460840000000  0.5044770000000  0.5038630000000 1.0
C      1  0.4690410000000  0.5089960000000  0.4838340000000 1.0
C      1  0.5176620000000  0.5108430000000  0.4752020000000 1.0
C      1  0.5424580000000  0.5146960000000  0.4897410000000 1.0
C      1  0.5022190000000  0.5558300000000  0.5636520000000 1.0
C      1  0.4451420000000  0.5500460000000  0.5188840000000 1.0
C      1  0.4680580000000  0.5480590000000  0.4468600000000 1.0
C      1  0.5407330000000  0.5527780000000  0.4486250000000 1.0
C      1  0.5599870000000  0.5492020000000  0.5209500000000 1.0
C      1  0.4992350000000  0.4583730000000  0.5618650000000 1.0
C      1  0.4383130000000  0.4466950000000  0.5231870000000 1.0
C      1  0.4586930000000  0.4436920000000  0.4514840000000 1.0
C      1  0.5331030000000  0.4471440000000  0.4488160000000 1.0
C      1  0.5598920000000  0.4467320000000  0.5177300000000 1.0
C      1  0.5697700000000  0.4787650000000  0.4565250000000 1.0
C      1  0.4764350000000  0.5116060000000  0.5736980000000 1.0
C      1  0.4244950000000  0.4842610000000  0.4971680000000 1.0
C      1  0.4904800000000  0.5071760000000  0.4243850000000 1.0
C      1  0.5565210000000  0.5104390000000  0.5542670000000 1.0
C      1  0.4942850000000  0.4735110000000  0.4926610000000 1.0
C      1  0.4949390000000  0.5223590000000  0.4889790000000 1.0
C      1  0.4907470000000  0.4832140000000  0.5191960000000 1.0
END
