TITL C-109991-9434-9 -0.0679602008766103 125000 -842.714483334752 0 0 120 (Ci) n - 1
REM
REM in /rds/project/t2_vol4/rds-t2-cs072/BORA/CARBON/from-Arr/AIRSS/Generating-Clusters/GAP-ML-2020/Higher-Symm/SD-CG/HFTN-CG
REM
REM
REM
REM
REM
REM ./C.cell (b20cbc046b6831c77cfcea5457e17084)
REM AIRSS Version 0.9.1 bugfix July 2018 build 013d7b7c2542+ Fri, 06 Jul 2018 19:26:36 +0100
REM compiler GCC version 9.3.0
REM options -cpp -mtune=generic -march=x86-64 -g -O0
REM seed -1051033608 2001058554 -980480016 795803764 -1795939915 726346221 1184667453 261288726 -1107935935 -538756267 -67293045 305696584 -131502684 -1173809148 2052101047 902542658 944616225 -1602681903 2109865279 -1504054991 -1091288217 -467548965 -1815181108 112209493 -984873572 1320340337 750017720 -1772944676 348276359 -631713840 172782135 406003985 1349535876
REM
CELL 1.54180   50.00000   50.00000   50.00000   90.00000   90.00000   90.00000
LATT -1
SFAC C  
C      1  0.5234010000000  0.5413170000000  0.4950700000000 1.0
C      1  0.4765990000000  0.4586830000000  0.5049300000000 1.0
C      1  0.4677520000000  0.4322610000000  0.5493730000000 1.0
C      1  0.5322480000000  0.5677390000000  0.4506270000000 1.0
C      1  0.5277560000000  0.4776720000000  0.5466600000000 1.0
C      1  0.4722440000000  0.5223280000000  0.4533400000000 1.0
C      1  0.4400280000000  0.4905300000000  0.4365490000000 1.0
C      1  0.5599720000000  0.5094700000000  0.5634510000000 1.0
C      1  0.5406520000000  0.4577860000000  0.5295150000000 1.0
C      1  0.4593480000000  0.5422140000000  0.4704850000000 1.0
C      1  0.5317420000000  0.4077530000000  0.4875610000000 1.0
C      1  0.4682580000000  0.5922470000000  0.5124390000000 1.0
C      1  0.4869160000000  0.4406140000000  0.4126730000000 1.0
C      1  0.5130840000000  0.5593860000000  0.5873270000000 1.0
C      1  0.5287620000000  0.5855640000000  0.4718290000000 1.0
C      1  0.4712380000000  0.4144360000000  0.5281710000000 1.0
C      1  0.4739350000000  0.4725040000000  0.5332550000000 1.0
C      1  0.5260650000000  0.5274960000000  0.4667450000000 1.0
C      1  0.5509330000000  0.5416740000000  0.4555590000000 1.0
C      1  0.4490670000000  0.4583260000000  0.5444410000000 1.0
C      1  0.4483380000000  0.5804880000000  0.4954640000000 1.0
C      1  0.5516620000000  0.4195120000000  0.5045360000000 1.0
C      1  0.4467090000000  0.4924000000000  0.5824730000000 1.0
C      1  0.5532910000000  0.5076000000000  0.4175270000000 1.0
C      1  0.4953890000000  0.4375100000000  0.5553160000000 1.0
C      1  0.5046110000000  0.5624900000000  0.4446840000000 1.0
C      1  0.4988270000000  0.4671250000000  0.5545110000000 1.0
C      1  0.5011730000000  0.5328750000000  0.4454890000000 1.0
C      1  0.4386900000000  0.4324260000000  0.4938390000000 1.0
C      1  0.5613100000000  0.5675740000000  0.5061610000000 1.0
C      1  0.5879390000000  0.4595180000000  0.4948890000000 1.0
C      1  0.4120610000000  0.5404820000000  0.5051110000000 1.0
C      1  0.5141080000000  0.4515110000000  0.4097710000000 1.0
C      1  0.4858920000000  0.5484890000000  0.5902290000000 1.0
C      1  0.5070670000000  0.5251870000000  0.5527540000000 1.0
C      1  0.4929330000000  0.4748130000000  0.4472460000000 1.0
C      1  0.4586180000000  0.5111550000000  0.4289240000000 1.0
C      1  0.5413820000000  0.4888450000000  0.5710760000000 1.0
C      1  0.4885250000000  0.5221660000000  0.6002030000000 1.0
C      1  0.5114750000000  0.4778340000000  0.3997970000000 1.0
C      1  0.4773640000000  0.4286010000000  0.4363110000000 1.0
C      1  0.5226360000000  0.5713990000000  0.5636890000000 1.0
C      1  0.4176770000000  0.4318630000000  0.5115200000000 1.0
C      1  0.5823230000000  0.5681370000000  0.4884800000000 1.0
C      1  0.5419090000000  0.5263480000000  0.5172030000000 1.0
C      1  0.4580910000000  0.4736520000000  0.4827970000000 1.0
C      1  0.5783420000000  0.5176180000000  0.4845880000000 1.0
C      1  0.4216580000000  0.4823820000000  0.5154120000000 1.0
C      1  0.4035220000000  0.5143720000000  0.4634550000000 1.0
C      1  0.5964780000000  0.4856280000000  0.5365450000000 1.0
C      1  0.4206840000000  0.4996060000000  0.5384280000000 1.0
C      1  0.5793160000000  0.5003940000000  0.4615720000000 1.0
C      1  0.5005250000000  0.5479820000000  0.5346250000000 1.0
C      1  0.4994750000000  0.4520180000000  0.4653750000000 1.0
C      1  0.5256720000000  0.4993260000000  0.4160100000000 1.0
C      1  0.4743280000000  0.5006740000000  0.5839900000000 1.0
C      1  0.4839920000000  0.4837070000000  0.3972080000000 1.0
C      1  0.5160080000000  0.5162930000000  0.6027920000000 1.0
C      1  0.4662850000000  0.4258960000000  0.5019270000000 1.0
C      1  0.5337150000000  0.5741040000000  0.4980730000000 1.0
C      1  0.4524940000000  0.4425630000000  0.4441300000000 1.0
C      1  0.5475060000000  0.5574370000000  0.5558700000000 1.0
C      1  0.4735290000000  0.5830420000000  0.5387000000000 1.0
C      1  0.5264710000000  0.4169580000000  0.4613000000000 1.0
C      1  0.4328650000000  0.5554260000000  0.5375340000000 1.0
C      1  0.5671350000000  0.4445740000000  0.4624660000000 1.0
C      1  0.5153270000000  0.4201640000000  0.5418160000000 1.0
C      1  0.4846730000000  0.5798360000000  0.4581840000000 1.0
C      1  0.4685220000000  0.5353410000000  0.4963240000000 1.0
C      1  0.5314780000000  0.4646590000000  0.5036760000000 1.0
C      1  0.4959530000000  0.4812550000000  0.5801210000000 1.0
C      1  0.5040470000000  0.5187450000000  0.4198790000000 1.0
C      1  0.5749090000000  0.5027020000000  0.5385830000000 1.0
C      1  0.4250910000000  0.4972980000000  0.4614170000000 1.0
C      1  0.5711080000000  0.4351950000000  0.4897210000000 1.0
C      1  0.4288920000000  0.5648050000000  0.5102790000000 1.0
C      1  0.5014810000000  0.5964080000000  0.4736190000000 1.0
C      1  0.4985190000000  0.4035920000000  0.5263810000000 1.0
C      1  0.4600510000000  0.5704990000000  0.4697770000000 1.0
C      1  0.5399490000000  0.4295010000000  0.5302230000000 1.0
C      1  0.5036230000000  0.5777340000000  0.5409160000000 1.0
C      1  0.4963770000000  0.4222660000000  0.4590840000000 1.0
C      1  0.5518880000000  0.5352770000000  0.5735400000000 1.0
C      1  0.4481120000000  0.4647230000000  0.4264600000000 1.0
C      1  0.5318000000000  0.5383190000000  0.5941270000000 1.0
C      1  0.4682000000000  0.4616810000000  0.4058730000000 1.0
C      1  0.5147020000000  0.5893900000000  0.5162100000000 1.0
C      1  0.4852980000000  0.4106100000000  0.4837900000000 1.0
C      1  0.6009400000000  0.4694650000000  0.5170320000000 1.0
C      1  0.3990600000000  0.5305350000000  0.4829680000000 1.0
C      1  0.5622370000000  0.5071700000000  0.5080820000000 1.0
C      1  0.4377630000000  0.4928300000000  0.4919180000000 1.0
C      1  0.4965420000000  0.5371590000000  0.5073250000000 1.0
C      1  0.5034580000000  0.4628410000000  0.4926750000000 1.0
C      1  0.4190420000000  0.5291130000000  0.5322070000000 1.0
C      1  0.5809580000000  0.4708870000000  0.4677930000000 1.0
C      1  0.5654100000000  0.5157650000000  0.4403610000000 1.0
C      1  0.4345900000000  0.4842350000000  0.5596390000000 1.0
C      1  0.4550770000000  0.5647110000000  0.5518330000000 1.0
C      1  0.5449230000000  0.4352890000000  0.4481670000000 1.0
C      1  0.5207320000000  0.4919950000000  0.5894740000000 1.0
C      1  0.4792680000000  0.5080050000000  0.4105260000000 1.0
C      1  0.5553600000000  0.5509740000000  0.5295670000000 1.0
C      1  0.4446400000000  0.4490260000000  0.4704330000000 1.0
C      1  0.5061010000000  0.4007600000000  0.4991820000000 1.0
C      1  0.4938990000000  0.5992400000000  0.5008180000000 1.0
C      1  0.5324840000000  0.4544010000000  0.4315590000000 1.0
C      1  0.4675160000000  0.5455990000000  0.5684410000000 1.0
C      1  0.4989800000000  0.5072070000000  0.5136200000000 1.0
C      1  0.5010200000000  0.4927930000000  0.4863800000000 1.0
C      1  0.4553230000000  0.5131210000000  0.5075600000000 1.0
C      1  0.5446770000000  0.4868790000000  0.4924400000000 1.0
C      1  0.4272830000000  0.4551520000000  0.5238000000000 1.0
C      1  0.5727170000000  0.5448480000000  0.4762000000000 1.0
C      1  0.4733270000000  0.5020460000000  0.5288720000000 1.0
C      1  0.5266730000000  0.4979540000000  0.4711280000000 1.0
C      1  0.4781080000000  0.5179940000000  0.5561910000000 1.0
C      1  0.5218920000000  0.4820060000000  0.4438090000000 1.0
C      1  0.4787640000000  0.4923890000000  0.4670000000000 1.0
C      1  0.5212360000000  0.5076110000000  0.5330000000000 1.0
END
