TITL C-102485-7252-1 -8.26133609574667 125000 -936.056611798855 0 0 136 (D2d) n - 1
REM
REM in /rds/project/t2_vol4/rds-t2-cs072/BORA/CARBON/from-Arr/AIRSS/Generating-Clusters/GAP-ML-2020/Higher-Symm/SD-CG/HFTN-CG
REM
REM
REM
REM
REM
REM ./C.cell (b20cbc046b6831c77cfcea5457e17084)
REM AIRSS Version 0.9.1 bugfix July 2018 build 013d7b7c2542+ Fri, 06 Jul 2018 19:26:36 +0100
REM compiler GCC version 9.3.0
REM options -cpp -mtune=generic -march=x86-64 -g -O0
REM seed -1375705134 -1157014046 1260167313 165483875 -363331721 441287858 -1493910501 1109829406 88477986 504427908 833368273 1955675048 -920642673 -527361096 -273980233 209172739 1494331938 -1451842953 -1144764084 1455531299 -848833152 541057943 -1757036499 -1217583484 1619512997 -2113035026 -494326200 1475859795 1363056961 1672894300 1133509306 992542427 1718405216
REM
CELL 1.54180   50.00000   50.00000   50.00000   90.00000   90.00000   90.00000
LATT -1
SFAC C  
C      1  0.5624750000000  0.5379480000000  0.5827640000000 1.0
C      1  0.4375340000000  0.5379670000000  0.4172380000000 1.0
C      1  0.5624580000000  0.4620380000000  0.4172300000000 1.0
C      1  0.4375330000000  0.4620470000000  0.5827680000000 1.0
C      1  0.5827740000000  0.5379460000000  0.5624640000000 1.0
C      1  0.4172350000000  0.5379690000000  0.4375390000000 1.0
C      1  0.4172320000000  0.4620500000000  0.5624690000000 1.0
C      1  0.5827590000000  0.4620350000000  0.4375290000000 1.0
C      1  0.5254060000000  0.4084510000000  0.4533430000000 1.0
C      1  0.4745730000000  0.4084540000000  0.5466520000000 1.0
C      1  0.5254310000000  0.5915430000000  0.5466550000000 1.0
C      1  0.4745900000000  0.5915520000000  0.4533500000000 1.0
C      1  0.4533370000000  0.4084570000000  0.5254180000000 1.0
C      1  0.5466420000000  0.4084480000000  0.4745760000000 1.0
C      1  0.5466650000000  0.5915410000000  0.5254190000000 1.0
C      1  0.4533560000000  0.5915530000000  0.4745860000000 1.0
C      1  0.4698460000000  0.4652560000000  0.5076470000000 1.0
C      1  0.5301470000000  0.4652490000000  0.4923510000000 1.0
C      1  0.4698530000000  0.5347510000000  0.4923560000000 1.0
C      1  0.5301550000000  0.5347440000000  0.5076460000000 1.0
C      1  0.5076410000000  0.4652530000000  0.4698480000000 1.0
C      1  0.4923510000000  0.4652530000000  0.5301500000000 1.0
C      1  0.4923560000000  0.5347490000000  0.4698510000000 1.0
C      1  0.5076520000000  0.5347460000000  0.5301510000000 1.0
C      1  0.5085630000000  0.4589030000000  0.5946930000000 1.0
C      1  0.4914270000000  0.4589100000000  0.4053050000000 1.0
C      1  0.5085640000000  0.5410960000000  0.4053070000000 1.0
C      1  0.4914450000000  0.5410920000000  0.5946960000000 1.0
C      1  0.5946900000000  0.4588950000000  0.5085580000000 1.0
C      1  0.4053010000000  0.4589170000000  0.4914400000000 1.0
C      1  0.4053110000000  0.5411040000000  0.5085690000000 1.0
C      1  0.5946980000000  0.5410830000000  0.4914330000000 1.0
C      1  0.5143740000000  0.5438950000000  0.5810580000000 1.0
C      1  0.4856360000000  0.5439030000000  0.4189450000000 1.0
C      1  0.5143570000000  0.4561010000000  0.4189410000000 1.0
C      1  0.4856330000000  0.4561000000000  0.5810570000000 1.0
C      1  0.5810630000000  0.5438900000000  0.5143630000000 1.0
C      1  0.4189470000000  0.5439090000000  0.4856400000000 1.0
C      1  0.4189380000000  0.4561090000000  0.5143680000000 1.0
C      1  0.5810520000000  0.4560920000000  0.4856300000000 1.0
C      1  0.4391950000000  0.4998320000000  0.4836910000000 1.0
C      1  0.5608050000000  0.4998170000000  0.5163090000000 1.0
C      1  0.4391970000000  0.5001820000000  0.5163150000000 1.0
C      1  0.5608030000000  0.5001690000000  0.4836850000000 1.0
C      1  0.4836850000000  0.4998280000000  0.4391970000000 1.0
C      1  0.5163150000000  0.4998210000000  0.5608030000000 1.0
C      1  0.5163090000000  0.5001760000000  0.4391950000000 1.0
C      1  0.4836910000000  0.5001760000000  0.5608050000000 1.0
C      1  0.4147830000000  0.5356470000000  0.5334220000000 1.0
C      1  0.5852250000000  0.5356290000000  0.4665800000000 1.0
C      1  0.4147710000000  0.4643730000000  0.4665860000000 1.0
C      1  0.5852200000000  0.4643510000000  0.5334120000000 1.0
C      1  0.5334170000000  0.5356370000000  0.4147770000000 1.0
C      1  0.4665910000000  0.5356390000000  0.5852250000000 1.0
C      1  0.4665750000000  0.4643680000000  0.4147780000000 1.0
C      1  0.5334170000000  0.4643560000000  0.5852200000000 1.0
C      1  0.4602090000000  0.5230470000000  0.5189600000000 1.0
C      1  0.5397960000000  0.5230390000000  0.4810420000000 1.0
C      1  0.4602020000000  0.4769620000000  0.4810440000000 1.0
C      1  0.5397930000000  0.4769510000000  0.5189550000000 1.0
C      1  0.5189580000000  0.5230420000000  0.4602050000000 1.0
C      1  0.4810470000000  0.5230440000000  0.5397960000000 1.0
C      1  0.4810380000000  0.4769600000000  0.4602060000000 1.0
C      1  0.5189560000000  0.4769530000000  0.5397930000000 1.0
C      1  0.4556130000000  0.4216300000000  0.5649270000000 1.0
C      1  0.5443690000000  0.4216240000000  0.4350680000000 1.0
C      1  0.4556250000000  0.5783800000000  0.4350770000000 1.0
C      1  0.5443930000000  0.5783660000000  0.5649280000000 1.0
C      1  0.5649170000000  0.4216210000000  0.4556140000000 1.0
C      1  0.4350660000000  0.4216330000000  0.5443820000000 1.0
C      1  0.4350790000000  0.5783820000000  0.4556240000000 1.0
C      1  0.5649390000000  0.5783640000000  0.5443800000000 1.0
C      1  0.5406190000000  0.4435560000000  0.4177440000000 1.0
C      1  0.4593680000000  0.4435610000000  0.5822530000000 1.0
C      1  0.5406390000000  0.5564340000000  0.5822530000000 1.0
C      1  0.4593730000000  0.5564480000000  0.4177510000000 1.0
C      1  0.4177430000000  0.4435670000000  0.5406310000000 1.0
C      1  0.5822450000000  0.4435500000000  0.4593650000000 1.0
C      1  0.5822610000000  0.5564310000000  0.5406270000000 1.0
C      1  0.4177520000000  0.5564520000000  0.4593760000000 1.0
C      1  0.4185380000000  0.4912460000000  0.5606320000000 1.0
C      1  0.5814600000000  0.4912310000000  0.4393670000000 1.0
C      1  0.4185340000000  0.5087730000000  0.4393760000000 1.0
C      1  0.5814680000000  0.5087500000000  0.5606250000000 1.0
C      1  0.5606240000000  0.4912340000000  0.4185330000000 1.0
C      1  0.4393740000000  0.4912430000000  0.5814660000000 1.0
C      1  0.4393690000000  0.5087710000000  0.4185390000000 1.0
C      1  0.5606330000000  0.5087520000000  0.5814610000000 1.0
C      1  0.5277860000000  0.4242200000000  0.5484580000000 1.0
C      1  0.4721960000000  0.4242290000000  0.4515380000000 1.0
C      1  0.5277990000000  0.5757740000000  0.4515400000000 1.0
C      1  0.4722180000000  0.5757770000000  0.5484640000000 1.0
C      1  0.5484540000000  0.4242180000000  0.5277880000000 1.0
C      1  0.4515290000000  0.4242310000000  0.4722070000000 1.0
C      1  0.4515490000000  0.5757800000000  0.5277970000000 1.0
C      1  0.5484680000000  0.5757710000000  0.4722070000000 1.0
C      1  0.4592430000000  0.5842480000000  0.5011040000000 1.0
C      1  0.5407760000000  0.5842390000000  0.4989010000000 1.0
C      1  0.4592240000000  0.4157610000000  0.4989000000000 1.0
C      1  0.5407570000000  0.4157520000000  0.5010950000000 1.0
C      1  0.5011070000000  0.5842450000000  0.4592360000000 1.0
C      1  0.4989120000000  0.5842430000000  0.5407690000000 1.0
C      1  0.4988890000000  0.4157580000000  0.4592310000000 1.0
C      1  0.5010920000000  0.4157550000000  0.5407640000000 1.0
C      1  0.5572510000000  0.5474300000000  0.4650020000000 1.0
C      1  0.4427600000000  0.5474410000000  0.5350000000000 1.0
C      1  0.5572430000000  0.4525570000000  0.5349920000000 1.0
C      1  0.4427460000000  0.4525720000000  0.4650050000000 1.0
C      1  0.4650120000000  0.5474380000000  0.5572500000000 1.0
C      1  0.5349990000000  0.5474330000000  0.4427530000000 1.0
C      1  0.5349930000000  0.4525590000000  0.5572440000000 1.0
C      1  0.4649960000000  0.4525700000000  0.4427530000000 1.0
C      1  0.5554530000000  0.4717800000000  0.4797510000000 1.0
C      1  0.4445400000000  0.4717920000000  0.5202470000000 1.0
C      1  0.5554610000000  0.5282070000000  0.5202440000000 1.0
C      1  0.4445450000000  0.5282210000000  0.4797580000000 1.0
C      1  0.4797540000000  0.4717870000000  0.5554570000000 1.0
C      1  0.5202400000000  0.4717850000000  0.4445410000000 1.0
C      1  0.5202510000000  0.5282100000000  0.5554570000000 1.0
C      1  0.4797550000000  0.5282180000000  0.4445450000000 1.0
C      1  0.4788680000000  0.5632030000000  0.5003740000000 1.0
C      1  0.5211470000000  0.5631980000000  0.4996300000000 1.0
C      1  0.4788530000000  0.4368020000000  0.4996280000000 1.0
C      1  0.5211320000000  0.4367970000000  0.5003680000000 1.0
C      1  0.5003770000000  0.5632010000000  0.4788620000000 1.0
C      1  0.4996380000000  0.5632000000000  0.5211410000000 1.0
C      1  0.4996210000000  0.4368010000000  0.4788590000000 1.0
C      1  0.5003640000000  0.4367990000000  0.5211380000000 1.0
C      1  0.4188670000000  0.5073550000000  0.5373910000000 1.0
C      1  0.5811350000000  0.5073380000000  0.4626090000000 1.0
C      1  0.4188610000000  0.4926640000000  0.4626170000000 1.0
C      1  0.5811370000000  0.4926430000000  0.5373830000000 1.0
C      1  0.5373840000000  0.5073440000000  0.4188620000000 1.0
C      1  0.4626180000000  0.5073480000000  0.5811380000000 1.0
C      1  0.4626080000000  0.4926600000000  0.4188660000000 1.0
C      1  0.5373900000000  0.4926470000000  0.5811340000000 1.0
END
