TITL C-100367-5122-8 -56.4654643285977 125000 -798.916153571265 0 0 112 (D2) n - 1
REM
REM in /rds/project/t2_vol4/rds-t2-cs072/BORA/CARBON/from-Arr/AIRSS/Generating-Clusters/GAP-ML-2020/Higher-Symm/SD-CG/HFTN-CG
REM
REM
REM
REM
REM
REM ./C.cell (b20cbc046b6831c77cfcea5457e17084)
REM AIRSS Version 0.9.1 bugfix July 2018 build 013d7b7c2542+ Fri, 06 Jul 2018 19:26:36 +0100
REM compiler GCC version 9.3.0
REM options -cpp -mtune=generic -march=x86-64 -g -O0
REM seed 485677288 -1268594381 314644186 -355870114 -712540781 -128506359 -668505599 1446096960 -1654885718 1909056365 691007923 474749196 107173933 886451465 1935940287 -437029263 -1869592547 848946429 -643302937 524564389 -1279608227 -1988353775 873556627 -1188094126 736353524 -129471281 1042492547 -1104557727 -912223320 1133578861 -805984239 2082491082 -924976803
REM
CELL 1.54180   50.00000   50.00000   50.00000   90.00000   90.00000   90.00000
LATT -1
SFAC C  
C      1  0.5073630000000  0.4456880000000  0.4222630000000 1.0
C      1  0.4926440000000  0.5543340000000  0.4222780000000 1.0
C      1  0.4926430000000  0.4456650000000  0.5777210000000 1.0
C      1  0.5073500000000  0.5543130000000  0.5777370000000 1.0
C      1  0.5155310000000  0.4882380000000  0.4619790000000 1.0
C      1  0.4844720000000  0.5117730000000  0.4619810000000 1.0
C      1  0.4844700000000  0.4882250000000  0.5380170000000 1.0
C      1  0.5155270000000  0.5117640000000  0.5380220000000 1.0
C      1  0.5363000000000  0.4957630000000  0.4134030000000 1.0
C      1  0.4637080000000  0.5042610000000  0.4134020000000 1.0
C      1  0.4637010000000  0.4957350000000  0.5865950000000 1.0
C      1  0.5362920000000  0.5042400000000  0.5866000000000 1.0
C      1  0.4640980000000  0.5245280000000  0.5826840000000 1.0
C      1  0.5358950000000  0.4754480000000  0.5826800000000 1.0
C      1  0.5359000000000  0.5245560000000  0.4173230000000 1.0
C      1  0.4641070000000  0.4754680000000  0.4173130000000 1.0
C      1  0.4166340000000  0.4537710000000  0.5158140000000 1.0
C      1  0.5833650000000  0.5462240000000  0.5158340000000 1.0
C      1  0.5833710000000  0.4537850000000  0.4841730000000 1.0
C      1  0.4166310000000  0.5462200000000  0.4841790000000 1.0
C      1  0.4756570000000  0.5319210000000  0.5148550000000 1.0
C      1  0.5243420000000  0.4680750000000  0.5148480000000 1.0
C      1  0.5243400000000  0.5319280000000  0.4851540000000 1.0
C      1  0.4756610000000  0.4680770000000  0.4851430000000 1.0
C      1  0.5962550000000  0.5004420000000  0.5145190000000 1.0
C      1  0.4037440000000  0.4995540000000  0.5145100000000 1.0
C      1  0.4037450000000  0.5004360000000  0.4854810000000 1.0
C      1  0.5962560000000  0.4995690000000  0.4854900000000 1.0
C      1  0.4747780000000  0.4359970000000  0.4862000000000 1.0
C      1  0.5252230000000  0.5640070000000  0.4862200000000 1.0
C      1  0.5252290000000  0.4359960000000  0.5137820000000 1.0
C      1  0.4747700000000  0.5640000000000  0.5137980000000 1.0
C      1  0.5361770000000  0.4740190000000  0.4718020000000 1.0
C      1  0.4638250000000  0.5259890000000  0.4718060000000 1.0
C      1  0.4638250000000  0.4740080000000  0.5281910000000 1.0
C      1  0.5361720000000  0.5259840000000  0.5282010000000 1.0
C      1  0.5239790000000  0.5641460000000  0.5572240000000 1.0
C      1  0.4760160000000  0.4358370000000  0.5572040000000 1.0
C      1  0.4760140000000  0.5641600000000  0.4427940000000 1.0
C      1  0.5239910000000  0.4358560000000  0.4427780000000 1.0
C      1  0.5554770000000  0.4804330000000  0.4264110000000 1.0
C      1  0.4445290000000  0.5195880000000  0.4264120000000 1.0
C      1  0.4445250000000  0.4804060000000  0.5735830000000 1.0
C      1  0.5554690000000  0.5195730000000  0.5735930000000 1.0
C      1  0.4876850000000  0.5173800000000  0.5352930000000 1.0
C      1  0.5123120000000  0.4826100000000  0.5352890000000 1.0
C      1  0.5123130000000  0.5173920000000  0.4647120000000 1.0
C      1  0.4876900000000  0.4826180000000  0.4647060000000 1.0
C      1  0.4387340000000  0.4360040000000  0.5212960000000 1.0
C      1  0.5612640000000  0.5639890000000  0.5213200000000 1.0
C      1  0.5612730000000  0.4360170000000  0.4786860000000 1.0
C      1  0.4387290000000  0.5639890000000  0.4786990000000 1.0
C      1  0.5747580000000  0.4889350000000  0.4444100000000 1.0
C      1  0.4252460000000  0.5110810000000  0.4444070000000 1.0
C      1  0.4252430000000  0.4889110000000  0.5555870000000 1.0
C      1  0.5747530000000  0.5110730000000  0.5555960000000 1.0
C      1  0.4918630000000  0.5333430000000  0.5887380000000 1.0
C      1  0.5081300000000  0.4666310000000  0.5887300000000 1.0
C      1  0.5081340000000  0.5333700000000  0.4112710000000 1.0
C      1  0.4918740000000  0.4666560000000  0.4112610000000 1.0
C      1  0.4622410000000  0.5146680000000  0.4975100000000 1.0
C      1  0.5377590000000  0.4853330000000  0.4975090000000 1.0
C      1  0.5377580000000  0.5146710000000  0.5024950000000 1.0
C      1  0.4622420000000  0.4853280000000  0.5024870000000 1.0
C      1  0.4239710000000  0.5177370000000  0.5530290000000 1.0
C      1  0.5760240000000  0.4822480000000  0.5530300000000 1.0
C      1  0.5760270000000  0.5177600000000  0.4469770000000 1.0
C      1  0.4239770000000  0.4822550000000  0.4469650000000 1.0
C      1  0.4130670000000  0.5464080000000  0.5132930000000 1.0
C      1  0.5869320000000  0.4535880000000  0.5132870000000 1.0
C      1  0.5869280000000  0.5464210000000  0.4867200000000 1.0
C      1  0.4130730000000  0.4535820000000  0.4867000000000 1.0
C      1  0.4432520000000  0.4640340000000  0.4347910000000 1.0
C      1  0.5567540000000  0.5359840000000  0.4348070000000 1.0
C      1  0.5567520000000  0.4640210000000  0.5651980000000 1.0
C      1  0.4432420000000  0.5359600000000  0.5652040000000 1.0
C      1  0.4737320000000  0.4294100000000  0.4573170000000 1.0
C      1  0.5262720000000  0.5706020000000  0.4573390000000 1.0
C      1  0.5262760000000  0.4294010000000  0.5426630000000 1.0
C      1  0.4737210000000  0.5705870000000  0.5426810000000 1.0
C      1  0.4468270000000  0.5599500000000  0.5494910000000 1.0
C      1  0.5531680000000  0.4400350000000  0.5494780000000 1.0
C      1  0.5531660000000  0.5599700000000  0.4505260000000 1.0
C      1  0.4468380000000  0.4400440000000  0.4505040000000 1.0
C      1  0.4577300000000  0.4470330000000  0.5388210000000 1.0
C      1  0.5422670000000  0.5529560000000  0.5388390000000 1.0
C      1  0.5422760000000  0.4470490000000  0.4611640000000 1.0
C      1  0.4577270000000  0.5529620000000  0.4611760000000 1.0
C      1  0.4489360000000  0.4274020000000  0.4962410000000 1.0
C      1  0.5510640000000  0.5725990000000  0.4962660000000 1.0
C      1  0.5510710000000  0.4274060000000  0.5037380000000 1.0
C      1  0.4489280000000  0.5725930000000  0.5037550000000 1.0
C      1  0.4098310000000  0.4768070000000  0.4714540000000 1.0
C      1  0.5901720000000  0.5232010000000  0.4714690000000 1.0
C      1  0.5901720000000  0.4768090000000  0.5285390000000 1.0
C      1  0.4098260000000  0.5231830000000  0.5285380000000 1.0
C      1  0.5084180000000  0.4886790000000  0.4045960000000 1.0
C      1  0.4915910000000  0.5113490000000  0.4045980000000 1.0
C      1  0.4915840000000  0.4886500000000  0.5954010000000 1.0
C      1  0.5084080000000  0.5113220000000  0.5954050000000 1.0
C      1  0.5033330000000  0.5721560000000  0.4421980000000 1.0
C      1  0.4966720000000  0.4278610000000  0.4421770000000 1.0
C      1  0.4966600000000  0.5721390000000  0.5578230000000 1.0
C      1  0.5033350000000  0.4278450000000  0.5578020000000 1.0
C      1  0.4318410000000  0.4358480000000  0.4747240000000 1.0
C      1  0.5681610000000  0.5641590000000  0.4747480000000 1.0
C      1  0.5681660000000  0.4358480000000  0.5252570000000 1.0
C      1  0.4318320000000  0.5641450000000  0.5252700000000 1.0
C      1  0.4121010000000  0.5225990000000  0.4691330000000 1.0
C      1  0.5879010000000  0.4774100000000  0.4691340000000 1.0
C      1  0.5878960000000  0.5225990000000  0.5308740000000 1.0
C      1  0.4121010000000  0.4773920000000  0.5308600000000 1.0
END
