TITL C-109515-6374-6 655.63041980552 125000 -1169.54134179309 0 0 171 (Cs) n - 1
REM
REM in /rds/project/t2_vol4/rds-t2-cs072/BORA/CARBON/from-Arr/AIRSS/Generating-Clusters/GAP-ML-2020/Higher-Symm/SD-CG/HFTN-CG
REM
REM
REM
REM
REM
REM ./C.cell (b20cbc046b6831c77cfcea5457e17084)
REM AIRSS Version 0.9.1 bugfix July 2018 build 013d7b7c2542+ Fri, 06 Jul 2018 19:26:36 +0100
REM compiler GCC version 9.3.0
REM options -cpp -mtune=generic -march=x86-64 -g -O0
REM seed -1547293866 1083883413 -161604074 112497663 246535238 -411614527 2041475373 1275009557 -2114153696 1017937439 -926470104 -1260571856 -9370049 773061254 1934625156 -411773078 -1253935203 1908524101 1735089320 -1714460299 1929959683 -187401802 -351530079 1189174754 696035625 1236020562 -2061481928 -1809487111 201315674 1978545564 1163225095 -1659169621 -1179313250
REM
CELL 1.54180   50.00000   50.00000   50.00000   90.00000   90.00000   90.00000
LATT -1
SFAC C  
C      1  0.4853220000000  0.3921390000000  0.5393220000000 1.0
C      1  0.4852000000000  0.6073090000000  0.4603160000000 1.0
C      1  0.4853300000000  0.6077660000000  0.5393180000000 1.0
C      1  0.4851920000000  0.3925930000000  0.4603200000000 1.0
C      1  0.5484050000000  0.5506100000000  0.5150170000000 1.0
C      1  0.5490840000000  0.4494440000000  0.4846880000000 1.0
C      1  0.5484010000000  0.4492890000000  0.5150190000000 1.0
C      1  0.5490880000000  0.5504540000000  0.4846860000000 1.0
C      1  0.5625030000000  0.5275560000000  0.4437650000000 1.0
C      1  0.5604580000000  0.4727050000000  0.5561270000000 1.0
C      1  0.5625000000000  0.4723390000000  0.4437660000000 1.0
C      1  0.5604600000000  0.5271950000000  0.5561260000000 1.0
C      1  0.4641170000000  0.4750520000000  0.5280180000000 1.0
C      1  0.4633080000000  0.5249890000000  0.4720750000000 1.0
C      1  0.4641190000000  0.5248540000000  0.5280170000000 1.0
C      1  0.4633060000000  0.4749140000000  0.4720760000000 1.0
C      1  0.3967020000000  0.5145820000000  0.4593960000000 1.0
C      1  0.3969710000000  0.4853240000000  0.5411040000000 1.0
C      1  0.3967010000000  0.4853270000000  0.4593960000000 1.0
C      1  0.3969720000000  0.5145880000000  0.5411040000000 1.0
C      1  0.5341100000000  0.4095390000000  0.4578140000000 1.0
C      1  0.5340950000000  0.5907760000000  0.5421090000000 1.0
C      1  0.5341170000000  0.5903590000000  0.4578110000000 1.0
C      1  0.5340880000000  0.4091250000000  0.5421120000000 1.0
C      1  0.4793650000000  0.4680030000000  0.5990180000000 1.0
C      1  0.4794780000000  0.5316780000000  0.4012500000000 1.0
C      1  0.4793680000000  0.5319040000000  0.5990170000000 1.0
C      1  0.4794750000000  0.4682220000000  0.4012510000000 1.0
C      1  0.5618630000000  0.5570800000000  0.4403650000000 1.0
C      1  0.5610310000000  0.4430750000000  0.5597900000000 1.0
C      1  0.5618580000000  0.4428150000000  0.4403670000000 1.0
C      1  0.5610350000000  0.5568250000000  0.5597880000000 1.0
C      1  0.4694620000000  0.4504390000000  0.5151960000000 1.0
C      1  0.4701720000000  0.5489610000000  0.4851420000000 1.0
C      1  0.4694660000000  0.5494650000000  0.5151940000000 1.0
C      1  0.4701680000000  0.4509420000000  0.4851440000000 1.0
C      1  0.6030030000000  0.4852510000000  0.5352790000000 1.0
C      1  0.6040010000000  0.5145240000000  0.4661280000000 1.0
C      1  0.6030040000000  0.5146440000000  0.5352780000000 1.0
C      1  0.6040000000000  0.4853690000000  0.4661290000000 1.0
C      1  0.4552840000000  0.4419790000000  0.5767770000000 1.0
C      1  0.4551280000000  0.5576920000000  0.4232860000000 1.0
C      1  0.4552880000000  0.5579290000000  0.5767740000000 1.0
C      1  0.4551230000000  0.4422110000000  0.4232890000000 1.0
C      1  0.4076400000000  0.4840080000000  0.4858660000000 1.0
C      1  0.4077850000000  0.5159410000000  0.5146770000000 1.0
C      1  0.4076420000000  0.5159000000000  0.4858650000000 1.0
C      1  0.4077830000000  0.4839680000000  0.5146770000000 1.0
C      1  0.5839450000000  0.5651400000000  0.5150440000000 1.0
C      1  0.5844580000000  0.4345300000000  0.4857940000000 1.0
C      1  0.5839400000000  0.4347560000000  0.5150460000000 1.0
C      1  0.5844630000000  0.5653650000000  0.4857910000000 1.0
C      1  0.4821560000000  0.5573780000000  0.4145730000000 1.0
C      1  0.4823360000000  0.4422650000000  0.5854610000000 1.0
C      1  0.4821520000000  0.4425220000000  0.4145760000000 1.0
C      1  0.4823400000000  0.5576420000000  0.5854590000000 1.0
C      1  0.5265540000000  0.4739480000000  0.5982180000000 1.0
C      1  0.5274550000000  0.5261060000000  0.4020190000000 1.0
C      1  0.5265560000000  0.5259570000000  0.5982170000000 1.0
C      1  0.5274530000000  0.4737900000000  0.4020200000000 1.0
C      1  0.4300100000000  0.5149140000000  0.5744480000000 1.0
C      1  0.4295420000000  0.4850160000000  0.4256530000000 1.0
C      1  0.4300090000000  0.4849960000000  0.5744490000000 1.0
C      1  0.4295430000000  0.5148890000000  0.4256530000000 1.0
C      1  0.4562640000000  0.4721640000000  0.5794470000000 1.0
C      1  0.4558710000000  0.5276530000000  0.4205630000000 1.0
C      1  0.4562660000000  0.5277450000000  0.5794460000000 1.0
C      1  0.4558690000000  0.4722490000000  0.4205640000000 1.0
C      1  0.4738190000000  0.5155460000000  0.4436270000000 1.0
C      1  0.4746080000000  0.4843300000000  0.5565520000000 1.0
C      1  0.4738180000000  0.4843550000000  0.4436280000000 1.0
C      1  0.4746090000000  0.5155770000000  0.5565520000000 1.0
C      1  0.5368340000000  0.4495050000000  0.6024860000000 1.0
C      1  0.5383300000000  0.5502770000000  0.3973900000000 1.0
C      1  0.5368370000000  0.5503980000000  0.6024840000000 1.0
C      1  0.5383260000000  0.4496180000000  0.3973920000000 1.0
C      1  0.5232980000000  0.4245350000000  0.4360980000000 1.0
C      1  0.5229180000000  0.5759490000000  0.5637440000000 1.0
C      1  0.5233040000000  0.5753630000000  0.4360950000000 1.0
C      1  0.5229130000000  0.4239540000000  0.5637470000000 1.0
C      1  0.5323580000000  0.5152510000000  0.5698900000000 1.0
C      1  0.5345590000000  0.4847680000000  0.4293110000000 1.0
C      1  0.5323570000000  0.4846510000000  0.5698900000000 1.0
C      1  0.5345600000000  0.5151290000000  0.4293110000000 1.0
C      1  0.4392220000000  0.5145040000000  0.5152510000000 1.0
C      1  0.4388810000000  0.4853960000000  0.4850850000000 1.0
C      1  0.4392210000000  0.4854030000000  0.5152520000000 1.0
C      1  0.4388820000000  0.5145100000000  0.4850850000000 1.0
C      1  0.5114710000000  0.6035140000000  0.5302670000000 1.0
C      1  0.5113190000000  0.3966030000000  0.4691360000000 1.0
C      1  0.5114640000000  0.3963890000000  0.5302710000000 1.0
C      1  0.5113280000000  0.6032970000000  0.4691320000000 1.0
C      1  0.4203980000000  0.5703500000000  0.5165040000000 1.0
C      1  0.4204070000000  0.4297940000000  0.4836980000000 1.0
C      1  0.4203930000000  0.4295590000000  0.5165070000000 1.0
C      1  0.4204120000000  0.5701140000000  0.4836960000000 1.0
C      1  0.5593810000000  0.4277250000000  0.5341390000000 1.0
C      1  0.5594520000000  0.5721630000000  0.4659300000000 1.0
C      1  0.5593870000000  0.5721740000000  0.5341360000000 1.0
C      1  0.5594470000000  0.4277330000000  0.4659330000000 1.0
C      1  0.4884320000000  0.4851380000000  0.5147260000000 1.0
C      1  0.4872080000000  0.5152950000000  0.4854390000000 1.0
C      1  0.4884330000000  0.5147660000000  0.5147250000000 1.0
C      1  0.4872070000000  0.4846070000000  0.4854400000000 1.0
C      1  0.5443270000000  0.5651250000000  0.4199930000000 1.0
C      1  0.5434770000000  0.4347110000000  0.5800880000000 1.0
C      1  0.5443220000000  0.4347710000000  0.4199950000000 1.0
C      1  0.5434810000000  0.5651910000000  0.5800850000000 1.0
C      1  0.5872540000000  0.4858350000000  0.5608700000000 1.0
C      1  0.5892200000000  0.5139940000000  0.4399660000000 1.0
C      1  0.5872550000000  0.5140640000000  0.5608700000000 1.0
C      1  0.5892190000000  0.4858990000000  0.4399670000000 1.0
C      1  0.4411970000000  0.4096300000000  0.5145060000000 1.0
C      1  0.4413380000000  0.5898700000000  0.4854890000000 1.0
C      1  0.4412040000000  0.5902770000000  0.5145030000000 1.0
C      1  0.4413310000000  0.4100360000000  0.4854930000000 1.0
C      1  0.4833740000000  0.4312510000000  0.5323270000000 1.0
C      1  0.4837260000000  0.5679510000000  0.4675360000000 1.0
C      1  0.4833790000000  0.5686540000000  0.5323250000000 1.0
C      1  0.4837210000000  0.4319510000000  0.4675380000000 1.0
C      1  0.4614940000000  0.4105000000000  0.4629230000000 1.0
C      1  0.4613770000000  0.5901070000000  0.5370540000000 1.0
C      1  0.4615010000000  0.5894030000000  0.4629190000000 1.0
C      1  0.4613700000000  0.4097990000000  0.5370570000000 1.0
C      1  0.5195720000000  0.5506580000000  0.5147680000000 1.0
C      1  0.5201310000000  0.4502060000000  0.4847330000000 1.0
C      1  0.5195680000000  0.4492430000000  0.5147700000000 1.0
C      1  0.5201350000000  0.5496940000000  0.4847310000000 1.0
C      1  0.5002760000000  0.5141790000000  0.6056200000000 1.0
C      1  0.5009110000000  0.4857330000000  0.3954340000000 1.0
C      1  0.5002750000000  0.4857280000000  0.6056200000000 1.0
C      1  0.5009120000000  0.5141650000000  0.3954340000000 1.0
C      1  0.5062340000000  0.4223250000000  0.4842880000000 1.0
C      1  0.5058980000000  0.5780490000000  0.5150430000000 1.0
C      1  0.5062400000000  0.5775760000000  0.4842850000000 1.0
C      1  0.5058920000000  0.4218530000000  0.5150460000000 1.0
C      1  0.5107600000000  0.4729150000000  0.5275850000000 1.0
C      1  0.5115150000000  0.5243180000000  0.4722270000000 1.0
C      1  0.5107620000000  0.5269870000000  0.5275840000000 1.0
C      1  0.5115130000000  0.4755820000000  0.4722280000000 1.0
C      1  0.5901880000000  0.5344210000000  0.4847260000000 1.0
C      1  0.5891610000000  0.4659270000000  0.5160850000000 1.0
C      1  0.5901850000000  0.4654740000000  0.4847270000000 1.0
C      1  0.5891630000000  0.5339690000000  0.5160830000000 1.0
C      1  0.4431260000000  0.4271480000000  0.4430600000000 1.0
C      1  0.4433500000000  0.5729750000000  0.5569800000000 1.0
C      1  0.4431320000000  0.5727570000000  0.4430580000000 1.0
C      1  0.4433440000000  0.4269330000000  0.5569830000000 1.0
C      1  0.4129690000000  0.5320550000000  0.5573300000000 1.0
C      1  0.4125690000000  0.4679190000000  0.4429510000000 1.0
C      1  0.4129670000000  0.4678560000000  0.5573310000000 1.0
C      1  0.4125710000000  0.5319870000000  0.4429500000000 1.0
C      1  0.5052180000000  0.4715400000000  0.5554310000000 1.0
C      1  0.5047200000000  0.5279140000000  0.4440960000000 1.0
C      1  0.5052210000000  0.5283640000000  0.5554300000000 1.0
C      1  0.5047180000000  0.4719850000000  0.4440970000000 1.0
C      1  0.5627760000000  0.4737460000000  0.4745330000000 1.0
C      1  0.5605790000000  0.5255370000000  0.5254040000000 1.0
C      1  0.5627780000000  0.5261500000000  0.4745320000000 1.0
C      1  0.5605770000000  0.4743610000000  0.5254050000000 1.0
C      1  0.4984880000000  0.5583590000000  0.4399840000000 1.0
C      1  0.4982620000000  0.4408680000000  0.5598260000000 1.0
C      1  0.4984830000000  0.4415410000000  0.4399860000000 1.0
C      1  0.4982660000000  0.5590370000000  0.5598240000000 1.0
C      1  0.4215170000000  0.4413850000000  0.4553770000000 1.0
C      1  0.4217640000000  0.5586570000000  0.5447610000000 1.0
C      1  0.4215210000000  0.5585220000000  0.4553750000000 1.0
C      1  0.4217600000000  0.4412530000000  0.5447640000000 1.0
C      1  0.5525070000000  0.4999490000000  0.5141330000000 1.0
C      1  0.5273260000000  0.4999490000000  0.4756850000000 1.0
C      1  0.5531350000000  0.4999490000000  0.4855000000000 1.0
END
