TITL C-102480-7286-6 -0.130432348027897 125000 -985.926628186035 0 0 139 (C1) n - 1
REM
REM in /rds/project/t2_vol4/rds-t2-cs072/BORA/CARBON/from-Arr/AIRSS/Generating-Clusters/GAP-ML-2020/Higher-Symm/SD-CG/HFTN-CG
REM
REM
REM
REM
REM
REM ./C.cell (b20cbc046b6831c77cfcea5457e17084)
REM AIRSS Version 0.9.1 bugfix July 2018 build 013d7b7c2542+ Fri, 06 Jul 2018 19:26:36 +0100
REM compiler GCC version 9.3.0
REM options -cpp -mtune=generic -march=x86-64 -g -O0
REM seed 931074516 -1043207413 -1589694977 -484985023 -838374644 746514860 284415175 801670031 -1230429506 1217530121 -1749572314 -1468610614 -1189033852 1194400645 -1277897402 930759241 -2134239200 250247092 -97989332 -2029568256 -1846457197 -1657276716 519182708 -1849315652 -452621080 -611191483 1141172385 12705350 1722388457 1837249642 -1143683352 -2034900515 -183876236
REM
CELL 1.54180   50.00000   50.00000   50.00000   90.00000   90.00000   90.00000
LATT -1
SFAC C  
C      1  0.5799240000000  0.5138290000000  0.4666250000000 1.0
C      1  0.4997960000000  0.4428130000000  0.5732550000000 1.0
C      1  0.5095870000000  0.5511580000000  0.5070070000000 1.0
C      1  0.5206920000000  0.4256110000000  0.5638050000000 1.0
C      1  0.5348980000000  0.4125160000000  0.4705010000000 1.0
C      1  0.5154840000000  0.4106800000000  0.5398360000000 1.0
C      1  0.4548690000000  0.4279280000000  0.4902720000000 1.0
C      1  0.5509440000000  0.5299040000000  0.5668160000000 1.0
C      1  0.3992220000000  0.4911530000000  0.4878990000000 1.0
C      1  0.4914120000000  0.4331300000000  0.4595150000000 1.0
C      1  0.4297520000000  0.5166610000000  0.5093570000000 1.0
C      1  0.3979070000000  0.4649520000000  0.4450990000000 1.0
C      1  0.5068390000000  0.4716010000000  0.4101690000000 1.0
C      1  0.5163890000000  0.4981640000000  0.4094420000000 1.0
C      1  0.4754730000000  0.4113920000000  0.4751160000000 1.0
C      1  0.5266010000000  0.4013690000000  0.4948740000000 1.0
C      1  0.5493630000000  0.4342070000000  0.5601180000000 1.0
C      1  0.5130830000000  0.5416800000000  0.4807270000000 1.0
C      1  0.5321060000000  0.5257100000000  0.5415430000000 1.0
C      1  0.5785650000000  0.4756310000000  0.4220880000000 1.0
C      1  0.3979880000000  0.4665230000000  0.4727490000000 1.0
C      1  0.5520680000000  0.5023270000000  0.5770470000000 1.0
C      1  0.5234970000000  0.5849170000000  0.4476110000000 1.0
C      1  0.5403350000000  0.4783560000000  0.4693040000000 1.0
C      1  0.4385370000000  0.4255440000000  0.5173960000000 1.0
C      1  0.5230360000000  0.4479730000000  0.5060640000000 1.0
C      1  0.5116750000000  0.4785030000000  0.4727590000000 1.0
C      1  0.4992870000000  0.3934520000000  0.4996910000000 1.0
C      1  0.4669080000000  0.5441780000000  0.5640130000000 1.0
C      1  0.5936250000000  0.5026680000000  0.5113110000000 1.0
C      1  0.4730610000000  0.4547540000000  0.4981880000000 1.0
C      1  0.5112520000000  0.5637310000000  0.4319110000000 1.0
C      1  0.4123030000000  0.4448600000000  0.4850920000000 1.0
C      1  0.4821390000000  0.5459880000000  0.5155990000000 1.0
C      1  0.5336650000000  0.4178220000000  0.5183380000000 1.0
C      1  0.5509820000000  0.5269310000000  0.4237540000000 1.0
C      1  0.5750020000000  0.5339060000000  0.5486140000000 1.0
C      1  0.4395720000000  0.5461700000000  0.5510850000000 1.0
C      1  0.5746890000000  0.4466050000000  0.5297210000000 1.0
C      1  0.5186440000000  0.6032860000000  0.5118180000000 1.0
C      1  0.5052350000000  0.4896240000000  0.5697120000000 1.0
C      1  0.5574970000000  0.4237940000000  0.5343730000000 1.0
C      1  0.5383720000000  0.4381100000000  0.4332770000000 1.0
C      1  0.4717930000000  0.5953890000000  0.4994520000000 1.0
C      1  0.4257880000000  0.5149520000000  0.4480980000000 1.0
C      1  0.5562080000000  0.4317280000000  0.4734230000000 1.0
C      1  0.4584060000000  0.5877100000000  0.4758170000000 1.0
C      1  0.4141690000000  0.5350610000000  0.4952110000000 1.0
C      1  0.5114120000000  0.4992240000000  0.4968660000000 1.0
C      1  0.4645670000000  0.5423280000000  0.4287510000000 1.0
C      1  0.5489440000000  0.4555710000000  0.4904840000000 1.0
C      1  0.5292980000000  0.5506990000000  0.5268720000000 1.0
C      1  0.5503540000000  0.5818520000000  0.4560020000000 1.0
C      1  0.4101020000000  0.5135390000000  0.5296180000000 1.0
C      1  0.4741300000000  0.4223640000000  0.5351570000000 1.0
C      1  0.5820000000000  0.4651130000000  0.4467980000000 1.0
C      1  0.4676420000000  0.5261920000000  0.5883170000000 1.0
C      1  0.5309400000000  0.5450100000000  0.5838670000000 1.0
C      1  0.4777730000000  0.5851240000000  0.4544130000000 1.0
C      1  0.4796510000000  0.4689990000000  0.4187860000000 1.0
C      1  0.5021300000000  0.5966950000000  0.4635600000000 1.0
C      1  0.4664130000000  0.5775480000000  0.5234990000000 1.0
C      1  0.5679790000000  0.4579960000000  0.5559060000000 1.0
C      1  0.4611180000000  0.4802250000000  0.4873270000000 1.0
C      1  0.4146480000000  0.4663050000000  0.5304340000000 1.0
C      1  0.4425850000000  0.4455750000000  0.4459040000000 1.0
C      1  0.4714800000000  0.5002440000000  0.5278800000000 1.0
C      1  0.5918310000000  0.4788290000000  0.4951120000000 1.0
C      1  0.5584880000000  0.5876410000000  0.4837930000000 1.0
C      1  0.4714180000000  0.4527690000000  0.4437830000000 1.0
C      1  0.4957410000000  0.5189820000000  0.4788550000000 1.0
C      1  0.4435630000000  0.5366240000000  0.4469170000000 1.0
C      1  0.4981650000000  0.6040990000000  0.4917150000000 1.0
C      1  0.4247190000000  0.5611360000000  0.5031140000000 1.0
C      1  0.4812050000000  0.5273420000000  0.5403160000000 1.0
C      1  0.4903340000000  0.5277940000000  0.6027840000000 1.0
C      1  0.4793350000000  0.4532100000000  0.5275610000000 1.0
C      1  0.4347320000000  0.4704290000000  0.5523320000000 1.0
C      1  0.5011920000000  0.4921790000000  0.5227730000000 1.0
C      1  0.5767770000000  0.5060020000000  0.5369650000000 1.0
C      1  0.4758120000000  0.4806110000000  0.5739340000000 1.0
C      1  0.4533280000000  0.5458650000000  0.4715300000000 1.0
C      1  0.4557590000000  0.5004780000000  0.5828910000000 1.0
C      1  0.5685970000000  0.4866850000000  0.5599680000000 1.0
C      1  0.4327010000000  0.4974270000000  0.5671820000000 1.0
C      1  0.5730870000000  0.5337150000000  0.4431070000000 1.0
C      1  0.5753340000000  0.4576320000000  0.5040790000000 1.0
C      1  0.5068380000000  0.5114470000000  0.5463580000000 1.0
C      1  0.4392730000000  0.5644700000000  0.5283770000000 1.0
C      1  0.5321210000000  0.5311270000000  0.4638610000000 1.0
C      1  0.4841010000000  0.5866330000000  0.5451230000000 1.0
C      1  0.5452760000000  0.5927810000000  0.5080710000000 1.0
C      1  0.5894030000000  0.4846540000000  0.4673670000000 1.0
C      1  0.4749000000000  0.5185150000000  0.4183080000000 1.0
C      1  0.4344680000000  0.4345430000000  0.4708970000000 1.0
C      1  0.4872950000000  0.5673800000000  0.5657480000000 1.0
C      1  0.5168320000000  0.5249710000000  0.5980940000000 1.0
C      1  0.5006470000000  0.4520550000000  0.4842850000000 1.0
C      1  0.4243520000000  0.4661520000000  0.4367820000000 1.0
C      1  0.5857420000000  0.5500690000000  0.5034400000000 1.0
C      1  0.4100620000000  0.5151850000000  0.4742440000000 1.0
C      1  0.4351110000000  0.4922900000000  0.4308070000000 1.0
C      1  0.5191050000000  0.4233900000000  0.4490720000000 1.0
C      1  0.5490330000000  0.5075310000000  0.4732490000000 1.0
C      1  0.5261540000000  0.4989430000000  0.5891120000000 1.0
C      1  0.5393180000000  0.5057940000000  0.5004040000000 1.0
C      1  0.5097530000000  0.5970260000000  0.5380950000000 1.0
C      1  0.5159870000000  0.5660870000000  0.5718500000000 1.0
C      1  0.5917050000000  0.5241430000000  0.4931620000000 1.0
C      1  0.5709030000000  0.5601290000000  0.4542180000000 1.0
C      1  0.4465500000000  0.4445280000000  0.5645100000000 1.0
C      1  0.5237780000000  0.5363410000000  0.4339650000000 1.0
C      1  0.4033170000000  0.4893090000000  0.5168610000000 1.0
C      1  0.5323060000000  0.4579450000000  0.4139200000000 1.0
C      1  0.4612660000000  0.4934340000000  0.4177180000000 1.0
C      1  0.5079210000000  0.4633440000000  0.5287050000000 1.0
C      1  0.4477420000000  0.4237290000000  0.5442580000000 1.0
C      1  0.5502530000000  0.5728120000000  0.5301680000000 1.0
C      1  0.5442550000000  0.5036550000000  0.4092790000000 1.0
C      1  0.4175770000000  0.4437680000000  0.5131130000000 1.0
C      1  0.5748660000000  0.5551190000000  0.5300760000000 1.0
C      1  0.4569730000000  0.5050060000000  0.5030110000000 1.0
C      1  0.5634030000000  0.4417660000000  0.4484260000000 1.0
C      1  0.4730380000000  0.4511180000000  0.5776620000000 1.0
C      1  0.4387360000000  0.5687890000000  0.4801610000000 1.0
C      1  0.4231900000000  0.5209620000000  0.5534140000000 1.0
C      1  0.5293460000000  0.5809720000000  0.5510330000000 1.0
C      1  0.4706530000000  0.4818700000000  0.4606830000000 1.0
C      1  0.4819870000000  0.3851530000000  0.4797450000000 1.0
C      1  0.4918380000000  0.4026810000000  0.5270120000000 1.0
C      1  0.4824820000000  0.5648080000000  0.4343650000000 1.0
C      1  0.4945860000000  0.4983750000000  0.4571700000000 1.0
C      1  0.5779920000000  0.5663640000000  0.4818840000000 1.0
C      1  0.4646840000000  0.4756130000000  0.5437620000000 1.0
C      1  0.5131490000000  0.4639290000000  0.5582750000000 1.0
C      1  0.5483000000000  0.5072520000000  0.5259600000000 1.0
C      1  0.4703820000000  0.5294120000000  0.4913360000000 1.0
C      1  0.5546110000000  0.4770140000000  0.4101180000000 1.0
C      1  0.5025170000000  0.5146130000000  0.4278410000000 1.0
END
