TITL C-109507-8515-3 0.0404926339388548 125000 -100.327310343199 0 0 16 (C2v) n - 1
REM
REM in /rds/project/t2_vol4/rds-t2-cs072/BORA/CARBON/from-Arr/AIRSS/Generating-Clusters/GAP-ML-2020/Higher-Symm/SD-CG/HFTN-CG
REM
REM
REM
REM
REM
REM ./C.cell (b20cbc046b6831c77cfcea5457e17084)
REM AIRSS Version 0.9.1 bugfix July 2018 build 013d7b7c2542+ Fri, 06 Jul 2018 19:26:36 +0100
REM compiler GCC version 9.3.0
REM options -cpp -mtune=generic -march=x86-64 -g -O0
REM seed 9867433 934288612 -1431533564 1345226456 -1863002682 855892270 -429440679 1888857097 -1436171027 -2083080427 1905161052 699952738 705402013 1287018596 1494393338 1108546237 1958240949 -2011191376 961421433 1839435874 73917686 -961373565 -1987072984 891209694 -1347829368 2038885963 -1747718476 142151561 -1645755752 -786185126 1218121457 27080735 691368002
REM
CELL 1.54180   50.00000   50.00000   50.00000   90.00000   90.00000   90.00000
LATT -1
SFAC C  
C      1  0.5009140000000  0.5097880000000  0.5373690000000 1.0
C      1  0.5345280000000  0.5094860000000  0.5055950000000 1.0
C      1  0.5058430000000  0.5492710000000  0.5085400000000 1.0
C      1  0.4942740000000  0.5082470000000  0.4630210000000 1.0
C      1  0.5045860000000  0.4855980000000  0.4609380000000 1.0
C      1  0.4910460000000  0.4870420000000  0.5403540000000 1.0
C      1  0.4606600000000  0.5085490000000  0.4947960000000 1.0
C      1  0.5378470000000  0.4866210000000  0.4961150000000 1.0
C      1  0.4577850000000  0.4860180000000  0.5051770000000 1.0
C      1  0.4885630000000  0.5487400000000  0.4902640000000 1.0
C      1  0.5073780000000  0.4479180000000  0.4927220000000 1.0
C      1  0.4890040000000  0.4480830000000  0.5100910000000 1.0
C      1  0.4782860000000  0.5244090000000  0.4796230000000 1.0
C      1  0.4783480000000  0.4723970000000  0.5194580000000 1.0
C      1  0.5175600000000  0.4720450000000  0.4823930000000 1.0
C      1  0.5165890000000  0.5255880000000  0.5201330000000 1.0
END
