TITL C-105247-9170-13 -186.282316591432 125000 -567.21672338003 0 0 80 (C5) n - 1
REM
REM in /rds/project/t2_vol4/rds-t2-cs072/BORA/CARBON/from-Arr/AIRSS/Generating-Clusters/GAP-ML-2020/Higher-Symm/SD-CG/HFTN-CG
REM
REM
REM
REM
REM
REM ./C.cell (b20cbc046b6831c77cfcea5457e17084)
REM AIRSS Version 0.9.1 bugfix July 2018 build 013d7b7c2542+ Fri, 06 Jul 2018 19:26:36 +0100
REM compiler GCC version 9.3.0
REM options -cpp -mtune=generic -march=x86-64 -g -O0
REM seed -1726336668 -1054537392 -775020614 -1490861933 1330295339 -1806112731 1532676514 -1696370613 -1024525491 -17469426 728455644 -1853231231 1500130564 894371085 -1864961365 70361357 2098533505 -1324467052 62439537 52470965 -1665540412 -910067271 -74129828 1587866528 2086899096 885027640 -1313479856 -145161667 1005091975 1379902864 861190860 -111671544 -1161029180
REM
CELL 1.54180   50.00000   50.00000   50.00000   90.00000   90.00000   90.00000
LATT -1
SFAC C  
C      1  0.4399640000000  0.4871130000000  0.4351440000000 1.0
C      1  0.4197680000000  0.4870930000000  0.5370530000000 1.0
C      1  0.5104490000000  0.4870780000000  0.5877530000000 1.0
C      1  0.5866890000000  0.4870890000000  0.5171770000000 1.0
C      1  0.5431270000000  0.4871110000000  0.4228600000000 1.0
C      1  0.4399660000000  0.5129200000000  0.4351490000000 1.0
C      1  0.4197690000000  0.5128990000000  0.5370590000000 1.0
C      1  0.5104500000000  0.5128840000000  0.5877580000000 1.0
C      1  0.5866900000000  0.5128960000000  0.5171830000000 1.0
C      1  0.5431280000000  0.5129170000000  0.4228650000000 1.0
C      1  0.5024500000000  0.4712190000000  0.4463850000000 1.0
C      1  0.4497710000000  0.4712150000000  0.4810970000000 1.0
C      1  0.4665050000000  0.4712010000000  0.5419240000000 1.0
C      1  0.5295260000000  0.4711970000000  0.5448050000000 1.0
C      1  0.5517410000000  0.4712090000000  0.4857590000000 1.0
C      1  0.5024520000000  0.5288030000000  0.4463970000000 1.0
C      1  0.4497740000000  0.5287980000000  0.4811090000000 1.0
C      1  0.4665080000000  0.5287850000000  0.5419360000000 1.0
C      1  0.5295290000000  0.5287810000000  0.5448170000000 1.0
C      1  0.5517440000000  0.5287920000000  0.4857710000000 1.0
C      1  0.5409590000000  0.4446580000000  0.5387880000000 1.0
C      1  0.5495560000000  0.4446710000000  0.4730220000000 1.0
C      1  0.4896650000000  0.4446800000000  0.4445220000000 1.0
C      1  0.4440530000000  0.4446720000000  0.4926750000000 1.0
C      1  0.4757540000000  0.4446580000000  0.5509350000000 1.0
C      1  0.5409640000000  0.5553220000000  0.5388110000000 1.0
C      1  0.5495610000000  0.5553350000000  0.4730450000000 1.0
C      1  0.4896700000000  0.5553440000000  0.4445450000000 1.0
C      1  0.4440580000000  0.5553360000000  0.4926990000000 1.0
C      1  0.4757600000000  0.5553230000000  0.5509580000000 1.0
C      1  0.5104930000000  0.4265230000000  0.4523990000000 1.0
C      1  0.4579840000000  0.4265200000000  0.4752970000000 1.0
C      1  0.4635350000000  0.4265080000000  0.5323120000000 1.0
C      1  0.5194750000000  0.4265030000000  0.5446520000000 1.0
C      1  0.5484960000000  0.4265120000000  0.4952630000000 1.0
C      1  0.5105000000000  0.5734960000000  0.4524300000000 1.0
C      1  0.4579910000000  0.5734940000000  0.4753280000000 1.0
C      1  0.4635420000000  0.5734820000000  0.5323430000000 1.0
C      1  0.5194820000000  0.5734760000000  0.5446820000000 1.0
C      1  0.5485040000000  0.5734850000000  0.4952930000000 1.0
C      1  0.5017800000000  0.5156790000000  0.4738240000000 1.0
C      1  0.4756520000000  0.5156760000000  0.4902210000000 1.0
C      1  0.4831740000000  0.5156700000000  0.5201370000000 1.0
C      1  0.5139490000000  0.5156680000000  0.5222290000000 1.0
C      1  0.5254490000000  0.5156730000000  0.4936050000000 1.0
C      1  0.5017780000000  0.4843320000000  0.4738170000000 1.0
C      1  0.4756510000000  0.4843300000000  0.4902150000000 1.0
C      1  0.4831720000000  0.4843230000000  0.5201310000000 1.0
C      1  0.5139480000000  0.4843210000000  0.5222220000000 1.0
C      1  0.5254470000000  0.4843270000000  0.4935990000000 1.0
C      1  0.4385630000000  0.5327580000000  0.5347490000000 1.0
C      1  0.5140570000000  0.5327470000000  0.5691740000000 1.0
C      1  0.5701270000000  0.5327570000000  0.5080130000000 1.0
C      1  0.5292860000000  0.5327740000000  0.4357880000000 1.0
C      1  0.4479750000000  0.5327750000000  0.4523110000000 1.0
C      1  0.4385600000000  0.4672340000000  0.5347350000000 1.0
C      1  0.5140540000000  0.4672230000000  0.5691600000000 1.0
C      1  0.5701240000000  0.4672330000000  0.5079990000000 1.0
C      1  0.5292830000000  0.4672500000000  0.4357740000000 1.0
C      1  0.4479720000000  0.4672500000000  0.4522970000000 1.0
C      1  0.5244610000000  0.4119690000000  0.4978340000000 1.0
C      1  0.5055130000000  0.4119740000000  0.4760500000000 1.0
C      1  0.4789400000000  0.4119730000000  0.4873390000000 1.0
C      1  0.4814650000000  0.4119670000000  0.5161000000000 1.0
C      1  0.5095990000000  0.4119650000000  0.5225860000000 1.0
C      1  0.5244700000000  0.5880290000000  0.4978700000000 1.0
C      1  0.5055220000000  0.5880350000000  0.4760870000000 1.0
C      1  0.4789490000000  0.5880340000000  0.4873760000000 1.0
C      1  0.4814740000000  0.5880280000000  0.5161370000000 1.0
C      1  0.5096070000000  0.5880250000000  0.5226230000000 1.0
C      1  0.4629750000000  0.5580870000000  0.4509610000000 1.0
C      1  0.4419100000000  0.5580740000000  0.5200700000000 1.0
C      1  0.5011280000000  0.5580620000000  0.5614600000000 1.0
C      1  0.5587910000000  0.5580690000000  0.5179310000000 1.0
C      1  0.5352110000000  0.5580840000000  0.4496390000000 1.0
C      1  0.4629690000000  0.4419370000000  0.4509370000000 1.0
C      1  0.4419050000000  0.4419240000000  0.5200460000000 1.0
C      1  0.5011220000000  0.4419120000000  0.5614350000000 1.0
C      1  0.5587850000000  0.4419180000000  0.5179060000000 1.0
C      1  0.5352050000000  0.4419340000000  0.4496150000000 1.0
END
