TITL C-102481-7337-8 0.0242222927096406 125000 -613.474236611303 0 0 85 (C1) n - 1
REM
REM in /rds/project/t2_vol4/rds-t2-cs072/BORA/CARBON/from-Arr/AIRSS/Generating-Clusters/GAP-ML-2020/Higher-Symm/SD-CG/HFTN-CG
REM
REM
REM
REM
REM
REM ./C.cell (b20cbc046b6831c77cfcea5457e17084)
REM AIRSS Version 0.9.1 bugfix July 2018 build 013d7b7c2542+ Fri, 06 Jul 2018 19:26:36 +0100
REM compiler GCC version 9.3.0
REM options -cpp -mtune=generic -march=x86-64 -g -O0
REM seed 1169489803 -1075068866 -7113567 -981374170 -1627980394 1738534188 594463009 913177116 1008296136 1868829090 530860844 -594620465 -109330254 -70017166 1054172639 -605390022 527501118 26465052 1614360852 -340821256 1450769106 1082955251 -1693068253 1436594884 1528509142 -1492858688 596505763 557938030 1884854902 351143173 -1321016634 -1621715001 592211731
REM
CELL 1.54180   50.00000   50.00000   50.00000   90.00000   90.00000   90.00000
LATT -1
SFAC C  
C      1  0.4826540000000  0.5085860000000  0.4253620000000 1.0
C      1  0.4795260000000  0.5374910000000  0.4231180000000 1.0
C      1  0.5017470000000  0.5526470000000  0.4181510000000 1.0
C      1  0.5297390000000  0.5435060000000  0.4161740000000 1.0
C      1  0.5453640000000  0.5211510000000  0.4153570000000 1.0
C      1  0.5478170000000  0.4909550000000  0.4151870000000 1.0
C      1  0.5360630000000  0.4659270000000  0.4158370000000 1.0
C      1  0.5109370000000  0.4493300000000  0.4178500000000 1.0
C      1  0.4837920000000  0.4483190000000  0.4185030000000 1.0
C      1  0.4598760000000  0.4653460000000  0.4185030000000 1.0
C      1  0.4585950000000  0.4926330000000  0.4217920000000 1.0
C      1  0.4609040000000  0.4238050000000  0.5130230000000 1.0
C      1  0.4376110000000  0.4419650000000  0.5113410000000 1.0
C      1  0.4178400000000  0.5081490000000  0.5088980000000 1.0
C      1  0.4240270000000  0.5363670000000  0.5144320000000 1.0
C      1  0.4681470000000  0.5743350000000  0.5113280000000 1.0
C      1  0.4966400000000  0.5791290000000  0.5103700000000 1.0
C      1  0.5512000000000  0.5588780000000  0.5086790000000 1.0
C      1  0.5689290000000  0.5360510000000  0.5081950000000 1.0
C      1  0.5764820000000  0.4788810000000  0.5065770000000 1.0
C      1  0.5651070000000  0.4529270000000  0.5059300000000 1.0
C      1  0.5285670000000  0.4259670000000  0.5152150000000 1.0
C      1  0.4380450000000  0.5023760000000  0.4386830000000 1.0
C      1  0.4386840000000  0.5299770000000  0.4464010000000 1.0
C      1  0.4598830000000  0.5478290000000  0.4416030000000 1.0
C      1  0.5087600000000  0.5734970000000  0.4374620000000 1.0
C      1  0.5360020000000  0.5646320000000  0.4365010000000 1.0
C      1  0.5675160000000  0.5224250000000  0.4353140000000 1.0
C      1  0.5704950000000  0.4944490000000  0.4346710000000 1.0
C      1  0.5477560000000  0.4470270000000  0.4356960000000 1.0
C      1  0.5232940000000  0.4328410000000  0.4391920000000 1.0
C      1  0.4706560000000  0.4318710000000  0.4390650000000 1.0
C      1  0.4463590000000  0.4480200000000  0.4375110000000 1.0
C      1  0.4380170000000  0.5437430000000  0.5367320000000 1.0
C      1  0.4592140000000  0.5632620000000  0.5357050000000 1.0
C      1  0.5110070000000  0.5727830000000  0.5337920000000 1.0
C      1  0.5377790000000  0.5626870000000  0.5329190000000 1.0
C      1  0.5698510000000  0.5207300000000  0.5318420000000 1.0
C      1  0.5723690000000  0.4921340000000  0.5308100000000 1.0
C      1  0.5478250000000  0.4446650000000  0.5265390000000 1.0
C      1  0.5076310000000  0.4263550000000  0.5335990000000 1.0
C      1  0.4788160000000  0.4268220000000  0.5339050000000 1.0
C      1  0.4373710000000  0.4634630000000  0.5289990000000 1.0
C      1  0.4285720000000  0.4910450000000  0.5283810000000 1.0
C      1  0.4487090000000  0.4985510000000  0.5491460000000 1.0
C      1  0.4543600000000  0.5253430000000  0.5538100000000 1.0
C      1  0.4762410000000  0.5466860000000  0.5540090000000 1.0
C      1  0.5032100000000  0.5523660000000  0.5541400000000 1.0
C      1  0.5318090000000  0.5413010000000  0.5529090000000 1.0
C      1  0.5479500000000  0.5186720000000  0.5519210000000 1.0
C      1  0.5500910000000  0.4876730000000  0.5493820000000 1.0
C      1  0.5362820000000  0.4625580000000  0.5468230000000 1.0
C      1  0.5096840000000  0.4504910000000  0.5512300000000 1.0
C      1  0.4800220000000  0.4525770000000  0.5507350000000 1.0
C      1  0.4583440000000  0.4699910000000  0.5491450000000 1.0
C      1  0.4948930000000  0.5769420000000  0.4614130000000 1.0
C      1  0.5499690000000  0.5596540000000  0.4600480000000 1.0
C      1  0.5675930000000  0.5369690000000  0.4592540000000 1.0
C      1  0.5750040000000  0.4799380000000  0.4578760000000 1.0
C      1  0.5632920000000  0.4537720000000  0.4575360000000 1.0
C      1  0.5122430000000  0.4244130000000  0.4637310000000 1.0
C      1  0.4823970000000  0.4231540000000  0.4630640000000 1.0
C      1  0.4323500000000  0.4574780000000  0.4601810000000 1.0
C      1  0.4263160000000  0.4863710000000  0.4598120000000 1.0
C      1  0.4235660000000  0.5321670000000  0.4696870000000 1.0
C      1  0.4675100000000  0.5669650000000  0.4622430000000 1.0
C      1  0.4627920000000  0.4238490000000  0.4836780000000 1.0
C      1  0.4390040000000  0.4408800000000  0.4821060000000 1.0
C      1  0.4175260000000  0.5054810000000  0.4797870000000 1.0
C      1  0.4303160000000  0.5503480000000  0.4900220000000 1.0
C      1  0.4533790000000  0.5674010000000  0.4873060000000 1.0
C      1  0.5108320000000  0.5783330000000  0.4855600000000 1.0
C      1  0.5386470000000  0.5687050000000  0.4848520000000 1.0
C      1  0.5747700000000  0.5230300000000  0.4832540000000 1.0
C      1  0.5788260000000  0.4942600000000  0.4823670000000 1.0
C      1  0.5557280000000  0.4413710000000  0.4815180000000 1.0
C      1  0.5310680000000  0.4265490000000  0.4856750000000 1.0
C      1  0.4949210000000  0.5019700000000  0.4502120000000 1.0
C      1  0.4988430000000  0.5008540000000  0.5262300000000 1.0
C      1  0.4929070000000  0.4967680000000  0.6024460000000 1.0
C      1  0.4941050000000  0.5003120000000  0.4754060000000 1.0
C      1  0.4996010000000  0.5001240000000  0.5528720000000 1.0
C      1  0.4939450000000  0.4972460000000  0.5019100000000 1.0
C      1  0.4874340000000  0.4945470000000  0.6276570000000 1.0
C      1  0.4999890000000  0.4997570000000  0.5779510000000 1.0
END
