TITL C-103935-5076-2 -175.439090262371 125000 -1383.47901890084 0 0 195 (C1) n - 1
REM
REM in /rds/project/t2_vol4/rds-t2-cs072/BORA/CARBON/from-Arr/AIRSS/Generating-Clusters/GAP-ML-2020/Higher-Symm/SD-CG/HFTN-CG/C160-200
REM
REM
REM
REM
REM
REM ./C.cell (6b4489405718ea1b717e0baf1da4c2d9)
REM AIRSS Version 0.9.1 bugfix July 2018 build 013d7b7c2542+ Fri, 06 Jul 2018 19:26:36 +0100
REM compiler GCC version 9.3.0
REM options -cpp -mtune=generic -march=x86-64 -g -O0
REM seed -204142844 -1165640786 1979439116 -2029788883 1915745869 930123686 1479500378 941232366 926903200 762629045 224644124 314069344 -933760477 -1789637053 -63676997 1036844698 1974347869 -1068715668 -1128926751 -1752915568 -1460784857 -657806192 -403660332 -1625368980 831853503 -958654405 1537470136 -1939246481 1827261172 321725728 -1097613626 -1852699913 802722069
REM
CELL 1.54180   50.00000   50.00000   50.00000   90.00000   90.00000   90.00000
LATT -1
SFAC C  
C      1  0.5940970000000  0.4487560000000  0.5121510000000 1.0
C      1  0.4946950000000  0.6079680000000  0.5189760000000 1.0
C      1  0.4067170000000  0.4455550000000  0.5188260000000 1.0
C      1  0.3939380000000  0.4591510000000  0.4737590000000 1.0
C      1  0.5234740000000  0.6088670000000  0.4846020000000 1.0
C      1  0.5827170000000  0.4194480000000  0.4767470000000 1.0
C      1  0.4668880000000  0.4003900000000  0.5511790000000 1.0
C      1  0.6069710000000  0.5246130000000  0.5480010000000 1.0
C      1  0.4214090000000  0.5786230000000  0.5498530000000 1.0
C      1  0.5279260000000  0.3939860000000  0.4471820000000 1.0
C      1  0.3976170000000  0.5232930000000  0.4439650000000 1.0
C      1  0.5750160000000  0.5783990000000  0.4483560000000 1.0
C      1  0.5777020000000  0.5112720000000  0.4134020000000 1.0
C      1  0.4594990000000  0.5632280000000  0.4245710000000 1.0
C      1  0.4701470000000  0.4283160000000  0.4116080000000 1.0
C      1  0.4227830000000  0.5127250000000  0.5892420000000 1.0
C      1  0.5517460000000  0.5575670000000  0.5884420000000 1.0
C      1  0.5308900000000  0.4202860000000  0.5856030000000 1.0
C      1  0.4857550000000  0.5089360000000  0.5026890000000 1.0
C      1  0.4995660000000  0.4836180000000  0.5017820000000 1.0
C      1  0.5140470000000  0.5088940000000  0.5017500000000 1.0
C      1  0.5269820000000  0.5185700000000  0.4781650000000 1.0
C      1  0.5009530000000  0.4674450000000  0.4782550000000 1.0
C      1  0.4717110000000  0.5177430000000  0.4798870000000 1.0
C      1  0.6006100000000  0.5577190000000  0.5129740000000 1.0
C      1  0.3975620000000  0.5557360000000  0.5123790000000 1.0
C      1  0.4966860000000  0.3852840000000  0.5137820000000 1.0
C      1  0.3975150000000  0.5548950000000  0.4834920000000 1.0
C      1  0.5997520000000  0.5585440000000  0.4845210000000 1.0
C      1  0.4965640000000  0.3852570000000  0.4850890000000 1.0
C      1  0.3884410000000  0.5315440000000  0.4698210000000 1.0
C      1  0.5224510000000  0.3844370000000  0.4735350000000 1.0
C      1  0.5863060000000  0.5806070000000  0.4742240000000 1.0
C      1  0.6139630000000  0.5352460000000  0.5228660000000 1.0
C      1  0.4713300000000  0.3879770000000  0.5260570000000 1.0
C      1  0.4092900000000  0.5786940000000  0.5241450000000 1.0
C      1  0.3894020000000  0.4605120000000  0.5026370000000 1.0
C      1  0.5867210000000  0.4222210000000  0.5047710000000 1.0
C      1  0.5219270000000  0.6144210000000  0.5120250000000 1.0
C      1  0.6088590000000  0.4695560000000  0.4999500000000 1.0
C      1  0.4154630000000  0.4216470000000  0.5071470000000 1.0
C      1  0.4688840000000  0.6107920000000  0.5062150000000 1.0
C      1  0.4792570000000  0.4503050000000  0.4456770000000 1.0
C      1  0.5539310000000  0.5080020000000  0.4465280000000 1.0
C      1  0.4645950000000  0.5452030000000  0.4480580000000 1.0
C      1  0.5222560000000  0.4461040000000  0.5544530000000 1.0
C      1  0.4449180000000  0.5093540000000  0.5568650000000 1.0
C      1  0.5358880000000  0.5422670000000  0.5554620000000 1.0
C      1  0.4252110000000  0.5524480000000  0.5614250000000 1.0
C      1  0.4901640000000  0.4119810000000  0.5619220000000 1.0
C      1  0.5841060000000  0.5365530000000  0.5603460000000 1.0
C      1  0.5731150000000  0.5515810000000  0.4388790000000 1.0
C      1  0.5078340000000  0.4121410000000  0.4382010000000 1.0
C      1  0.4215700000000  0.5366020000000  0.4369140000000 1.0
C      1  0.5050060000000  0.5822850000000  0.4187900000000 1.0
C      1  0.4599600000000  0.4802290000000  0.4106190000000 1.0
C      1  0.5488170000000  0.4690290000000  0.4159720000000 1.0
C      1  0.4985390000000  0.5578510000000  0.5852190000000 1.0
C      1  0.5643660000000  0.4585140000000  0.5854670000000 1.0
C      1  0.4621540000000  0.4752680000000  0.5906940000000 1.0
C      1  0.5682830000000  0.4110340000000  0.5250590000000 1.0
C      1  0.5413600000000  0.6021620000000  0.5311100000000 1.0
C      1  0.3809810000000  0.4833390000000  0.5148800000000 1.0
C      1  0.4247840000000  0.4196210000000  0.4792740000000 1.0
C      1  0.4589610000000  0.6030020000000  0.4780030000000 1.0
C      1  0.6051590000000  0.4821040000000  0.4726280000000 1.0
C      1  0.5344170000000  0.5111420000000  0.5697400000000 1.0
C      1  0.4661290000000  0.5287510000000  0.5690560000000 1.0
C      1  0.4971930000000  0.4586380000000  0.5693280000000 1.0
C      1  0.4650940000000  0.5170740000000  0.4341670000000 1.0
C      1  0.5276490000000  0.5229270000000  0.4315830000000 1.0
C      1  0.5074890000000  0.4592260000000  0.4332580000000 1.0
C      1  0.5696570000000  0.5374350000000  0.4138900000000 1.0
C      1  0.4372920000000  0.5496490000000  0.4138700000000 1.0
C      1  0.4944100000000  0.4189050000000  0.4114710000000 1.0
C      1  0.4257350000000  0.5393100000000  0.5885670000000 1.0
C      1  0.5701080000000  0.5364340000000  0.5861000000000 1.0
C      1  0.5053750000000  0.4146470000000  0.5876750000000 1.0
C      1  0.5526560000000  0.5964220000000  0.4480300000000 1.0
C      1  0.3960730000000  0.4945740000000  0.4406930000000 1.0
C      1  0.5552460000000  0.4018570000000  0.4450160000000 1.0
C      1  0.4440080000000  0.5969290000000  0.5496160000000 1.0
C      1  0.6108240000000  0.4961040000000  0.5460660000000 1.0
C      1  0.4436470000000  0.4189020000000  0.5498050000000 1.0
C      1  0.4981640000000  0.4662110000000  0.5242270000000 1.0
C      1  0.5302610000000  0.5144140000000  0.5241240000000 1.0
C      1  0.4724720000000  0.5181810000000  0.5258770000000 1.0
C      1  0.5056870000000  0.4381760000000  0.4866000000000 1.0
C      1  0.4437660000000  0.5266600000000  0.4890720000000 1.0
C      1  0.5499980000000  0.5368930000000  0.4867160000000 1.0
C      1  0.5461980000000  0.3941450000000  0.5162850000000 1.0
C      1  0.5663160000000  0.5930320000000  0.5191090000000 1.0
C      1  0.3844030000000  0.5096150000000  0.5135000000000 1.0
C      1  0.4482430000000  0.4014610000000  0.4821140000000 1.0
C      1  0.4315360000000  0.5925870000000  0.4817320000000 1.0
C      1  0.6114570000000  0.5105280000000  0.4780630000000 1.0
C      1  0.4734510000000  0.4697480000000  0.4679570000000 1.0
C      1  0.5401640000000  0.4935880000000  0.4683790000000 1.0
C      1  0.4855670000000  0.5412110000000  0.4691880000000 1.0
C      1  0.5258730000000  0.4671500000000  0.5339700000000 1.0
C      1  0.4598390000000  0.4935760000000  0.5360420000000 1.0
C      1  0.5158070000000  0.5378340000000  0.5338720000000 1.0
C      1  0.5467330000000  0.4409740000000  0.4168580000000 1.0
C      1  0.5278320000000  0.5687200000000  0.4122360000000 1.0
C      1  0.4349210000000  0.4930270000000  0.4115920000000 1.0
C      1  0.4590240000000  0.4468080000000  0.5887340000000 1.0
C      1  0.4729050000000  0.5710120000000  0.5835970000000 1.0
C      1  0.5741150000000  0.4834520000000  0.5834120000000 1.0
C      1  0.3997020000000  0.5305840000000  0.5264590000000 1.0
C      1  0.5197620000000  0.3971420000000  0.5268970000000 1.0
C      1  0.5782030000000  0.5686440000000  0.5278730000000 1.0
C      1  0.5969330000000  0.5334030000000  0.4695700000000 1.0
C      1  0.4750210000000  0.4007760000000  0.4714340000000 1.0
C      1  0.4203870000000  0.5683300000000  0.4716410000000 1.0
C      1  0.5015310000000  0.5869480000000  0.4733830000000 1.0
C      1  0.4147570000000  0.4411430000000  0.4608930000000 1.0
C      1  0.5751720000000  0.4431170000000  0.4566810000000 1.0
C      1  0.5027530000000  0.5823640000000  0.5322140000000 1.0
C      1  0.5702240000000  0.4557510000000  0.5286590000000 1.0
C      1  0.4273640000000  0.4608950000000  0.5341040000000 1.0
C      1  0.5215270000000  0.4784370000000  0.4155210000000 1.0
C      1  0.5096180000000  0.5035750000000  0.4154180000000 1.0
C      1  0.4810900000000  0.5018720000000  0.4151590000000 1.0
C      1  0.4910560000000  0.4823510000000  0.5856170000000 1.0
C      1  0.4918850000000  0.5297990000000  0.5819280000000 1.0
C      1  0.5069880000000  0.5061840000000  0.5837290000000 1.0
C      1  0.4900880000000  0.4242540000000  0.4598500000000 1.0
C      1  0.5686910000000  0.5313910000000  0.4601030000000 1.0
C      1  0.4372020000000  0.5451170000000  0.4618580000000 1.0
C      1  0.5086260000000  0.4220550000000  0.5400720000000 1.0
C      1  0.4273560000000  0.5307520000000  0.5406780000000 1.0
C      1  0.5634580000000  0.5448830000000  0.5404400000000 1.0
C      1  0.5542590000000  0.4832480000000  0.4934960000000 1.0
C      1  0.4884200000000  0.5603780000000  0.4931470000000 1.0
C      1  0.4572590000000  0.4621680000000  0.4938190000000 1.0
C      1  0.4427340000000  0.4820080000000  0.5126610000000 1.0
C      1  0.5131290000000  0.5587790000000  0.5104290000000 1.0
C      1  0.5441790000000  0.4601740000000  0.5094080000000 1.0
C      1  0.3860700000000  0.4850370000000  0.4650280000000 1.0
C      1  0.5667050000000  0.3973380000000  0.4704350000000 1.0
C      1  0.5494920000000  0.6074290000000  0.4740810000000 1.0
C      1  0.6183150000000  0.4893390000000  0.5188160000000 1.0
C      1  0.4300700000000  0.4068740000000  0.5258900000000 1.0
C      1  0.4459490000000  0.6079310000000  0.5231950000000 1.0
C      1  0.5471190000000  0.3862920000000  0.4886220000000 1.0
C      1  0.5710980000000  0.5989750000000  0.4909620000000 1.0
C      1  0.3805650000000  0.5078710000000  0.4836080000000 1.0
C      1  0.4482470000000  0.3923910000000  0.5100170000000 1.0
C      1  0.4235270000000  0.5982050000000  0.5082720000000 1.0
C      1  0.6215960000000  0.5136970000000  0.5047260000000 1.0
C      1  0.4348220000000  0.4886330000000  0.5787540000000 1.0
C      1  0.5494440000000  0.4376280000000  0.5711310000000 1.0
C      1  0.5276690000000  0.5660720000000  0.5741930000000 1.0
C      1  0.5706320000000  0.4874020000000  0.4288790000000 1.0
C      1  0.4562360000000  0.4510070000000  0.4239560000000 1.0
C      1  0.4783480000000  0.5842000000000  0.4293320000000 1.0
C      1  0.5347880000000  0.4396240000000  0.4902710000000 1.0
C      1  0.5348860000000  0.5612460000000  0.4893840000000 1.0
C      1  0.4312840000000  0.5004530000000  0.4924750000000 1.0
C      1  0.4652970000000  0.4398250000000  0.5099310000000 1.0
C      1  0.4655040000000  0.5615840000000  0.5132560000000 1.0
C      1  0.5700040000000  0.4996690000000  0.5117030000000 1.0
C      1  0.4365020000000  0.4385580000000  0.5732040000000 1.0
C      1  0.5886930000000  0.4835180000000  0.5582780000000 1.0
C      1  0.4672340000000  0.5855400000000  0.5603300000000 1.0
C      1  0.5643890000000  0.4263690000000  0.4335780000000 1.0
C      1  0.4152780000000  0.4782150000000  0.4264780000000 1.0
C      1  0.5285010000000  0.5839990000000  0.4382650000000 1.0
C      1  0.5596410000000  0.5093830000000  0.5862870000000 1.0
C      1  0.4517080000000  0.5504380000000  0.5809600000000 1.0
C      1  0.4851080000000  0.4356750000000  0.5820920000000 1.0
C      1  0.4398590000000  0.5208920000000  0.4186480000000 1.0
C      1  0.5411160000000  0.5437780000000  0.4140760000000 1.0
C      1  0.5180030000000  0.4347310000000  0.4208440000000 1.0
C      1  0.4243260000000  0.4633890000000  0.5644730000000 1.0
C      1  0.5664610000000  0.4313650000000  0.5450990000000 1.0
C      1  0.5252970000000  0.5884490000000  0.5505630000000 1.0
C      1  0.5889610000000  0.4698280000000  0.4517040000000 1.0
C      1  0.4264070000000  0.4533950000000  0.4365830000000 1.0
C      1  0.4783090000000  0.5963150000000  0.4578290000000 1.0
C      1  0.4859230000000  0.5371450000000  0.5446660000000 1.0
C      1  0.4761390000000  0.4672160000000  0.5444170000000 1.0
C      1  0.5384830000000  0.4928530000000  0.5439590000000 1.0
C      1  0.5133260000000  0.5370450000000  0.4578190000000 1.0
C      1  0.5238730000000  0.4689840000000  0.4589540000000 1.0
C      1  0.4628890000000  0.4973700000000  0.4596010000000 1.0
C      1  0.5439190000000  0.4474580000000  0.4653450000000 1.0
C      1  0.5212770000000  0.5666060000000  0.4626350000000 1.0
C      1  0.4356330000000  0.4914960000000  0.4669830000000 1.0
C      1  0.4539380000000  0.4453780000000  0.5358020000000 1.0
C      1  0.4786830000000  0.5667360000000  0.5390900000000 1.0
C      1  0.5681700000000  0.4845070000000  0.5378220000000 1.0
C      1  0.4938670000000  0.4378390000000  0.5143800000000 1.0
C      1  0.4496360000000  0.5373130000000  0.5164150000000 1.0
C      1  0.5574860000000  0.5253290000000  0.5145940000000 1.0
END
