TITL C-109987-9491-4 -5.16871621619692 125000 -621.718870502709 0 0 95 (C1) n - 1
REM
REM in /rds/project/t2_vol4/rds-t2-cs072/BORA/CARBON/from-Arr/AIRSS/Generating-Clusters/GAP-ML-2020/Higher-Symm/SD-CG/HFTN-CG
REM
REM
REM
REM
REM
REM ./C.cell (b20cbc046b6831c77cfcea5457e17084)
REM AIRSS Version 0.9.1 bugfix July 2018 build 013d7b7c2542+ Fri, 06 Jul 2018 19:26:36 +0100
REM compiler GCC version 9.3.0
REM options -cpp -mtune=generic -march=x86-64 -g -O0
REM seed -1471006600 120479244 501883852 -855884435 -732685224 -1940677517 1450304541 1595347974 -1130609916 -650921218 -513642445 1119215937 -893836941 419296499 1735270531 105221473 -280710514 -1086679603 1482309771 627512895 -899287344 -568941714 1383075867 1458185396 -2060233415 527936654 530636807 -1870461287 -1456270871 -1005627985 293813789 438283285 -826248466
REM
CELL 1.54180   50.00000   50.00000   50.00000   90.00000   90.00000   90.00000
LATT -1
SFAC C  
C      1  0.4934330000000  0.4736670000000  0.4842650000000 1.0
C      1  0.5067720000000  0.4693080000000  0.5316740000000 1.0
C      1  0.4915320000000  0.5284490000000  0.5311370000000 1.0
C      1  0.5014230000000  0.5385720000000  0.4667450000000 1.0
C      1  0.4688750000000  0.4632060000000  0.4948440000000 1.0
C      1  0.5142050000000  0.4764730000000  0.5053390000000 1.0
C      1  0.5124140000000  0.5236980000000  0.4893770000000 1.0
C      1  0.4843760000000  0.5196930000000  0.5050000000000 1.0
C      1  0.5333250000000  0.5424110000000  0.4465500000000 1.0
C      1  0.4716720000000  0.5446900000000  0.5470570000000 1.0
C      1  0.5291250000000  0.4581070000000  0.5489930000000 1.0
C      1  0.4686330000000  0.4538640000000  0.4468570000000 1.0
C      1  0.4464810000000  0.5451610000000  0.5281170000000 1.0
C      1  0.5532310000000  0.5410690000000  0.4678980000000 1.0
C      1  0.5536520000000  0.4559980000000  0.5298770000000 1.0
C      1  0.4496730000000  0.4554200000000  0.4717290000000 1.0
C      1  0.5118780000000  0.5790990000000  0.5474260000000 1.0
C      1  0.4919340000000  0.5805690000000  0.4529790000000 1.0
C      1  0.5125790000000  0.4223500000000  0.4536680000000 1.0
C      1  0.4890250000000  0.4222830000000  0.5468930000000 1.0
C      1  0.5458190000000  0.5729410000000  0.5124110000000 1.0
C      1  0.4563330000000  0.5765590000000  0.4856180000000 1.0
C      1  0.4533780000000  0.4190950000000  0.5118710000000 1.0
C      1  0.5464250000000  0.4238650000000  0.4874050000000 1.0
C      1  0.4869660000000  0.4889250000000  0.5889260000000 1.0
C      1  0.5100680000000  0.4841670000000  0.4120230000000 1.0
C      1  0.4889160000000  0.5082110000000  0.4089300000000 1.0
C      1  0.5164310000000  0.5167570000000  0.5857740000000 1.0
C      1  0.5895770000000  0.4857310000000  0.4887880000000 1.0
C      1  0.4093680000000  0.4877730000000  0.5127900000000 1.0
C      1  0.4106080000000  0.5124580000000  0.4899780000000 1.0
C      1  0.5879230000000  0.5118990000000  0.5091910000000 1.0
C      1  0.5107350000000  0.4361970000000  0.5554300000000 1.0
C      1  0.4972520000000  0.4454410000000  0.4494680000000 1.0
C      1  0.5112240000000  0.5596980000000  0.4509400000000 1.0
C      1  0.4887170000000  0.5673050000000  0.5552290000000 1.0
C      1  0.5501420000000  0.4475360000000  0.5020140000000 1.0
C      1  0.4451270000000  0.4337860000000  0.4902940000000 1.0
C      1  0.4505590000000  0.5520930000000  0.4994050000000 1.0
C      1  0.5487460000000  0.5500340000000  0.4959870000000 1.0
C      1  0.4301620000000  0.4486980000000  0.5493270000000 1.0
C      1  0.5690670000000  0.4490750000000  0.4491920000000 1.0
C      1  0.4358640000000  0.5509830000000  0.4505870000000 1.0
C      1  0.5704990000000  0.5503950000000  0.5533300000000 1.0
C      1  0.5498220000000  0.4480590000000  0.4298440000000 1.0
C      1  0.4489100000000  0.4488700000000  0.5698180000000 1.0
C      1  0.4605620000000  0.5452040000000  0.4384010000000 1.0
C      1  0.5542370000000  0.5577560000000  0.5756610000000 1.0
C      1  0.5573360000000  0.5044650000000  0.5114430000000 1.0
C      1  0.4406960000000  0.5056830000000  0.4871310000000 1.0
C      1  0.5587390000000  0.4908770000000  0.4835010000000 1.0
C      1  0.4393640000000  0.4936420000000  0.5180610000000 1.0
C      1  0.5284730000000  0.5114810000000  0.5598550000000 1.0
C      1  0.4828160000000  0.5032430000000  0.4404050000000 1.0
C      1  0.4734450000000  0.4914170000000  0.5636420000000 1.0
C      1  0.5127160000000  0.4915550000000  0.4424330000000 1.0
C      1  0.5356880000000  0.5265220000000  0.5106070000000 1.0
C      1  0.4615600000000  0.5263120000000  0.4858750000000 1.0
C      1  0.5373360000000  0.4696610000000  0.4855490000000 1.0
C      1  0.4613580000000  0.4750380000000  0.5198420000000 1.0
C      1  0.5195820000000  0.5238550000000  0.5363520000000 1.0
C      1  0.4760450000000  0.5270960000000  0.4576950000000 1.0
C      1  0.4809510000000  0.4780360000000  0.5398160000000 1.0
C      1  0.5133920000000  0.4686020000000  0.4612520000000 1.0
C      1  0.4447780000000  0.5764100000000  0.4587410000000 1.0
C      1  0.5585780000000  0.5713060000000  0.5378050000000 1.0
C      1  0.4420200000000  0.4248580000000  0.5376880000000 1.0
C      1  0.5586050000000  0.4252160000000  0.4611750000000 1.0
C      1  0.4672810000000  0.5736350000000  0.4410160000000 1.0
C      1  0.5387770000000  0.5750670000000  0.5591880000000 1.0
C      1  0.5386640000000  0.4242440000000  0.4412830000000 1.0
C      1  0.4623810000000  0.4262160000000  0.5581340000000 1.0
C      1  0.4044800000000  0.5170870000000  0.5170510000000 1.0
C      1  0.5944500000000  0.5147250000000  0.4819830000000 1.0
C      1  0.4055270000000  0.4828560000000  0.4842700000000 1.0
C      1  0.5945490000000  0.4841060000000  0.5167160000000 1.0
C      1  0.5171920000000  0.5125520000000  0.4060500000000 1.0
C      1  0.4872440000000  0.5190950000000  0.5910620000000 1.0
C      1  0.4830320000000  0.4794090000000  0.4053310000000 1.0
C      1  0.5159690000000  0.4871340000000  0.5916000000000 1.0
C      1  0.5691580000000  0.5178800000000  0.4690070000000 1.0
C      1  0.4305360000000  0.5220000000000  0.5294690000000 1.0
C      1  0.5687160000000  0.4795210000000  0.5286400000000 1.0
C      1  0.4316290000000  0.4797280000000  0.4727800000000 1.0
C      1  0.4721960000000  0.5213180000000  0.5664180000000 1.0
C      1  0.5285550000000  0.5174190000000  0.4316610000000 1.0
C      1  0.5300620000000  0.4821460000000  0.5671160000000 1.0
C      1  0.4692300000000  0.4767300000000  0.4307700000000 1.0
C      1  0.5190440000000  0.4128250000000  0.4816390000000 1.0
C      1  0.4836440000000  0.5885290000000  0.4811750000000 1.0
C      1  0.4822900000000  0.4118690000000  0.5190150000000 1.0
C      1  0.5197900000000  0.5867650000000  0.5187270000000 1.0
C      1  0.5009730000000  0.4057220000000  0.5004480000000 1.0
C      1  0.5019720000000  0.5952020000000  0.4999720000000 1.0
C      1  0.4998670000000  0.4990550000000  0.4947720000000 1.0
END
