TITL C-103918-4971-2 -66.2598150705361 125000 -1325.27325179409 0 0 187 (D2) n - 1
REM
REM in /rds/project/t2_vol4/rds-t2-cs072/BORA/CARBON/from-Arr/AIRSS/Generating-Clusters/GAP-ML-2020/Higher-Symm/SD-CG/HFTN-CG/C160-200
REM
REM
REM
REM
REM
REM ./C.cell (6b4489405718ea1b717e0baf1da4c2d9)
REM AIRSS Version 0.9.1 bugfix July 2018 build 013d7b7c2542+ Fri, 06 Jul 2018 19:26:36 +0100
REM compiler GCC version 9.3.0
REM options -cpp -mtune=generic -march=x86-64 -g -O0
REM seed -326030100 102360591 -2145935461 1732374727 -428272685 -448660195 355703959 -2086986232 1043999766 505056644 2001461057 50548872 97346953 -742148528 745505652 1268283426 1118696260 -782027893 1761472029 -1288660928 -1684004857 1991037855 -650273290 2126076934 195006963 2065398661 2027047433 1723083641 738379402 530029798 -565280222 302598846 -1913982031
REM
CELL 1.54180   50.00000   50.00000   50.00000   90.00000   90.00000   90.00000
LATT -1
SFAC C  
C      1  0.4877790000000  0.4475620000000  0.5453200000000 1.0
C      1  0.5125150000000  0.4475640000000  0.4552030000000 1.0
C      1  0.5125100000000  0.5530470000000  0.5453220000000 1.0
C      1  0.4877740000000  0.5530470000000  0.4552050000000 1.0
C      1  0.5195630000000  0.4297350000000  0.4304330000000 1.0
C      1  0.4807340000000  0.4297300000000  0.5700890000000 1.0
C      1  0.4807270000000  0.5708780000000  0.4304360000000 1.0
C      1  0.5195560000000  0.5708770000000  0.5700910000000 1.0
C      1  0.5343170000000  0.4926920000000  0.4235960000000 1.0
C      1  0.4659730000000  0.4926860000000  0.5769280000000 1.0
C      1  0.4659730000000  0.5079210000000  0.4235960000000 1.0
C      1  0.5343160000000  0.5079210000000  0.5769290000000 1.0
C      1  0.4734330000000  0.6015680000000  0.5264980000000 1.0
C      1  0.5268470000000  0.6015720000000  0.4740300000000 1.0
C      1  0.5268570000000  0.3990410000000  0.5264950000000 1.0
C      1  0.4734430000000  0.3990390000000  0.4740260000000 1.0
C      1  0.5122960000000  0.5165530000000  0.3861630000000 1.0
C      1  0.4879920000000  0.5165470000000  0.6143620000000 1.0
C      1  0.4879940000000  0.4840620000000  0.3861620000000 1.0
C      1  0.5122980000000  0.4840590000000  0.6143620000000 1.0
C      1  0.4184450000000  0.4721630000000  0.5901830000000 1.0
C      1  0.5818470000000  0.4721750000000  0.4103400000000 1.0
C      1  0.5818440000000  0.5284430000000  0.5901840000000 1.0
C      1  0.4184430000000  0.5284390000000  0.4103410000000 1.0
C      1  0.5024680000000  0.5254810000000  0.5449690000000 1.0
C      1  0.4978190000000  0.5254830000000  0.4555570000000 1.0
C      1  0.4978220000000  0.4751270000000  0.5449680000000 1.0
C      1  0.5024710000000  0.4751290000000  0.4555560000000 1.0
C      1  0.4141520000000  0.4666180000000  0.4558440000000 1.0
C      1  0.5861410000000  0.4666250000000  0.5446790000000 1.0
C      1  0.5861380000000  0.5339940000000  0.4558460000000 1.0
C      1  0.4141480000000  0.5339840000000  0.5446800000000 1.0
C      1  0.5266770000000  0.5171030000000  0.4637230000000 1.0
C      1  0.4736110000000  0.5170990000000  0.5368020000000 1.0
C      1  0.4736130000000  0.4835090000000  0.4637230000000 1.0
C      1  0.5266790000000  0.4835100000000  0.5368010000000 1.0
C      1  0.5735130000000  0.5172110000000  0.4352570000000 1.0
C      1  0.4267750000000  0.5172020000000  0.5652690000000 1.0
C      1  0.4267770000000  0.4834010000000  0.4352560000000 1.0
C      1  0.5735140000000  0.4834060000000  0.5652680000000 1.0
C      1  0.4518680000000  0.5661390000000  0.4244370000000 1.0
C      1  0.5484150000000  0.5661410000000  0.5760900000000 1.0
C      1  0.5484220000000  0.4344740000000  0.4244350000000 1.0
C      1  0.4518740000000  0.4344660000000  0.5760870000000 1.0
C      1  0.4041320000000  0.4822800000000  0.4772700000000 1.0
C      1  0.5961590000000  0.4822880000000  0.5232540000000 1.0
C      1  0.5961580000000  0.5183310000000  0.4772710000000 1.0
C      1  0.4041300000000  0.5183210000000  0.5232540000000 1.0
C      1  0.4820490000000  0.5920620000000  0.5525610000000 1.0
C      1  0.5182320000000  0.5920650000000  0.4479670000000 1.0
C      1  0.5182410000000  0.4085470000000  0.5525570000000 1.0
C      1  0.4820580000000  0.4085470000000  0.4479640000000 1.0
C      1  0.5021020000000  0.6109390000000  0.4863790000000 1.0
C      1  0.4981770000000  0.6109380000000  0.5141490000000 1.0
C      1  0.4981870000000  0.3896720000000  0.4863750000000 1.0
C      1  0.5021130000000  0.3896720000000  0.5141450000000 1.0
C      1  0.5777620000000  0.4454940000000  0.4956350000000 1.0
C      1  0.4225330000000  0.4454860000000  0.5048880000000 1.0
C      1  0.4225280000000  0.5551160000000  0.4956370000000 1.0
C      1  0.5777560000000  0.5551240000000  0.5048900000000 1.0
C      1  0.5204940000000  0.6065800000000  0.5305300000000 1.0
C      1  0.4797860000000  0.6065790000000  0.4699980000000 1.0
C      1  0.4797960000000  0.3940290000000  0.5305260000000 1.0
C      1  0.5205040000000  0.3940320000000  0.4699940000000 1.0
C      1  0.5278910000000  0.5723700000000  0.4288820000000 1.0
C      1  0.4723920000000  0.5723640000000  0.5716450000000 1.0
C      1  0.4723990000000  0.4282430000000  0.4288800000000 1.0
C      1  0.5278970000000  0.4282430000000  0.5716420000000 1.0
C      1  0.3950450000000  0.5333590000000  0.4269160000000 1.0
C      1  0.6052410000000  0.5333660000000  0.5736100000000 1.0
C      1  0.6052450000000  0.4672540000000  0.4269150000000 1.0
C      1  0.3950480000000  0.4672410000000  0.5736080000000 1.0
C      1  0.6081220000000  0.4758710000000  0.4507320000000 1.0
C      1  0.3921700000000  0.4758590000000  0.5497910000000 1.0
C      1  0.3921680000000  0.5247410000000  0.4507330000000 1.0
C      1  0.6081200000000  0.5247490000000  0.5497930000000 1.0
C      1  0.5619600000000  0.4808750000000  0.4686890000000 1.0
C      1  0.4383320000000  0.4808680000000  0.5318350000000 1.0
C      1  0.4383300000000  0.5197360000000  0.4686900000000 1.0
C      1  0.5619580000000  0.5197410000000  0.5318360000000 1.0
C      1  0.4960320000000  0.4667520000000  0.5960720000000 1.0
C      1  0.5042610000000  0.4667560000000  0.4044520000000 1.0
C      1  0.5042570000000  0.5338550000000  0.5960730000000 1.0
C      1  0.4960290000000  0.5338580000000  0.4044530000000 1.0
C      1  0.4854450000000  0.4494420000000  0.4991870000000 1.0
C      1  0.5148490000000  0.4494430000000  0.5013350000000 1.0
C      1  0.5148440000000  0.5511690000000  0.4991890000000 1.0
C      1  0.4854400000000  0.5511670000000  0.5013370000000 1.0
C      1  0.5184340000000  0.5092950000000  0.5224010000000 1.0
C      1  0.4818540000000  0.5092940000000  0.4781240000000 1.0
C      1  0.4818550000000  0.4913140000000  0.5224010000000 1.0
C      1  0.5184350000000  0.4913170000000  0.4781230000000 1.0
C      1  0.4718630000000  0.5578020000000  0.4773540000000 1.0
C      1  0.5284210000000  0.5578040000000  0.5231730000000 1.0
C      1  0.5284270000000  0.4428090000000  0.4773520000000 1.0
C      1  0.4718680000000  0.4428050000000  0.5231700000000 1.0
C      1  0.4207230000000  0.5005330000000  0.4100480000000 1.0
C      1  0.5795660000000  0.5005380000000  0.5904770000000 1.0
C      1  0.5795670000000  0.5000800000000  0.4100480000000 1.0
C      1  0.4207230000000  0.5000690000000  0.5904760000000 1.0
C      1  0.5619580000000  0.4815350000000  0.6036110000000 1.0
C      1  0.4383340000000  0.4815330000000  0.3969130000000 1.0
C      1  0.4383310000000  0.5190710000000  0.6036110000000 1.0
C      1  0.5619560000000  0.5190810000000  0.3969140000000 1.0
C      1  0.4065320000000  0.5310580000000  0.4987410000000 1.0
C      1  0.5937550000000  0.5310670000000  0.5017850000000 1.0
C      1  0.5937580000000  0.4695520000000  0.4987400000000 1.0
C      1  0.4065350000000  0.4695430000000  0.5017840000000 1.0
C      1  0.4452160000000  0.5611450000000  0.5684980000000 1.0
C      1  0.5550680000000  0.5611530000000  0.4320290000000 1.0
C      1  0.5550740000000  0.4394620000000  0.5684960000000 1.0
C      1  0.4452220000000  0.4394600000000  0.4320260000000 1.0
C      1  0.4070340000000  0.5137120000000  0.4739170000000 1.0
C      1  0.5932540000000  0.5137200000000  0.5266080000000 1.0
C      1  0.5932560000000  0.4868990000000  0.4739170000000 1.0
C      1  0.4070350000000  0.4868890000000  0.5266070000000 1.0
C      1  0.4659940000000  0.5329330000000  0.5136500000000 1.0
C      1  0.5342930000000  0.5329370000000  0.4868750000000 1.0
C      1  0.5342960000000  0.4676770000000  0.5136490000000 1.0
C      1  0.4659970000000  0.4676740000000  0.4868740000000 1.0
C      1  0.5103400000000  0.5948280000000  0.5546070000000 1.0
C      1  0.4899410000000  0.5948300000000  0.4459220000000 1.0
C      1  0.4899490000000  0.4057800000000  0.5546030000000 1.0
C      1  0.5103490000000  0.4057830000000  0.4459180000000 1.0
C      1  0.5068230000000  0.5135800000000  0.5712590000000 1.0
C      1  0.4934660000000  0.5135820000000  0.4292670000000 1.0
C      1  0.4934670000000  0.4870270000000  0.5712580000000 1.0
C      1  0.5068240000000  0.4870310000000  0.4292660000000 1.0
C      1  0.5722550000000  0.5593140000000  0.4569710000000 1.0
C      1  0.4280290000000  0.5593060000000  0.5435560000000 1.0
C      1  0.4280350000000  0.4412970000000  0.4569680000000 1.0
C      1  0.5722600000000  0.4413030000000  0.5435540000000 1.0
C      1  0.5498950000000  0.5012790000000  0.4473610000000 1.0
C      1  0.4503940000000  0.5012720000000  0.5531640000000 1.0
C      1  0.4503940000000  0.4993330000000  0.4473610000000 1.0
C      1  0.5498950000000  0.4993360000000  0.5531640000000 1.0
C      1  0.4365210000000  0.4048150000000  0.5391740000000 1.0
C      1  0.5637780000000  0.4048230000000  0.4613470000000 1.0
C      1  0.5637690000000  0.5957930000000  0.5391780000000 1.0
C      1  0.4365120000000  0.5957890000000  0.4613510000000 1.0
C      1  0.4635770000000  0.5058770000000  0.6039940000000 1.0
C      1  0.5367120000000  0.5058850000000  0.3965310000000 1.0
C      1  0.5367120000000  0.4947290000000  0.6039940000000 1.0
C      1  0.4635780000000  0.4947290000000  0.3965310000000 1.0
C      1  0.5688980000000  0.4281760000000  0.5171050000000 1.0
C      1  0.4313990000000  0.4281700000000  0.4834170000000 1.0
C      1  0.4313920000000  0.5724340000000  0.5171070000000 1.0
C      1  0.5688910000000  0.5724410000000  0.4834200000000 1.0
C      1  0.4557630000000  0.5138660000000  0.4933800000000 1.0
C      1  0.5445250000000  0.5138700000000  0.5071450000000 1.0
C      1  0.5445270000000  0.4867450000000  0.4933790000000 1.0
C      1  0.4557640000000  0.4867400000000  0.5071450000000 1.0
C      1  0.4652870000000  0.4720880000000  0.5994310000000 1.0
C      1  0.5350050000000  0.4720950000000  0.4010920000000 1.0
C      1  0.5350020000000  0.5285190000000  0.5994320000000 1.0
C      1  0.4652850000000  0.5285190000000  0.4010930000000 1.0
C      1  0.5471310000000  0.3981600000000  0.4821840000000 1.0
C      1  0.4531680000000  0.3981550000000  0.5183360000000 1.0
C      1  0.4531580000000  0.6024510000000  0.4821880000000 1.0
C      1  0.5471210000000  0.6024550000000  0.5183400000000 1.0
C      1  0.5040710000000  0.5610700000000  0.4151920000000 1.0
C      1  0.4962130000000  0.5610660000000  0.5853350000000 1.0
C      1  0.4962190000000  0.4395430000000  0.4151900000000 1.0
C      1  0.5040760000000  0.4395410000000  0.5853320000000 1.0
C      1  0.4371590000000  0.5385850000000  0.5829680000000 1.0
C      1  0.5631270000000  0.5385940000000  0.4175580000000 1.0
C      1  0.5631310000000  0.4620220000000  0.5829670000000 1.0
C      1  0.4371630000000  0.4620190000000  0.4175560000000 1.0
C      1  0.4408200000000  0.4496520000000  0.5290920000000 1.0
C      1  0.5594740000000  0.4496590000000  0.4714300000000 1.0
C      1  0.5594690000000  0.5509570000000  0.5290950000000 1.0
C      1  0.4408160000000  0.5509530000000  0.4714320000000 1.0
C      1  0.5500830000000  0.5946570000000  0.4900820000000 1.0
C      1  0.4501980000000  0.5946520000000  0.5104470000000 1.0
C      1  0.4502070000000  0.4059530000000  0.4900780000000 1.0
C      1  0.5500920000000  0.4059580000000  0.5104430000000 1.0
C      1  0.5571710000000  0.5450560000000  0.5935420000000 1.0
C      1  0.4431140000000  0.5450540000000  0.4069840000000 1.0
C      1  0.4431180000000  0.4555500000000  0.5935400000000 1.0
C      1  0.5571760000000  0.4555590000000  0.4069830000000 1.0
C      1  0.5628850000000  0.4285510000000  0.4486910000000 1.0
C      1  0.4374120000000  0.4285430000000  0.5518310000000 1.0
C      1  0.4374050000000  0.5720610000000  0.4486930000000 1.0
C      1  0.5628770000000  0.5720650000000  0.5518340000000 1.0
C      1  0.5001450000000  0.5003080000000  0.3672800000000 1.0
C      1  0.5001450000000  0.5003030000000  0.6332450000000 1.0
C      1  0.5001450000000  0.5003050000000  0.5002620000000 1.0
END
