TITL C-105232-9170-5 -0.0659305047369887 125000 -239.402333906866 0 0 36 (C1) n - 1
REM
REM in /rds/project/t2_vol4/rds-t2-cs072/BORA/CARBON/from-Arr/AIRSS/Generating-Clusters/GAP-ML-2020/Higher-Symm/SD-CG/HFTN-CG
REM
REM
REM
REM
REM
REM ./C.cell (b20cbc046b6831c77cfcea5457e17084)
REM AIRSS Version 0.9.1 bugfix July 2018 build 013d7b7c2542+ Fri, 06 Jul 2018 19:26:36 +0100
REM compiler GCC version 9.3.0
REM options -cpp -mtune=generic -march=x86-64 -g -O0
REM seed -826567521 -1167936959 -2047975205 -1874516990 1682513954 -449627633 398431005 1649850795 -340317535 2114311639 -736745367 -401324660 1499661084 733436757 -1316218128 -1943302902 344779087 -1301125810 -397174615 -1813687712 -2036209717 575747751 421063807 612423058 1078125769 -1984898891 1289860948 -13412141 109961557 2046603879 -415825767 -1115427537 -1286478797
REM
CELL 1.54180   50.00000   50.00000   50.00000   90.00000   90.00000   90.00000
LATT -1
SFAC C  
C      1  0.5505200000000  0.5111020000000  0.4663010000000 1.0
C      1  0.5383770000000  0.5212200000000  0.4437730000000 1.0
C      1  0.5117580000000  0.5177700000000  0.4376150000000 1.0
C      1  0.4621360000000  0.5295990000000  0.4414100000000 1.0
C      1  0.4434520000000  0.5311640000000  0.4624200000000 1.0
C      1  0.4432190000000  0.5246320000000  0.5121820000000 1.0
C      1  0.4553880000000  0.5234640000000  0.5370590000000 1.0
C      1  0.4937590000000  0.5268320000000  0.5678230000000 1.0
C      1  0.5214150000000  0.5247110000000  0.5678500000000 1.0
C      1  0.5590090000000  0.5164910000000  0.5384460000000 1.0
C      1  0.5664400000000  0.5133030000000  0.5118730000000 1.0
C      1  0.5498520000000  0.5393670000000  0.4786570000000 1.0
C      1  0.5331490000000  0.5479490000000  0.4570560000000 1.0
C      1  0.5057940000000  0.5458340000000  0.4481490000000 1.0
C      1  0.4791160000000  0.5509240000000  0.4537630000000 1.0
C      1  0.4598600000000  0.5518880000000  0.4769870000000 1.0
C      1  0.4581730000000  0.5489040000000  0.5045480000000 1.0
C      1  0.4715530000000  0.5477730000000  0.5315360000000 1.0
C      1  0.4941720000000  0.5490170000000  0.5473430000000 1.0
C      1  0.5240740000000  0.5468770000000  0.5479680000000 1.0
C      1  0.5468770000000  0.5430390000000  0.5327730000000 1.0
C      1  0.5571830000000  0.5405380000000  0.5049950000000 1.0
C      1  0.4484370000000  0.5034670000000  0.4704710000000 1.0
C      1  0.4469010000000  0.4997450000000  0.4984200000000 1.0
C      1  0.4677740000000  0.4975770000000  0.5405600000000 1.0
C      1  0.4904440000000  0.4998680000000  0.5570660000000 1.0
C      1  0.5201620000000  0.4972770000000  0.5558740000000 1.0
C      1  0.5408600000000  0.4933110000000  0.5371530000000 1.0
C      1  0.5481170000000  0.4909530000000  0.5080350000000 1.0
C      1  0.5374770000000  0.4903230000000  0.4819160000000 1.0
C      1  0.5106620000000  0.4819570000000  0.4724780000000 1.0
C      1  0.4968910000000  0.4965390000000  0.4507690000000 1.0
C      1  0.4690180000000  0.5020410000000  0.4493520000000 1.0
C      1  0.4954060000000  0.4659700000000  0.4886810000000 1.0
C      1  0.4625160000000  0.4826050000000  0.5159900000000 1.0
C      1  0.4775260000000  0.4614050000000  0.5055930000000 1.0
END
