TITL C-102474-7252-4 0.0439229301352631 125000 -224.003181856185 0 0 32 (Oh) n - 1
REM
REM in /rds/project/t2_vol4/rds-t2-cs072/BORA/CARBON/from-Arr/AIRSS/Generating-Clusters/GAP-ML-2020/Higher-Symm/SD-CG/HFTN-CG
REM
REM
REM
REM
REM
REM ./C.cell (b20cbc046b6831c77cfcea5457e17084)
REM AIRSS Version 0.9.1 bugfix July 2018 build 013d7b7c2542+ Fri, 06 Jul 2018 19:26:36 +0100
REM compiler GCC version 9.3.0
REM options -cpp -mtune=generic -march=x86-64 -g -O0
REM seed 226592437 -712392659 1424083038 -695539126 706307506 -43392673 564183990 1821036347 740454199 537926350 -487984269 -487151260 1095927472 1402823714 41033215 -731053702 717926341 -1699628474 -253969717 49302977 -257607067 -88346285 1100244513 2081899938 464598788 -1859553803 -1944399516 1665094139 127240568 368973037 1711454681 -1836522461 1982274099
REM
CELL 1.54180   50.00000   50.00000   50.00000   90.00000   90.00000   90.00000
LATT -1
SFAC C  
C      1  0.4670950000000  0.5317360000000  0.4716170000000 1.0
C      1  0.5110000000000  0.5424930000000  0.5283670000000 1.0
C      1  0.5422680000000  0.5098260000000  0.4716300000000 1.0
C      1  0.5296110000000  0.4664360000000  0.5283830000000 1.0
C      1  0.4857070000000  0.4556800000000  0.4716330000000 1.0
C      1  0.4544390000000  0.4883460000000  0.5283700000000 1.0
C      1  0.5177560000000  0.5194220000000  0.5453730000000 1.0
C      1  0.5256660000000  0.4924330000000  0.4546300000000 1.0
C      1  0.5062480000000  0.4721240000000  0.5453810000000 1.0
C      1  0.4789500000000  0.4787500000000  0.4546270000000 1.0
C      1  0.4710400000000  0.5057390000000  0.5453700000000 1.0
C      1  0.4904590000000  0.5260490000000  0.4546190000000 1.0
C      1  0.4896460000000  0.4547310000000  0.5283810000000 1.0
C      1  0.4555870000000  0.4844380000000  0.4716240000000 1.0
C      1  0.4642840000000  0.5288100000000  0.5283640000000 1.0
C      1  0.5070600000000  0.5434420000000  0.4716190000000 1.0
C      1  0.5411190000000  0.5137350000000  0.5283760000000 1.0
C      1  0.5324230000000  0.4693630000000  0.4716360000000 1.0
C      1  0.5452950000000  0.4876680000000  0.5170890000000 1.0
C      1  0.5119350000000  0.4527180000000  0.4829290000000 1.0
C      1  0.4649880000000  0.4641460000000  0.5170840000000 1.0
C      1  0.4514110000000  0.5105050000000  0.4829110000000 1.0
C      1  0.4847710000000  0.5454550000000  0.5170710000000 1.0
C      1  0.5317190000000  0.5340270000000  0.4829160000000 1.0
C      1  0.4623430000000  0.4613670000000  0.4886310000000 1.0
C      1  0.4476820000000  0.5114170000000  0.5113640000000 1.0
C      1  0.4836960000000  0.5491290000000  0.4886160000000 1.0
C      1  0.5343630000000  0.5368050000000  0.5113690000000 1.0
C      1  0.5490240000000  0.4867560000000  0.4886360000000 1.0
C      1  0.5130100000000  0.4490430000000  0.5113840000000 1.0
C      1  0.4983470000000  0.4990960000000  0.5512440000000 1.0
C      1  0.4983590000000  0.4990760000000  0.4487560000000 1.0
END
