TITL C-101411-5103-8 2.50226817868419 125000 -800.818622277341 0 0 120 (C3) n - 1
REM
REM in /rds/project/t2_vol4/rds-t2-cs072/BORA/CARBON/from-Arr/AIRSS/Generating-Clusters/GAP-ML-2020/Higher-Symm/SD-CG/HFTN-CG
REM
REM
REM
REM
REM
REM ./C.cell (b20cbc046b6831c77cfcea5457e17084)
REM AIRSS Version 0.9.1 bugfix July 2018 build 013d7b7c2542+ Fri, 06 Jul 2018 19:26:36 +0100
REM compiler GCC version 9.3.0
REM options -cpp -mtune=generic -march=x86-64 -g -O0
REM seed 684924397 2077440952 2110733136 404069605 -975553355 -1573665455 -1162740141 -378136284 193913701 1181440948 324736352 -1437126074 1688742896 2006971176 299126450 1949607663 180256174 166347099 -628338589 -1288512469 -888008750 -2101838177 -484691930 -1766357423 1376627903 1224661696 -189099755 1064238450 1711785357 1315203419 -1530171354 1511808041 -1771193841
REM
CELL 1.54180   50.00000   50.00000   50.00000   90.00000   90.00000   90.00000
LATT -1
SFAC C  
C      1  0.4459920000000  0.5495720000000  0.4770200000000 1.0
C      1  0.4631840000000  0.4508780000000  0.4516360000000 1.0
C      1  0.4927880000000  0.5486060000000  0.4396410000000 1.0
C      1  0.5232040000000  0.4504950000000  0.4462210000000 1.0
C      1  0.5469040000000  0.5495660000000  0.4647070000000 1.0
C      1  0.5602950000000  0.4508790000000  0.4923080000000 1.0
C      1  0.5558760000000  0.5486130000000  0.5239230000000 1.0
C      1  0.5349750000000  0.4505060000000  0.5469950000000 1.0
C      1  0.5071110000000  0.5495790000000  0.5582560000000 1.0
C      1  0.4765160000000  0.4508890000000  0.5560730000000 1.0
C      1  0.4513420000000  0.5486180000000  0.5364190000000 1.0
C      1  0.4418160000000  0.4505050000000  0.5068020000000 1.0
C      1  0.5253920000000  0.5502270000000  0.5128050000000 1.0
C      1  0.5150560000000  0.4394870000000  0.5252510000000 1.0
C      1  0.5007060000000  0.5601190000000  0.5293220000000 1.0
C      1  0.4867860000000  0.4489400000000  0.5252900000000 1.0
C      1  0.4762130000000  0.5502290000000  0.5155770000000 1.0
C      1  0.4706060000000  0.4394860000000  0.5004250000000 1.0
C      1  0.4742510000000  0.5601150000000  0.4859390000000 1.0
C      1  0.4847080000000  0.4489340000000  0.4759220000000 1.0
C      1  0.4984010000000  0.5502230000000  0.4716000000000 1.0
C      1  0.5143310000000  0.4394810000000  0.4743440000000 1.0
C      1  0.5250500000000  0.5601120000000  0.4847190000000 1.0
C      1  0.5285010000000  0.4489350000000  0.4988060000000 1.0
C      1  0.5561830000000  0.5182990000000  0.5180900000000 1.0
C      1  0.5364970000000  0.4813440000000  0.5443610000000 1.0
C      1  0.5121360000000  0.5194470000000  0.5561570000000 1.0
C      1  0.4797450000000  0.4817470000000  0.5557620000000 1.0
C      1  0.4562420000000  0.5183050000000  0.5396070000000 1.0
C      1  0.4433340000000  0.4813440000000  0.5094310000000 1.0
C      1  0.4452980000000  0.5194420000000  0.4824270000000 1.0
C      1  0.4618370000000  0.4817360000000  0.4545810000000 1.0
C      1  0.4875780000000  0.5182930000000  0.4422970000000 1.0
C      1  0.5201660000000  0.4813330000000  0.4462150000000 1.0
C      1  0.5425690000000  0.5194350000000  0.4614090000000 1.0
C      1  0.5584160000000  0.4817360000000  0.4896630000000 1.0
C      1  0.4794660000000  0.5899930000000  0.4779140000000 1.0
C      1  0.4936030000000  0.4042230000000  0.4696740000000 1.0
C      1  0.5098140000000  0.5949760000000  0.4706170000000 1.0
C      1  0.5221450000000  0.4095850000000  0.4792210000000 1.0
C      1  0.5293900000000  0.5899930000000  0.4932420000000 1.0
C      1  0.5294660000000  0.4042260000000  0.5096430000000 1.0
C      1  0.5205360000000  0.5949810000000  0.5231720000000 1.0
C      1  0.5069260000000  0.4095920000000  0.5295860000000 1.0
C      1  0.4911540000000  0.5899980000000  0.5288130000000 1.0
C      1  0.4769200000000  0.4042300000000  0.5207160000000 1.0
C      1  0.4696610000000  0.5949810000000  0.5061790000000 1.0
C      1  0.4709180000000  0.4095890000000  0.4912240000000 1.0
C      1  0.5464130000000  0.4124280000000  0.4648220000000 1.0
C      1  0.5575310000000  0.5870660000000  0.4929130000000 1.0
C      1  0.5525270000000  0.4141810000000  0.5193500000000 1.0
C      1  0.5359850000000  0.5856580000000  0.5432100000000 1.0
C      1  0.5072620000000  0.4124400000000  0.5578020000000 1.0
C      1  0.4773690000000  0.5870770000000  0.5533490000000 1.0
C      1  0.4569830000000  0.4141870000000  0.5358320000000 1.0
C      1  0.4445830000000  0.5856580000000  0.5095410000000 1.0
C      1  0.4463150000000  0.4124330000000  0.4774060000000 1.0
C      1  0.4651110000000  0.5870660000000  0.4537080000000 1.0
C      1  0.4904810000000  0.4141750000000  0.4448470000000 1.0
C      1  0.5194420000000  0.5856480000000  0.4472200000000 1.0
C      1  0.5076170000000  0.5139300000000  0.5272770000000 1.0
C      1  0.4881580000000  0.4780990000000  0.5251690000000 1.0
C      1  0.4797540000000  0.5217090000000  0.5192270000000 1.0
C      1  0.4718230000000  0.4871320000000  0.5020360000000 1.0
C      1  0.4725680000000  0.5139270000000  0.4929550000000 1.0
C      1  0.4841250000000  0.4780940000000  0.4771650000000 1.0
C      1  0.4934710000000  0.5217030000000  0.4728480000000 1.0
C      1  0.5123260000000  0.4871270000000  0.4745820000000 1.0
C      1  0.5198160000000  0.5139240000000  0.4797630000000 1.0
C      1  0.5277140000000  0.4780940000000  0.4976740000000 1.0
C      1  0.5267780000000  0.5217060000000  0.5079170000000 1.0
C      1  0.5158500000000  0.4871320000000  0.5233860000000 1.0
C      1  0.5597370000000  0.4356780000000  0.5361420000000 1.0
C      1  0.5340850000000  0.5643180000000  0.5613100000000 1.0
C      1  0.4978560000000  0.4350300000000  0.5712960000000 1.0
C      1  0.4624330000000  0.5647170000000  0.5600590000000 1.0
C      1  0.4388350000000  0.4356820000000  0.5336760000000 1.0
C      1  0.4298590000000  0.5643150000000  0.4988500000000 1.0
C      1  0.4393310000000  0.4350200000000  0.4625080000000 1.0
C      1  0.4667680000000  0.5647030000000  0.4374230000000 1.0
C      1  0.5014210000000  0.4356680000000  0.4302050000000 1.0
C      1  0.5360640000000  0.5643040000000  0.4398170000000 1.0
C      1  0.5628060000000  0.4350150000000  0.4662180000000 1.0
C      1  0.5708060000000  0.5647060000000  0.5024950000000 1.0
C      1  0.4343700000000  0.4980900000000  0.5335260000000 1.0
C      1  0.4243530000000  0.5022060000000  0.4966620000000 1.0
C      1  0.4379820000000  0.4995420000000  0.4600050000000 1.0
C      1  0.4647140000000  0.5017860000000  0.4322010000000 1.0
C      1  0.5037800000000  0.4980750000000  0.4264000000000 1.0
C      1  0.5407140000000  0.5021940000000  0.4361560000000 1.0
C      1  0.5656460000000  0.4995370000000  0.4662890000000 1.0
C      1  0.5763580000000  0.5017900000000  0.5033410000000 1.0
C      1  0.5618490000000  0.4980860000000  0.5400740000000 1.0
C      1  0.5349330000000  0.5022090000000  0.5671810000000 1.0
C      1  0.4963720000000  0.4995520000000  0.5737070000000 1.0
C      1  0.4589280000000  0.5018020000000  0.5644570000000 1.0
C      1  0.4206580000000  0.4820080000000  0.4766650000000 1.0
C      1  0.4416550000000  0.5190860000000  0.4387300000000 1.0
C      1  0.4806120000000  0.4812270000000  0.4189640000000 1.0
C      1  0.5239520000000  0.5181020000000  0.4185940000000 1.0
C      1  0.5598800000000  0.4819980000000  0.4429590000000 1.0
C      1  0.5822330000000  0.5190850000000  0.4801030000000 1.0
C      1  0.5798740000000  0.4812350000000  0.5237310000000 1.0
C      1  0.5585230000000  0.5181170000000  0.5614420000000 1.0
C      1  0.5194590000000  0.4820160000000  0.5803820000000 1.0
C      1  0.4761140000000  0.5191010000000  0.5811600000000 1.0
C      1  0.4395120000000  0.4812440000000  0.5573110000000 1.0
C      1  0.4175270000000  0.5181170000000  0.5199580000000 1.0
C      1  0.4455330000000  0.5470860000000  0.4467530000000 1.0
C      1  0.4790910000000  0.4530890000000  0.4261430000000 1.0
C      1  0.5189180000000  0.5466700000000  0.4250780000000 1.0
C      1  0.5533190000000  0.4532030000000  0.4456220000000 1.0
C      1  0.5733450000000  0.5470850000000  0.4794440000000 1.0
C      1  0.5744180000000  0.4530960000000  0.5188300000000 1.0
C      1  0.5554240000000  0.5466830000000  0.5538350000000 1.0
C      1  0.5204350000000  0.4532190000000  0.5733750000000 1.0
C      1  0.4811280000000  0.5470990000000  0.5737870000000 1.0
C      1  0.4464850000000  0.4531050000000  0.5550420000000 1.0
C      1  0.4256640000000  0.5466840000000  0.5210710000000 1.0
C      1  0.4262400000000  0.4532120000000  0.4810200000000 1.0
END
