TITL C-107708-8651-1 -139.921495723297 125000 -1261.69988188336 0 0 181 (C1) n - 1
REM
REM in /rds/project/t2_vol4/rds-t2-cs072/BORA/CARBON/from-Arr/AIRSS/Generating-Clusters/GAP-ML-2020/Higher-Symm/SD-CG/HFTN-CG/C160-200
REM
REM
REM
REM
REM
REM ./C.cell (6b4489405718ea1b717e0baf1da4c2d9)
REM AIRSS Version 0.9.1 bugfix July 2018 build 013d7b7c2542+ Fri, 06 Jul 2018 19:26:36 +0100
REM compiler GCC version 9.3.0
REM options -cpp -mtune=generic -march=x86-64 -g -O0
REM seed 1026915766 1683151397 1254212022 833337460 1512395747 -462310961 -2035289078 -1642881650 488373135 -521137325 90329775 -1623960669 -217595697 1177088154 -2129737500 -1056750186 986204867 -1223676021 2019070742 -310983662 1202250149 29868208 1288502477 1389895832 1865651657 -1384014486 205238439 -1528360086 635268649 -1217402096 1507061860 -796126199 117870583
REM
CELL 1.54180   50.00000   50.00000   50.00000   90.00000   90.00000   90.00000
LATT -1
SFAC C  
C      1  0.4853920000000  0.4674810000000  0.4744780000000 1.0
C      1  0.5141970000000  0.4674480000000  0.4770700000000 1.0
C      1  0.4680400000000  0.4395750000000  0.4246860000000 1.0
C      1  0.5312540000000  0.4317920000000  0.4349400000000 1.0
C      1  0.5162020000000  0.4531230000000  0.5920090000000 1.0
C      1  0.4867850000000  0.4527300000000  0.5910470000000 1.0
C      1  0.4575830000000  0.4376120000000  0.4702570000000 1.0
C      1  0.5388760000000  0.4344030000000  0.4819480000000 1.0
C      1  0.5881360000000  0.5295940000000  0.4654790000000 1.0
C      1  0.4115990000000  0.5312150000000  0.4662650000000 1.0
C      1  0.4473460000000  0.4369030000000  0.5391390000000 1.0
C      1  0.5546210000000  0.4380960000000  0.5397850000000 1.0
C      1  0.4847770000000  0.5291680000000  0.5777980000000 1.0
C      1  0.5154200000000  0.5296270000000  0.5782330000000 1.0
C      1  0.5604950000000  0.5722790000000  0.4647590000000 1.0
C      1  0.4397420000000  0.5729320000000  0.4652830000000 1.0
C      1  0.5620850000000  0.4796390000000  0.5174760000000 1.0
C      1  0.4357290000000  0.4776270000000  0.5144290000000 1.0
C      1  0.4182460000000  0.5585950000000  0.4769120000000 1.0
C      1  0.5820390000000  0.5574810000000  0.4759020000000 1.0
C      1  0.4505360000000  0.4792800000000  0.4431080000000 1.0
C      1  0.5486530000000  0.4765530000000  0.4464430000000 1.0
C      1  0.5684400000000  0.4752500000000  0.4903170000000 1.0
C      1  0.4278540000000  0.4744040000000  0.4865880000000 1.0
C      1  0.5591490000000  0.5467210000000  0.5490090000000 1.0
C      1  0.4416480000000  0.5451220000000  0.5487070000000 1.0
C      1  0.4876240000000  0.4011040000000  0.5420940000000 1.0
C      1  0.5178320000000  0.4017280000000  0.5431020000000 1.0
C      1  0.3969150000000  0.4902940000000  0.4821790000000 1.0
C      1  0.6104840000000  0.4893430000000  0.4778400000000 1.0
C      1  0.4656320000000  0.5341840000000  0.4582570000000 1.0
C      1  0.5340850000000  0.5337290000000  0.4586860000000 1.0
C      1  0.4066990000000  0.4689450000000  0.5286610000000 1.0
C      1  0.5929730000000  0.4707950000000  0.5312220000000 1.0
C      1  0.5308660000000  0.4501910000000  0.4096100000000 1.0
C      1  0.4634630000000  0.4564020000000  0.4026680000000 1.0
C      1  0.4306120000000  0.5651140000000  0.5286000000000 1.0
C      1  0.5703580000000  0.5652350000000  0.5278750000000 1.0
C      1  0.6048080000000  0.5165760000000  0.4864040000000 1.0
C      1  0.3962910000000  0.5179790000000  0.4882120000000 1.0
C      1  0.4706790000000  0.5034560000000  0.5842370000000 1.0
C      1  0.5303940000000  0.5045280000000  0.5852250000000 1.0
C      1  0.5278260000000  0.5959890000000  0.5671870000000 1.0
C      1  0.4726950000000  0.5962560000000  0.5669780000000 1.0
C      1  0.5587380000000  0.5047690000000  0.5755080000000 1.0
C      1  0.4421140000000  0.5030100000000  0.5743580000000 1.0
C      1  0.5754670000000  0.5039160000000  0.4213600000000 1.0
C      1  0.4224480000000  0.5067780000000  0.4216240000000 1.0
C      1  0.4671780000000  0.4373560000000  0.5767420000000 1.0
C      1  0.5365640000000  0.4376580000000  0.5787330000000 1.0
C      1  0.4826150000000  0.4796010000000  0.4065700000000 1.0
C      1  0.5143930000000  0.4765470000000  0.4086940000000 1.0
C      1  0.6008200000000  0.5294580000000  0.5114000000000 1.0
C      1  0.3991460000000  0.5306660000000  0.5130350000000 1.0
C      1  0.5974790000000  0.4489300000000  0.5134370000000 1.0
C      1  0.3995230000000  0.4445160000000  0.5141060000000 1.0
C      1  0.5153510000000  0.5492770000000  0.4766660000000 1.0
C      1  0.4845700000000  0.5492200000000  0.4765590000000 1.0
C      1  0.5342290000000  0.4525840000000  0.4572120000000 1.0
C      1  0.4681540000000  0.4561510000000  0.4495760000000 1.0
C      1  0.5140550000000  0.5516660000000  0.5282960000000 1.0
C      1  0.4857820000000  0.5512530000000  0.5279730000000 1.0
C      1  0.5154150000000  0.6103700000000  0.5166070000000 1.0
C      1  0.4852770000000  0.6104850000000  0.5167820000000 1.0
C      1  0.5965170000000  0.4651810000000  0.4400460000000 1.0
C      1  0.4025960000000  0.4661680000000  0.4424830000000 1.0
C      1  0.4490220000000  0.3965160000000  0.4849770000000 1.0
C      1  0.5451350000000  0.3972490000000  0.4947690000000 1.0
C      1  0.4847670000000  0.5260790000000  0.3868340000000 1.0
C      1  0.5147880000000  0.5245270000000  0.3880690000000 1.0
C      1  0.4857830000000  0.4976080000000  0.3832920000000 1.0
C      1  0.5142830000000  0.4956910000000  0.3849280000000 1.0
C      1  0.5495630000000  0.5943570000000  0.5517290000000 1.0
C      1  0.4506460000000  0.5938710000000  0.5521040000000 1.0
C      1  0.4636160000000  0.5378540000000  0.4023860000000 1.0
C      1  0.5354440000000  0.5361170000000  0.4037740000000 1.0
C      1  0.4840520000000  0.5105760000000  0.4516560000000 1.0
C      1  0.5151800000000  0.5100010000000  0.4526530000000 1.0
C      1  0.5146430000000  0.5058220000000  0.5343380000000 1.0
C      1  0.4831470000000  0.5049680000000  0.5333250000000 1.0
C      1  0.4437530000000  0.5901570000000  0.5261230000000 1.0
C      1  0.5568370000000  0.5901180000000  0.5257340000000 1.0
C      1  0.5944030000000  0.5132540000000  0.4405150000000 1.0
C      1  0.4047520000000  0.5146340000000  0.4423460000000 1.0
C      1  0.5955420000000  0.4753570000000  0.5593250000000 1.0
C      1  0.4060980000000  0.4735240000000  0.5571570000000 1.0
C      1  0.5595290000000  0.4244890000000  0.4420890000000 1.0
C      1  0.4676340000000  0.4129910000000  0.4308690000000 1.0
C      1  0.5567870000000  0.5302960000000  0.5008740000000 1.0
C      1  0.4433390000000  0.5298580000000  0.5003510000000 1.0
C      1  0.4503000000000  0.5569030000000  0.4433190000000 1.0
C      1  0.5495450000000  0.5562020000000  0.4432490000000 1.0
C      1  0.5689740000000  0.5279320000000  0.5918080000000 1.0
C      1  0.4312640000000  0.5257380000000  0.5908800000000 1.0
C      1  0.4435940000000  0.4507520000000  0.5668160000000 1.0
C      1  0.5591040000000  0.4521200000000  0.5679380000000 1.0
C      1  0.4744420000000  0.4944370000000  0.4782180000000 1.0
C      1  0.5246310000000  0.4947390000000  0.4798450000000 1.0
C      1  0.6078880000000  0.4897420000000  0.4495900000000 1.0
C      1  0.3939370000000  0.4902980000000  0.4536720000000 1.0
C      1  0.5810250000000  0.5503460000000  0.5054690000000 1.0
C      1  0.4194580000000  0.5508390000000  0.5063830000000 1.0
C      1  0.4649780000000  0.5617360000000  0.4197410000000 1.0
C      1  0.5347290000000  0.5608580000000  0.4198090000000 1.0
C      1  0.5136700000000  0.4756680000000  0.5377620000000 1.0
C      1  0.4846190000000  0.4748570000000  0.5349620000000 1.0
C      1  0.5977110000000  0.5181750000000  0.5369400000000 1.0
C      1  0.4025980000000  0.5172630000000  0.5375850000000 1.0
C      1  0.4443320000000  0.5062240000000  0.5184790000000 1.0
C      1  0.5543460000000  0.5078600000000  0.5203160000000 1.0
C      1  0.4863160000000  0.5786210000000  0.5845920000000 1.0
C      1  0.5137080000000  0.5787400000000  0.5848160000000 1.0
C      1  0.5148870000000  0.6104830000000  0.5461840000000 1.0
C      1  0.4861240000000  0.6106290000000  0.5462830000000 1.0
C      1  0.4616200000000  0.6002720000000  0.5040910000000 1.0
C      1  0.5390110000000  0.6001150000000  0.5037120000000 1.0
C      1  0.5240710000000  0.4075240000000  0.4752690000000 1.0
C      1  0.4631410000000  0.4099550000000  0.4625940000000 1.0
C      1  0.5036000000000  0.4048410000000  0.4994610000000 1.0
C      1  0.4820630000000  0.3898330000000  0.5151760000000 1.0
C      1  0.4612040000000  0.3779320000000  0.5017830000000 1.0
C      1  0.5265200000000  0.3966210000000  0.5161130000000 1.0
C      1  0.6083500000000  0.4933030000000  0.5432550000000 1.0
C      1  0.3921850000000  0.4919180000000  0.5425420000000 1.0
C      1  0.5294800000000  0.4939600000000  0.4300750000000 1.0
C      1  0.4686850000000  0.4967760000000  0.4279550000000 1.0
C      1  0.4747180000000  0.5533560000000  0.5970070000000 1.0
C      1  0.5251220000000  0.5540830000000  0.5975880000000 1.0
C      1  0.4304140000000  0.4167940000000  0.4947340000000 1.0
C      1  0.5654210000000  0.4190800000000  0.4916780000000 1.0
C      1  0.5534730000000  0.4914480000000  0.4718530000000 1.0
C      1  0.4458310000000  0.4915900000000  0.4699480000000 1.0
C      1  0.4873140000000  0.5509140000000  0.6246210000000 1.0
C      1  0.5124200000000  0.5512660000000  0.6250420000000 1.0
C      1  0.5714190000000  0.4767350000000  0.5742110000000 1.0
C      1  0.4301030000000  0.4748820000000  0.5722990000000 1.0
C      1  0.4292650000000  0.4410510000000  0.4762560000000 1.0
C      1  0.5768320000000  0.4246300000000  0.4635030000000 1.0
C      1  0.5696100000000  0.5516430000000  0.5762370000000 1.0
C      1  0.4302880000000  0.5495940000000  0.5760390000000 1.0
C      1  0.5257830000000  0.5358600000000  0.5497640000000 1.0
C      1  0.4736350000000  0.5353650000000  0.5492010000000 1.0
C      1  0.4229950000000  0.4269340000000  0.5197260000000 1.0
C      1  0.5763990000000  0.4304980000000  0.5168860000000 1.0
C      1  0.4407870000000  0.5211400000000  0.4723450000000 1.0
C      1  0.5587620000000  0.5209340000000  0.4730060000000 1.0
C      1  0.4458190000000  0.5476380000000  0.5983270000000 1.0
C      1  0.5539970000000  0.5495110000000  0.5984860000000 1.0
C      1  0.5402710000000  0.5893980000000  0.4772240000000 1.0
C      1  0.4602080000000  0.5898080000000  0.4775590000000 1.0
C      1  0.5368850000000  0.4612510000000  0.5247410000000 1.0
C      1  0.4611610000000  0.4593850000000  0.5207850000000 1.0
C      1  0.4326540000000  0.5170170000000  0.5448810000000 1.0
C      1  0.5675850000000  0.5187030000000  0.5458520000000 1.0
C      1  0.4743830000000  0.5096330000000  0.5060070000000 1.0
C      1  0.5246180000000  0.5104230000000  0.5072830000000 1.0
C      1  0.4374770000000  0.4632490000000  0.4014650000000 1.0
C      1  0.5566610000000  0.4582770000000  0.4060130000000 1.0
C      1  0.5722020000000  0.4732380000000  0.4250310000000 1.0
C      1  0.4249580000000  0.4756390000000  0.4241250000000 1.0
C      1  0.4862740000000  0.4824060000000  0.5941510000000 1.0
C      1  0.5155470000000  0.4828530000000  0.5948920000000 1.0
C      1  0.5147090000000  0.4086970000000  0.4479930000000 1.0
C      1  0.4872110000000  0.4026620000000  0.4458760000000 1.0
C      1  0.4846700000000  0.5796920000000  0.4644240000000 1.0
C      1  0.5155490000000  0.5794360000000  0.4644350000000 1.0
C      1  0.4683810000000  0.4190610000000  0.5535600000000 1.0
C      1  0.5362970000000  0.4190660000000  0.5556900000000 1.0
C      1  0.4742890000000  0.4477650000000  0.4958250000000 1.0
C      1  0.5220280000000  0.4497270000000  0.5013480000000 1.0
C      1  0.4028250000000  0.4448900000000  0.4626370000000 1.0
C      1  0.5949060000000  0.4465390000000  0.4618340000000 1.0
C      1  0.5973080000000  0.4627770000000  0.4861480000000 1.0
C      1  0.3893050000000  0.4452590000000  0.4875700000000 1.0
C      1  0.4482170000000  0.5152830000000  0.4129790000000 1.0
C      1  0.5496960000000  0.5125840000000  0.4141510000000 1.0
C      1  0.5145440000000  0.5758530000000  0.4342780000000 1.0
C      1  0.4855270000000  0.5761970000000  0.4342560000000 1.0
C      1  0.5257220000000  0.5404780000000  0.5031620000000 1.0
C      1  0.4741980000000  0.5398880000000  0.5028110000000 1.0
C      1  0.4976290000000  0.4334620000000  0.5055100000000 1.0
END
