TITL C-105249-9151-9 -0.0644503306901115 125000 -552.408563735119 0 0 82 (C1) n - 1
REM
REM in /rds/project/t2_vol4/rds-t2-cs072/BORA/CARBON/from-Arr/AIRSS/Generating-Clusters/GAP-ML-2020/Higher-Symm/SD-CG/HFTN-CG
REM
REM
REM
REM
REM
REM ./C.cell (b20cbc046b6831c77cfcea5457e17084)
REM AIRSS Version 0.9.1 bugfix July 2018 build 013d7b7c2542+ Fri, 06 Jul 2018 19:26:36 +0100
REM compiler GCC version 9.3.0
REM options -cpp -mtune=generic -march=x86-64 -g -O0
REM seed -1316288742 -1105135235 661381376 -1789781265 -503781310 894638560 1436224645 -1517140645 -679894648 -1877473836 1361372222 -1748177229 -1929484896 2084851263 -488975420 -1935778610 -1583837173 -1280044356 1476206159 -562827953 1506439919 -1770068572 -1440101473 1878883746 871717735 1414744046 -1839118433 -405254498 -604426927 -1021048761 797044456 953465767 -2145079771
REM
CELL 1.54180   50.00000   50.00000   50.00000   90.00000   90.00000   90.00000
LATT -1
SFAC C  
C      1  0.5493240000000  0.4732060000000  0.5139100000000 1.0
C      1  0.5489170000000  0.5005530000000  0.4691330000000 1.0
C      1  0.5510530000000  0.5271440000000  0.5143360000000 1.0
C      1  0.5491720000000  0.4735040000000  0.4837410000000 1.0
C      1  0.5493730000000  0.4999660000000  0.5288080000000 1.0
C      1  0.5507730000000  0.5274790000000  0.4837600000000 1.0
C      1  0.4829310000000  0.5335220000000  0.5133570000000 1.0
C      1  0.4788700000000  0.4525940000000  0.5199900000000 1.0
C      1  0.4822060000000  0.5044640000000  0.4719860000000 1.0
C      1  0.4828240000000  0.5317310000000  0.4801960000000 1.0
C      1  0.4823820000000  0.4637840000000  0.4930760000000 1.0
C      1  0.4833120000000  0.5064630000000  0.5232710000000 1.0
C      1  0.5287760000000  0.4997580000000  0.4462460000000 1.0
C      1  0.5337050000000  0.5501040000000  0.5266860000000 1.0
C      1  0.5306090000000  0.4510730000000  0.5264360000000 1.0
C      1  0.5294840000000  0.4982310000000  0.5517770000000 1.0
C      1  0.5344830000000  0.5519430000000  0.4712570000000 1.0
C      1  0.5317570000000  0.4517360000000  0.4702740000000 1.0
C      1  0.4937470000000  0.5511620000000  0.5606920000000 1.0
C      1  0.4997010000000  0.4133020000000  0.5132960000000 1.0
C      1  0.4903510000000  0.5277760000000  0.4273960000000 1.0
C      1  0.4921220000000  0.5541220000000  0.4394870000000 1.0
C      1  0.4960980000000  0.4170740000000  0.4841230000000 1.0
C      1  0.4930870000000  0.5253070000000  0.5736720000000 1.0
C      1  0.5243440000000  0.4264680000000  0.4831730000000 1.0
C      1  0.5213030000000  0.5503560000000  0.4442490000000 1.0
C      1  0.5215700000000  0.5221750000000  0.5667180000000 1.0
C      1  0.5261420000000  0.4257410000000  0.5115680000000 1.0
C      1  0.5226000000000  0.5479390000000  0.5544170000000 1.0
C      1  0.5191700000000  0.5242300000000  0.4327880000000 1.0
C      1  0.5816190000000  0.5236830000000  0.4845160000000 1.0
C      1  0.5805040000000  0.4992010000000  0.5274620000000 1.0
C      1  0.5801220000000  0.4751380000000  0.4845840000000 1.0
C      1  0.5816360000000  0.5234550000000  0.5132560000000 1.0
C      1  0.5799240000000  0.4995540000000  0.4701120000000 1.0
C      1  0.5800320000000  0.4748330000000  0.5128570000000 1.0
C      1  0.4380630000000  0.5304870000000  0.5122020000000 1.0
C      1  0.4366510000000  0.4792570000000  0.5180660000000 1.0
C      1  0.4366230000000  0.4998040000000  0.4733690000000 1.0
C      1  0.4378110000000  0.5268050000000  0.4843050000000 1.0
C      1  0.4366760000000  0.4757770000000  0.4893530000000 1.0
C      1  0.4370260000000  0.5068080000000  0.5283440000000 1.0
C      1  0.5100500000000  0.5922500000000  0.5161750000000 1.0
C      1  0.5066000000000  0.4400200000000  0.5704500000000 1.0
C      1  0.5034910000000  0.4692270000000  0.4164950000000 1.0
C      1  0.5075240000000  0.5903470000000  0.4865310000000 1.0
C      1  0.5047030000000  0.4436540000000  0.4305100000000 1.0
C      1  0.5043550000000  0.4673400000000  0.5817170000000 1.0
C      1  0.5108420000000  0.5407320000000  0.4839880000000 1.0
C      1  0.5063710000000  0.4919290000000  0.5323800000000 1.0
C      1  0.5070100000000  0.4666220000000  0.4758990000000 1.0
C      1  0.5093450000000  0.5444390000000  0.5113710000000 1.0
C      1  0.5054410000000  0.4901890000000  0.4622900000000 1.0
C      1  0.5045380000000  0.4649000000000  0.5287870000000 1.0
C      1  0.4803520000000  0.4401300000000  0.4439400000000 1.0
C      1  0.4808610000000  0.5818790000000  0.4802330000000 1.0
C      1  0.4781390000000  0.4773600000000  0.5758630000000 1.0
C      1  0.4819180000000  0.4324990000000  0.5586250000000 1.0
C      1  0.4852440000000  0.5852130000000  0.5271480000000 1.0
C      1  0.4784640000000  0.4801720000000  0.4216850000000 1.0
C      1  0.4747290000000  0.4291920000000  0.4694500000000 1.0
C      1  0.4726110000000  0.5647000000000  0.4583300000000 1.0
C      1  0.4727930000000  0.5049960000000  0.5710000000000 1.0
C      1  0.4822580000000  0.4248310000000  0.5312790000000 1.0
C      1  0.4753810000000  0.5650080000000  0.5450540000000 1.0
C      1  0.4710190000000  0.5068500000000  0.4274620000000 1.0
C      1  0.5348090000000  0.5771320000000  0.5144220000000 1.0
C      1  0.5302310000000  0.4486490000000  0.5559700000000 1.0
C      1  0.5290010000000  0.4765780000000  0.4279540000000 1.0
C      1  0.5338560000000  0.5776250000000  0.4851580000000 1.0
C      1  0.5302900000000  0.4510030000000  0.4412480000000 1.0
C      1  0.5293010000000  0.4746680000000  0.5692580000000 1.0
C      1  0.4580510000000  0.4964920000000  0.4530860000000 1.0
C      1  0.4597190000000  0.5517770000000  0.5203130000000 1.0
C      1  0.4546060000000  0.4626430000000  0.5335390000000 1.0
C      1  0.4594710000000  0.5080720000000  0.5461440000000 1.0
C      1  0.4568740000000  0.5437930000000  0.4695540000000 1.0
C      1  0.4583560000000  0.4558330000000  0.4760430000000 1.0
C      1  0.4675380000000  0.5772810000000  0.5052610000000 1.0
C      1  0.4642250000000  0.4568620000000  0.5604440000000 1.0
C      1  0.4634850000000  0.4656250000000  0.4450140000000 1.0
C      1  0.4793140000000  0.4923910000000  0.4979760000000 1.0
END
