TITL C-105237-9117-10 109.956680706949 125000 -420.716401384478 0 0 62 (C3h) n - 1
REM
REM in /rds/project/t2_vol4/rds-t2-cs072/BORA/CARBON/from-Arr/AIRSS/Generating-Clusters/GAP-ML-2020/Higher-Symm/SD-CG/HFTN-CG
REM
REM
REM
REM
REM
REM ./C.cell (b20cbc046b6831c77cfcea5457e17084)
REM AIRSS Version 0.9.1 bugfix July 2018 build 013d7b7c2542+ Fri, 06 Jul 2018 19:26:36 +0100
REM compiler GCC version 9.3.0
REM options -cpp -mtune=generic -march=x86-64 -g -O0
REM seed 763015856 432825528 -735869467 193679151 2116269752 -1346619828 -1672695645 -1878023393 -943111496 -541884347 1220487583 -1694611941 339691334 1514461763 -681283330 -1631020297 659951617 -855316501 -2000503996 -1940410573 1239054058 1784950842 -1984166927 1418583594 -993069160 2019465812 -417406892 -717505451 1839007911 -1747586938 575471988 -1556966641 -1037381655
REM
CELL 1.54180   50.00000   50.00000   50.00000   90.00000   90.00000   90.00000
LATT -1
SFAC C  
C      1  0.4468020000000  0.4847100000000  0.4624640000000 1.0
C      1  0.5600070000000  0.4847090000000  0.4719850000000 1.0
C      1  0.4951590000000  0.4847100000000  0.5652640000000 1.0
C      1  0.4468020000000  0.5129210000000  0.4624640000000 1.0
C      1  0.5600070000000  0.5129210000000  0.4719840000000 1.0
C      1  0.4951590000000  0.5129220000000  0.5652630000000 1.0
C      1  0.5012930000000  0.4265970000000  0.4834010000000 1.0
C      1  0.5146290000000  0.4265970000000  0.5087090000000 1.0
C      1  0.4860440000000  0.4265970000000  0.5076040000000 1.0
C      1  0.5012950000000  0.5710340000000  0.4834000000000 1.0
C      1  0.5146300000000  0.5710340000000  0.5087080000000 1.0
C      1  0.4860450000000  0.5710340000000  0.5076030000000 1.0
C      1  0.5367590000000  0.4673760000000  0.5326110000000 1.0
C      1  0.4542790000000  0.4673760000000  0.5148170000000 1.0
C      1  0.5109300000000  0.4673750000000  0.4522840000000 1.0
C      1  0.5367590000000  0.5302550000000  0.5326110000000 1.0
C      1  0.4542790000000  0.5302560000000  0.5148170000000 1.0
C      1  0.5109300000000  0.5302550000000  0.4522840000000 1.0
C      1  0.5561660000000  0.5523540000000  0.4954630000000 1.0
C      1  0.4767470000000  0.5523550000000  0.5501960000000 1.0
C      1  0.4690560000000  0.5523550000000  0.4540510000000 1.0
C      1  0.5561650000000  0.4452760000000  0.4954640000000 1.0
C      1  0.4767460000000  0.4452770000000  0.5501970000000 1.0
C      1  0.4690560000000  0.4452760000000  0.4540520000000 1.0
C      1  0.5409040000000  0.4657760000000  0.4578760000000 1.0
C      1  0.5169290000000  0.4657770000000  0.5557740000000 1.0
C      1  0.4441350000000  0.4657770000000  0.4860620000000 1.0
C      1  0.5409040000000  0.5318540000000  0.4578760000000 1.0
C      1  0.5169290000000  0.5318550000000  0.5557730000000 1.0
C      1  0.4441350000000  0.5318550000000  0.4860620000000 1.0
C      1  0.5036170000000  0.4413920000000  0.5563520000000 1.0
C      1  0.4502890000000  0.4413910000000  0.4742450000000 1.0
C      1  0.5480600000000  0.4413900000000  0.4691150000000 1.0
C      1  0.5036180000000  0.5562400000000  0.5563520000000 1.0
C      1  0.4502900000000  0.5562400000000  0.4742450000000 1.0
C      1  0.5480610000000  0.5562390000000  0.4691150000000 1.0
C      1  0.4903700000000  0.4845710000000  0.4381540000000 1.0
C      1  0.5592760000000  0.4845710000000  0.5218710000000 1.0
C      1  0.4523210000000  0.4845720000000  0.5396880000000 1.0
C      1  0.4903700000000  0.5130590000000  0.4381540000000 1.0
C      1  0.5592760000000  0.5130590000000  0.5218710000000 1.0
C      1  0.4523220000000  0.5130600000000  0.5396870000000 1.0
C      1  0.4750350000000  0.4847990000000  0.5034430000000 1.0
C      1  0.5104010000000  0.4847980000000  0.4759460000000 1.0
C      1  0.5165310000000  0.4847990000000  0.5203230000000 1.0
C      1  0.4750350000000  0.5128330000000  0.5034430000000 1.0
C      1  0.5104020000000  0.5128320000000  0.4759460000000 1.0
C      1  0.5165310000000  0.5128330000000  0.5203230000000 1.0
C      1  0.4701510000000  0.5251830000000  0.5583140000000 1.0
C      1  0.4653250000000  0.5251820000000  0.4442800000000 1.0
C      1  0.5664930000000  0.5251810000000  0.4971170000000 1.0
C      1  0.4701500000000  0.4724500000000  0.5583140000000 1.0
C      1  0.4653240000000  0.4724490000000  0.4442810000000 1.0
C      1  0.5664930000000  0.4724490000000  0.4971180000000 1.0
C      1  0.4681150000000  0.4417470000000  0.5236150000000 1.0
C      1  0.4963920000000  0.4417460000000  0.4598690000000 1.0
C      1  0.5374590000000  0.4417460000000  0.5162300000000 1.0
C      1  0.4681160000000  0.5558850000000  0.5236140000000 1.0
C      1  0.4963930000000  0.5558850000000  0.4598680000000 1.0
C      1  0.5374600000000  0.5558840000000  0.5162290000000 1.0
C      1  0.5006560000000  0.4737820000000  0.4999040000000 1.0
C      1  0.5006560000000  0.5238500000000  0.4999040000000 1.0
END
