TITL C-101425-5141-9 29.3308684594911 125000 -308.550247179785 0 0 44 (D2) n - 1
REM
REM in /rds/project/t2_vol4/rds-t2-cs072/BORA/CARBON/from-Arr/AIRSS/Generating-Clusters/GAP-ML-2020/Higher-Symm/SD-CG/HFTN-CG
REM
REM
REM
REM
REM
REM ./C.cell (b20cbc046b6831c77cfcea5457e17084)
REM AIRSS Version 0.9.1 bugfix July 2018 build 013d7b7c2542+ Fri, 06 Jul 2018 19:26:36 +0100
REM compiler GCC version 9.3.0
REM options -cpp -mtune=generic -march=x86-64 -g -O0
REM seed 655563913 777197097 -1441955148 -1396419008 -1607343558 -473353888 -1372974209 320221351 -94105830 71953157 1342234868 -786402273 -1903936973 -1718578395 -767698928 1827023583 1928678316 -914479985 -1915304088 866664303 230185803 -614137265 1210944443 -577240148 414913965 -1907508057 -353859075 53676867 1896974552 1959460313 -1407884328 -740017522 719295077
REM
CELL 1.54180   50.00000   50.00000   50.00000   90.00000   90.00000   90.00000
LATT -1
SFAC C  
C      1  0.5407470000000  0.4742570000000  0.4628090000000 1.0
C      1  0.4592520000000  0.4742640000000  0.5371940000000 1.0
C      1  0.5407560000000  0.5257410000000  0.5371820000000 1.0
C      1  0.4592450000000  0.5257380000000  0.4628150000000 1.0
C      1  0.5640850000000  0.5380530000000  0.4956120000000 1.0
C      1  0.4359170000000  0.5380570000000  0.5043830000000 1.0
C      1  0.5640840000000  0.4619440000000  0.5043740000000 1.0
C      1  0.4359150000000  0.4619460000000  0.4956300000000 1.0
C      1  0.5059730000000  0.4467880000000  0.5198340000000 1.0
C      1  0.4940240000000  0.4467860000000  0.4801730000000 1.0
C      1  0.5059710000000  0.5532120000000  0.4801650000000 1.0
C      1  0.4940310000000  0.5532140000000  0.5198290000000 1.0
C      1  0.5620760000000  0.4832140000000  0.5178750000000 1.0
C      1  0.4379230000000  0.4832140000000  0.4821280000000 1.0
C      1  0.5620730000000  0.5167840000000  0.4821120000000 1.0
C      1  0.4379280000000  0.5167890000000  0.5178860000000 1.0
C      1  0.5478110000000  0.5031800000000  0.4634240000000 1.0
C      1  0.4521890000000  0.5031860000000  0.5365750000000 1.0
C      1  0.5478180000000  0.4968180000000  0.5365660000000 1.0
C      1  0.4521810000000  0.4968160000000  0.4634350000000 1.0
C      1  0.5434190000000  0.5426780000000  0.5146520000000 1.0
C      1  0.4565830000000  0.5426780000000  0.4853420000000 1.0
C      1  0.5434140000000  0.4573200000000  0.4853380000000 1.0
C      1  0.4565840000000  0.4573240000000  0.5146670000000 1.0
C      1  0.4863140000000  0.4969910000000  0.5667070000000 1.0
C      1  0.5136850000000  0.4969820000000  0.4332930000000 1.0
C      1  0.4863000000000  0.5030100000000  0.4332960000000 1.0
C      1  0.5137000000000  0.5030170000000  0.5667040000000 1.0
C      1  0.5278490000000  0.4825330000000  0.5523900000000 1.0
C      1  0.4721500000000  0.4825280000000  0.4476120000000 1.0
C      1  0.5278390000000  0.5174660000000  0.4476040000000 1.0
C      1  0.4721620000000  0.5174730000000  0.5523940000000 1.0
C      1  0.5199480000000  0.4450640000000  0.4943140000000 1.0
C      1  0.4800500000000  0.4450660000000  0.5056930000000 1.0
C      1  0.5199510000000  0.5549350000000  0.5056820000000 1.0
C      1  0.4800510000000  0.5549350000000  0.4943110000000 1.0
C      1  0.5078820000000  0.5381180000000  0.4565660000000 1.0
C      1  0.4921200000000  0.5381240000000  0.5434300000000 1.0
C      1  0.5078900000000  0.4618810000000  0.5434330000000 1.0
C      1  0.4921090000000  0.4618760000000  0.4565720000000 1.0
C      1  0.4820420000000  0.5288310000000  0.4457830000000 1.0
C      1  0.5179590000000  0.5288370000000  0.5542130000000 1.0
C      1  0.4820530000000  0.4711700000000  0.5542200000000 1.0
C      1  0.5179460000000  0.4711620000000  0.4457830000000 1.0
END
