TITL C-109530-6307-8 0.352773440519758 125000 -744.346047823941 0 0 108 (C1) n - 1
REM
REM in /rds/project/t2_vol4/rds-t2-cs072/BORA/CARBON/from-Arr/AIRSS/Generating-Clusters/GAP-ML-2020/Higher-Symm/SD-CG/HFTN-CG
REM
REM
REM
REM
REM
REM ./C.cell (b20cbc046b6831c77cfcea5457e17084)
REM AIRSS Version 0.9.1 bugfix July 2018 build 013d7b7c2542+ Fri, 06 Jul 2018 19:26:36 +0100
REM compiler GCC version 9.3.0
REM options -cpp -mtune=generic -march=x86-64 -g -O0
REM seed 1963835831 1278585987 -2027717590 -2033614432 1025272530 29972836 -150151085 -1812247958 1837951477 1075476526 -370159177 -1593864144 1960644780 1643702876 106458371 1749936339 1400928222 -1304337715 -1811038338 -289786204 -1349407880 2021957333 462235428 528633189 722912605 -406163502 30765252 -1889353048 -1377607605 1972946925 1762140747 -1238943412 1982999649
REM
CELL 1.54180   50.00000   50.00000   50.00000   90.00000   90.00000   90.00000
LATT -1
SFAC C  
C      1  0.5842540000000  0.4890390000000  0.5278860000000 1.0
C      1  0.4970510000000  0.4864450000000  0.5962080000000 1.0
C      1  0.4105390000000  0.4928530000000  0.5283200000000 1.0
C      1  0.4493990000000  0.4914640000000  0.4285340000000 1.0
C      1  0.5592120000000  0.4928180000000  0.4222570000000 1.0
C      1  0.5200840000000  0.5521440000000  0.4320400000000 1.0
C      1  0.5683160000000  0.5535640000000  0.4976220000000 1.0
C      1  0.5237040000000  0.5472510000000  0.5675480000000 1.0
C      1  0.4466170000000  0.5540440000000  0.5458930000000 1.0
C      1  0.4449550000000  0.5557870000000  0.4616160000000 1.0
C      1  0.4786740000000  0.5471810000000  0.4296190000000 1.0
C      1  0.5592760000000  0.5490760000000  0.4567900000000 1.0
C      1  0.5582380000000  0.5464170000000  0.5446140000000 1.0
C      1  0.4780270000000  0.5443900000000  0.5723080000000 1.0
C      1  0.4298140000000  0.5531540000000  0.5009800000000 1.0
C      1  0.5173720000000  0.5354190000000  0.5187190000000 1.0
C      1  0.4883240000000  0.5365500000000  0.5225880000000 1.0
C      1  0.4745320000000  0.5381220000000  0.4957100000000 1.0
C      1  0.4965320000000  0.5319670000000  0.4755000000000 1.0
C      1  0.5233930000000  0.5361440000000  0.4872910000000 1.0
C      1  0.5461070000000  0.4680300000000  0.4154480000000 1.0
C      1  0.5832990000000  0.4644060000000  0.5129390000000 1.0
C      1  0.5097110000000  0.4585330000000  0.5914530000000 1.0
C      1  0.4207710000000  0.4673110000000  0.5415440000000 1.0
C      1  0.4355170000000  0.4665720000000  0.4347790000000 1.0
C      1  0.5762850000000  0.4673870000000  0.4862230000000 1.0
C      1  0.5291130000000  0.4655840000000  0.5729670000000 1.0
C      1  0.4421940000000  0.4708700000000  0.5593210000000 1.0
C      1  0.4230760000000  0.4717150000000  0.4593730000000 1.0
C      1  0.5188590000000  0.4712470000000  0.4220630000000 1.0
C      1  0.4149710000000  0.4919220000000  0.5002540000000 1.0
C      1  0.4779000000000  0.4877400000000  0.4293460000000 1.0
C      1  0.5656360000000  0.4914500000000  0.4499670000000 1.0
C      1  0.5621020000000  0.4782580000000  0.5456750000000 1.0
C      1  0.4745260000000  0.4924110000000  0.5807500000000 1.0
C      1  0.5227870000000  0.5822940000000  0.4826730000000 1.0
C      1  0.5146430000000  0.5817740000000  0.5321820000000 1.0
C      1  0.4903910000000  0.5833680000000  0.5441180000000 1.0
C      1  0.4808570000000  0.5826680000000  0.4899010000000 1.0
C      1  0.4984400000000  0.5797150000000  0.4672960000000 1.0
C      1  0.4676590000000  0.4679190000000  0.5427560000000 1.0
C      1  0.4450090000000  0.4668820000000  0.4762200000000 1.0
C      1  0.5161650000000  0.4699430000000  0.4511860000000 1.0
C      1  0.5464850000000  0.4628950000000  0.4823060000000 1.0
C      1  0.5138480000000  0.4766630000000  0.5499370000000 1.0
C      1  0.4275990000000  0.5431520000000  0.5279360000000 1.0
C      1  0.4524880000000  0.5411060000000  0.4382090000000 1.0
C      1  0.5458410000000  0.5408950000000  0.4329870000000 1.0
C      1  0.5746800000000  0.5400580000000  0.5221230000000 1.0
C      1  0.5029520000000  0.5349660000000  0.5818280000000 1.0
C      1  0.4654440000000  0.5065990000000  0.4976580000000 1.0
C      1  0.4884270000000  0.5014360000000  0.4784780000000 1.0
C      1  0.5352780000000  0.5089400000000  0.4863320000000 1.0
C      1  0.5253080000000  0.5052290000000  0.5131260000000 1.0
C      1  0.4814000000000  0.5068490000000  0.5252490000000 1.0
C      1  0.5419600000000  0.5078210000000  0.5817300000000 1.0
C      1  0.4330330000000  0.5162110000000  0.5673910000000 1.0
C      1  0.4175400000000  0.5185780000000  0.4594720000000 1.0
C      1  0.5153390000000  0.5150130000000  0.4067650000000 1.0
C      1  0.5909320000000  0.5144210000000  0.4856140000000 1.0
C      1  0.4952880000000  0.4559480000000  0.5378090000000 1.0
C      1  0.4529090000000  0.4631810000000  0.5179160000000 1.0
C      1  0.4705770000000  0.4559770000000  0.4672600000000 1.0
C      1  0.5303090000000  0.4434200000000  0.4639950000000 1.0
C      1  0.5330590000000  0.4612070000000  0.5093710000000 1.0
C      1  0.5464810000000  0.4354140000000  0.4412200000000 1.0
C      1  0.5430010000000  0.4363200000000  0.5199430000000 1.0
C      1  0.4999610000000  0.4293280000000  0.5501440000000 1.0
C      1  0.4497970000000  0.4293200000000  0.5177580000000 1.0
C      1  0.4676910000000  0.4292140000000  0.4527920000000 1.0
C      1  0.4445650000000  0.4844050000000  0.4986400000000 1.0
C      1  0.4879970000000  0.4787670000000  0.4569670000000 1.0
C      1  0.5390510000000  0.4876130000000  0.4657560000000 1.0
C      1  0.5351820000000  0.4835870000000  0.5305090000000 1.0
C      1  0.4851810000000  0.4910990000000  0.5509950000000 1.0
C      1  0.4225270000000  0.5434140000000  0.4742590000000 1.0
C      1  0.5018030000000  0.5392610000000  0.4139550000000 1.0
C      1  0.5799030000000  0.5396420000000  0.4754190000000 1.0
C      1  0.5485270000000  0.5335610000000  0.5694380000000 1.0
C      1  0.4494560000000  0.5395250000000  0.5701500000000 1.0
C      1  0.4190950000000  0.5175660000000  0.5411230000000 1.0
C      1  0.4376920000000  0.5164260000000  0.4379450000000 1.0
C      1  0.5434300000000  0.5160980000000  0.4172550000000 1.0
C      1  0.5880150000000  0.5145210000000  0.5146830000000 1.0
C      1  0.5142320000000  0.5094140000000  0.5910830000000 1.0
C      1  0.5298570000000  0.5555790000000  0.5389380000000 1.0
C      1  0.4772100000000  0.5580750000000  0.5452100000000 1.0
C      1  0.4572780000000  0.5623170000000  0.4890300000000 1.0
C      1  0.4971980000000  0.5551400000000  0.4517510000000 1.0
C      1  0.5427420000000  0.5599200000000  0.4804200000000 1.0
C      1  0.5852860000000  0.4903890000000  0.4709180000000 1.0
C      1  0.5525240000000  0.4827350000000  0.5733200000000 1.0
C      1  0.4459790000000  0.4922880000000  0.5770070000000 1.0
C      1  0.4090520000000  0.4945080000000  0.4720560000000 1.0
C      1  0.5010050000000  0.4909730000000  0.4125260000000 1.0
C      1  0.4746400000000  0.4208750000000  0.5074660000000 1.0
C      1  0.4836340000000  0.4271600000000  0.4792110000000 1.0
C      1  0.5130830000000  0.4259650000000  0.4810070000000 1.0
C      1  0.5218390000000  0.4194020000000  0.5078550000000 1.0
C      1  0.4985850000000  0.4165700000000  0.5241880000000 1.0
C      1  0.4290980000000  0.4444070000000  0.5259420000000 1.0
C      1  0.4510400000000  0.4427140000000  0.4375490000000 1.0
C      1  0.5557910000000  0.4417850000000  0.4184010000000 1.0
C      1  0.5656950000000  0.4496930000000  0.5311300000000 1.0
C      1  0.5042160000000  0.4357860000000  0.5763450000000 1.0
C      1  0.5032380000000  0.4633570000000  0.5097670000000 1.0
C      1  0.5056440000000  0.5862140000000  0.5059740000000 1.0
C      1  0.4998000000000  0.4922120000000  0.5055310000000 1.0
END
