TITL C-100369-6291-4 -9.04985700777675 125000 -690.040892949525 0 0 100 (C1) n - 1
REM
REM in /rds/project/t2_vol4/rds-t2-cs072/BORA/CARBON/from-Arr/AIRSS/Generating-Clusters/GAP-ML-2020/Higher-Symm/SD-CG/HFTN-CG
REM
REM
REM
REM
REM
REM ./C.cell (b20cbc046b6831c77cfcea5457e17084)
REM AIRSS Version 0.9.1 bugfix July 2018 build 013d7b7c2542+ Fri, 06 Jul 2018 19:26:36 +0100
REM compiler GCC version 9.3.0
REM options -cpp -mtune=generic -march=x86-64 -g -O0
REM seed 1075392461 1480715749 1098912836 1086200881 1707169811 1743100711 -1070379488 -1568830240 1200551587 -1501597240 -120367207 778651800 -377394084 164556271 -277633689 1272271214 750022323 -1726956836 -460789394 -1844566724 -380250591 1316091343 -1946734871 561521274 -415882962 137605919 814244640 -949805911 38816473 1143539123 -1708602399 1717979665 -207891358
REM
CELL 1.54180   50.00000   50.00000   50.00000   90.00000   90.00000   90.00000
LATT -1
SFAC C  
C      1  0.4909640000000  0.5022420000000  0.5715510000000 1.0
C      1  0.4933630000000  0.5466790000000  0.5520110000000 1.0
C      1  0.4906710000000  0.5668230000000  0.5066970000000 1.0
C      1  0.4930270000000  0.5687240000000  0.4556530000000 1.0
C      1  0.4921780000000  0.5198130000000  0.4331820000000 1.0
C      1  0.4943060000000  0.4720680000000  0.4335670000000 1.0
C      1  0.4902670000000  0.4368990000000  0.4696320000000 1.0
C      1  0.4935590000000  0.4184900000000  0.5185010000000 1.0
C      1  0.4920180000000  0.4554040000000  0.5560710000000 1.0
C      1  0.5820330000000  0.5426380000000  0.4917120000000 1.0
C      1  0.5757410000000  0.5231410000000  0.4727490000000 1.0
C      1  0.5803290000000  0.4990250000000  0.4580500000000 1.0
C      1  0.5713560000000  0.4759410000000  0.4731290000000 1.0
C      1  0.5743340000000  0.4594000000000  0.4981090000000 1.0
C      1  0.5778180000000  0.4642260000000  0.5264550000000 1.0
C      1  0.5801430000000  0.4881270000000  0.5428790000000 1.0
C      1  0.5802070000000  0.5179730000000  0.5409070000000 1.0
C      1  0.5815840000000  0.5387610000000  0.5212720000000 1.0
C      1  0.4509870000000  0.5438460000000  0.4432300000000 1.0
C      1  0.4503120000000  0.4955090000000  0.4288850000000 1.0
C      1  0.4500640000000  0.4510620000000  0.4474880000000 1.0
C      1  0.4498280000000  0.4279360000000  0.4919570000000 1.0
C      1  0.4508280000000  0.4381290000000  0.5403700000000 1.0
C      1  0.4490610000000  0.4772610000000  0.5712730000000 1.0
C      1  0.4502780000000  0.5283800000000  0.5675420000000 1.0
C      1  0.4502790000000  0.5625500000000  0.5337620000000 1.0
C      1  0.4501450000000  0.5700750000000  0.4834670000000 1.0
C      1  0.5393980000000  0.4770480000000  0.4715510000000 1.0
C      1  0.5197850000000  0.4737050000000  0.4929670000000 1.0
C      1  0.5225590000000  0.4678290000000  0.5217550000000 1.0
C      1  0.5336320000000  0.4895370000000  0.5360090000000 1.0
C      1  0.5224230000000  0.5132520000000  0.5244400000000 1.0
C      1  0.5376320000000  0.5352180000000  0.5146600000000 1.0
C      1  0.5307170000000  0.5390550000000  0.4865170000000 1.0
C      1  0.5465670000000  0.5247060000000  0.4671650000000 1.0
C      1  0.5315240000000  0.5007150000000  0.4568690000000 1.0
C      1  0.4627370000000  0.5714790000000  0.5092610000000 1.0
C      1  0.4666720000000  0.5636680000000  0.4590590000000 1.0
C      1  0.4635660000000  0.5211330000000  0.4309320000000 1.0
C      1  0.4664720000000  0.4713990000000  0.4333880000000 1.0
C      1  0.4620200000000  0.4340800000000  0.4669860000000 1.0
C      1  0.4680250000000  0.4298450000000  0.5164010000000 1.0
C      1  0.4635250000000  0.4541430000000  0.5604050000000 1.0
C      1  0.4630620000000  0.5031570000000  0.5744690000000 1.0
C      1  0.4658510000000  0.5500780000000  0.5553410000000 1.0
C      1  0.5011740000000  0.5083780000000  0.4600040000000 1.0
C      1  0.4875250000000  0.4831130000000  0.4615410000000 1.0
C      1  0.4926790000000  0.4644850000000  0.4833980000000 1.0
C      1  0.4773300000000  0.4626250000000  0.5087490000000 1.0
C      1  0.4935780000000  0.4722220000000  0.5311210000000 1.0
C      1  0.4855240000000  0.4992290000000  0.5417450000000 1.0
C      1  0.4936410000000  0.5242340000000  0.5298650000000 1.0
C      1  0.4865050000000  0.5367820000000  0.5038450000000 1.0
C      1  0.5036310000000  0.5243430000000  0.4841590000000 1.0
C      1  0.5358140000000  0.4972090000000  0.4274200000000 1.0
C      1  0.5317910000000  0.4487760000000  0.4464780000000 1.0
C      1  0.5326430000000  0.4254470000000  0.4895860000000 1.0
C      1  0.5332210000000  0.4416150000000  0.5373680000000 1.0
C      1  0.5330810000000  0.4808950000000  0.5656780000000 1.0
C      1  0.5336990000000  0.5282530000000  0.5687480000000 1.0
C      1  0.5326910000000  0.5621870000000  0.5304810000000 1.0
C      1  0.5342610000000  0.5686830000000  0.4835790000000 1.0
C      1  0.5313060000000  0.5455540000000  0.4356230000000 1.0
C      1  0.5576340000000  0.4378420000000  0.4862710000000 1.0
C      1  0.5606860000000  0.4450800000000  0.5383720000000 1.0
C      1  0.5608680000000  0.4895910000000  0.5652930000000 1.0
C      1  0.5599750000000  0.5190190000000  0.5629660000000 1.0
C      1  0.5603060000000  0.5601170000000  0.5216510000000 1.0
C      1  0.5626240000000  0.5657590000000  0.4934580000000 1.0
C      1  0.5566010000000  0.5350080000000  0.4412190000000 1.0
C      1  0.5629850000000  0.5058140000000  0.4326940000000 1.0
C      1  0.5560650000000  0.4527450000000  0.4600600000000 1.0
C      1  0.5196700000000  0.4536820000000  0.5619280000000 1.0
C      1  0.5182360000000  0.5043720000000  0.5764790000000 1.0
C      1  0.5208560000000  0.5517260000000  0.5564910000000 1.0
C      1  0.5173060000000  0.5746840000000  0.5085940000000 1.0
C      1  0.5199030000000  0.5666240000000  0.4547020000000 1.0
C      1  0.5178940000000  0.5238940000000  0.4223030000000 1.0
C      1  0.5211550000000  0.4689500000000  0.4278910000000 1.0
C      1  0.5171320000000  0.4305480000000  0.4647360000000 1.0
C      1  0.5198620000000  0.4226430000000  0.5164840000000 1.0
C      1  0.4248430000000  0.5517970000000  0.5359910000000 1.0
C      1  0.4248300000000  0.5596540000000  0.4789000000000 1.0
C      1  0.4250690000000  0.5442700000000  0.4538670000000 1.0
C      1  0.4244870000000  0.4886240000000  0.4367550000000 1.0
C      1  0.4242980000000  0.4614710000000  0.4490520000000 1.0
C      1  0.4249740000000  0.4357840000000  0.5007120000000 1.0
C      1  0.4254070000000  0.4416710000000  0.5299220000000 1.0
C      1  0.4222640000000  0.4782230000000  0.5683020000000 1.0
C      1  0.4246360000000  0.5308930000000  0.5570040000000 1.0
C      1  0.4087260000000  0.4860930000000  0.5441350000000 1.0
C      1  0.4081490000000  0.5141570000000  0.5406180000000 1.0
C      1  0.4081660000000  0.5348260000000  0.5189870000000 1.0
C      1  0.4079490000000  0.5393160000000  0.4916900000000 1.0
C      1  0.4078790000000  0.5243560000000  0.4660130000000 1.0
C      1  0.4072740000000  0.4981670000000  0.4580630000000 1.0
C      1  0.4073790000000  0.4712070000000  0.4708570000000 1.0
C      1  0.4085620000000  0.4596530000000  0.4961240000000 1.0
C      1  0.4089140000000  0.4648560000000  0.5254540000000 1.0
C      1  0.5149470000000  0.5018110000000  0.4988280000000 1.0
END
