TITL C-102476-7213-2 15.3885262421117 125000 -1101.14034339097 0 0 158 (C3i) n - 1
REM
REM in /rds/project/t2_vol4/rds-t2-cs072/BORA/CARBON/from-Arr/AIRSS/Generating-Clusters/GAP-ML-2020/Higher-Symm/SD-CG/HFTN-CG
REM
REM
REM
REM
REM
REM ./C.cell (b20cbc046b6831c77cfcea5457e17084)
REM AIRSS Version 0.9.1 bugfix July 2018 build 013d7b7c2542+ Fri, 06 Jul 2018 19:26:36 +0100
REM compiler GCC version 9.3.0
REM options -cpp -mtune=generic -march=x86-64 -g -O0
REM seed 220106884 -673698954 1501000480 -1553487193 -2136188932 36105255 -606668955 -907940538 1727559897 -1010138533 -424715745 -1065747686 1602719174 -765863688 149508974 -1451133948 -1198090566 1374178117 -132464551 358137607 2073901928 2010217114 -1844116226 965392945 -330939892 -1342183613 -554524615 1717253416 -623677662 432544609 1754555288 963588870 33593524
REM
CELL 1.54180   50.00000   50.00000   50.00000   90.00000   90.00000   90.00000
LATT -1
SFAC C  
C      1  0.4483160000000  0.5701000000000  0.4357660000000 1.0
C      1  0.4187060000000  0.4299030000000  0.5127920000000 1.0
C      1  0.4706140000000  0.5700940000000  0.5769560000000 1.0
C      1  0.5521290000000  0.4299000000000  0.5640770000000 1.0
C      1  0.5817400000000  0.5700970000000  0.4870510000000 1.0
C      1  0.5298310000000  0.4299060000000  0.4228860000000 1.0
C      1  0.5681810000000  0.5277710000000  0.4270550000000 1.0
C      1  0.4710960000000  0.4722350000000  0.4046330000000 1.0
C      1  0.4031390000000  0.5277710000000  0.4775030000000 1.0
C      1  0.4322640000000  0.4722290000000  0.5727870000000 1.0
C      1  0.5293490000000  0.5277650000000  0.5952090000000 1.0
C      1  0.5973060000000  0.4722290000000  0.5223400000000 1.0
C      1  0.5524730000000  0.5038680000000  0.5579970000000 1.0
C      1  0.5766430000000  0.4961290000000  0.4837090000000 1.0
C      1  0.5243930000000  0.5038740000000  0.4256330000000 1.0
C      1  0.4479720000000  0.4961320000000  0.4418450000000 1.0
C      1  0.4238020000000  0.5038710000000  0.5161340000000 1.0
C      1  0.4760530000000  0.4961260000000  0.5742100000000 1.0
C      1  0.5288450000000  0.4526290000000  0.4858270000000 1.0
C      1  0.5023300000000  0.5473720000000  0.4680890000000 1.0
C      1  0.4737070000000  0.4526300000000  0.4821770000000 1.0
C      1  0.4716000000000  0.5473710000000  0.5140150000000 1.0
C      1  0.4981150000000  0.4526280000000  0.5317530000000 1.0
C      1  0.5267380000000  0.5473700000000  0.5176650000000 1.0
C      1  0.4078620000000  0.5310880000000  0.5064640000000 1.0
C      1  0.4597070000000  0.4689100000000  0.5831780000000 1.0
C      1  0.5520680000000  0.5310830000000  0.5766390000000 1.0
C      1  0.5925830000000  0.4689120000000  0.4933790000000 1.0
C      1  0.5407390000000  0.5310900000000  0.4166650000000 1.0
C      1  0.4483770000000  0.4689170000000  0.4232030000000 1.0
C      1  0.4973240000000  0.5869550000000  0.4366450000000 1.0
C      1  0.4439700000000  0.4130500000000  0.4707880000000 1.0
C      1  0.4468710000000  0.5869510000000  0.5340750000000 1.0
C      1  0.5031210000000  0.4130450000000  0.5631970000000 1.0
C      1  0.5564750000000  0.5869500000000  0.5290540000000 1.0
C      1  0.5535740000000  0.4130490000000  0.4657670000000 1.0
C      1  0.4842890000000  0.5220900000000  0.4046530000000 1.0
C      1  0.4097500000000  0.4779160000000  0.4660850000000 1.0
C      1  0.4256850000000  0.5220840000000  0.5613560000000 1.0
C      1  0.5161560000000  0.4779100000000  0.5951890000000 1.0
C      1  0.5906950000000  0.5220840000000  0.5337570000000 1.0
C      1  0.5747610000000  0.4779160000000  0.4384870000000 1.0
C      1  0.4401470000000  0.5857470000000  0.4827870000000 1.0
C      1  0.4553420000000  0.4142520000000  0.5433760000000 1.0
C      1  0.5154200000000  0.5857430000000  0.5605210000000 1.0
C      1  0.5602980000000  0.4142530000000  0.5170560000000 1.0
C      1  0.5451030000000  0.5857480000000  0.4564660000000 1.0
C      1  0.4850260000000  0.4142570000000  0.4393210000000 1.0
C      1  0.4319010000000  0.4312360000000  0.5382000000000 1.0
C      1  0.4992160000000  0.5687600000000  0.5782320000000 1.0
C      1  0.5675350000000  0.4312340000000  0.5399450000000 1.0
C      1  0.5685440000000  0.5687640000000  0.4616430000000 1.0
C      1  0.5012300000000  0.4312400000000  0.4216100000000 1.0
C      1  0.4329100000000  0.5687660000000  0.4598970000000 1.0
C      1  0.5414010000000  0.4646990000000  0.5088800000000 1.0
C      1  0.5285720000000  0.5353010000000  0.4687400000000 1.0
C      1  0.4873920000000  0.4647020000000  0.4597780000000 1.0
C      1  0.4590440000000  0.5353010000000  0.4909630000000 1.0
C      1  0.4718730000000  0.4646990000000  0.5311020000000 1.0
C      1  0.5130530000000  0.5352980000000  0.5400650000000 1.0
C      1  0.4799130000000  0.5246250000000  0.5885990000000 1.0
C      1  0.5668640000000  0.4753680000000  0.5618480000000 1.0
C      1  0.5871740000000  0.5246290000000  0.4731730000000 1.0
C      1  0.5205320000000  0.4753750000000  0.4112430000000 1.0
C      1  0.4335810000000  0.5246320000000  0.4379950000000 1.0
C      1  0.4132710000000  0.4753710000000  0.5266700000000 1.0
C      1  0.5339620000000  0.5065450000000  0.4555920000000 1.0
C      1  0.4787020000000  0.4934580000000  0.4485370000000 1.0
C      1  0.4449630000000  0.5065450000000  0.4928670000000 1.0
C      1  0.4664840000000  0.4934550000000  0.5442500000000 1.0
C      1  0.5217440000000  0.5065420000000  0.5513050000000 1.0
C      1  0.5554820000000  0.4934550000000  0.5069750000000 1.0
C      1  0.5405430000000  0.4554110000000  0.4135090000000 1.0
C      1  0.4455500000000  0.5445960000000  0.4217990000000 1.0
C      1  0.4052280000000  0.4554090000000  0.5082060000000 1.0
C      1  0.4599020000000  0.5445890000000  0.5863340000000 1.0
C      1  0.5548960000000  0.4554040000000  0.5780430000000 1.0
C      1  0.5952170000000  0.5445910000000  0.4916370000000 1.0
C      1  0.4861510000000  0.5319850000000  0.5315770000000 1.0
C      1  0.5206000000000  0.4680130000000  0.5279340000000 1.0
C      1  0.5346730000000  0.5319860000000  0.4962820000000 1.0
C      1  0.5142940000000  0.4680150000000  0.4682650000000 1.0
C      1  0.4798450000000  0.5319870000000  0.4719080000000 1.0
C      1  0.4657720000000  0.4680140000000  0.5035600000000 1.0
C      1  0.4845240000000  0.4276400000000  0.4917110000000 1.0
C      1  0.4852670000000  0.5723600000000  0.5094150000000 1.0
C      1  0.5009630000000  0.4276390000000  0.5176160000000 1.0
C      1  0.5159210000000  0.5723600000000  0.5081310000000 1.0
C      1  0.5151780000000  0.4276400000000  0.4904270000000 1.0
C      1  0.4994820000000  0.5723610000000  0.4822260000000 1.0
C      1  0.4445860000000  0.4439910000000  0.4326710000000 1.0
C      1  0.4141670000000  0.5560130000000  0.5144820000000 1.0
C      1  0.4698020000000  0.4439840000000  0.5817250000000 1.0
C      1  0.5558590000000  0.5560090000000  0.5671710000000 1.0
C      1  0.5862780000000  0.4439870000000  0.4853600000000 1.0
C      1  0.5306430000000  0.5560160000000  0.4181180000000 1.0
C      1  0.4715400000000  0.4957510000000  0.4984990000000 1.0
C      1  0.4846500000000  0.5042480000000  0.5240510000000 1.0
C      1  0.5133330000000  0.4957490000000  0.5254720000000 1.0
C      1  0.5289060000000  0.5042490000000  0.5013430000000 1.0
C      1  0.5157960000000  0.4957520000000  0.4757920000000 1.0
C      1  0.4871130000000  0.5042510000000  0.4743700000000 1.0
C      1  0.4898980000000  0.3837460000000  0.5249900000000 1.0
C      1  0.5167770000000  0.6162520000000  0.5214030000000 1.0
C      1  0.5270970000000  0.3837470000000  0.4963190000000 1.0
C      1  0.5105470000000  0.6162540000000  0.4748520000000 1.0
C      1  0.4836690000000  0.3837480000000  0.4784400000000 1.0
C      1  0.4733480000000  0.6162530000000  0.5035230000000 1.0
C      1  0.4746230000000  0.4217390000000  0.5655990000000 1.0
C      1  0.5443050000000  0.5782560000000  0.5549340000000 1.0
C      1  0.5699020000000  0.4217410000000  0.4892470000000 1.0
C      1  0.5258220000000  0.5782610000000  0.4342440000000 1.0
C      1  0.4561400000000  0.4217440000000  0.4449080000000 1.0
C      1  0.4305430000000  0.5782590000000  0.5105960000000 1.0
C      1  0.4962080000000  0.4582600000000  0.4098220000000 1.0
C      1  0.4201890000000  0.5417460000000  0.4583510000000 1.0
C      1  0.4242030000000  0.4582550000000  0.5484450000000 1.0
C      1  0.5042380000000  0.5417400000000  0.5900200000000 1.0
C      1  0.5802560000000  0.4582540000000  0.5414910000000 1.0
C      1  0.5762420000000  0.5417450000000  0.4513980000000 1.0
C      1  0.4645400000000  0.4032100000000  0.4904820000000 1.0
C      1  0.4742120000000  0.5967890000000  0.5261090000000 1.0
C      1  0.5098910000000  0.4032080000000  0.5355360000000 1.0
C      1  0.5359050000000  0.5967900000000  0.5093600000000 1.0
C      1  0.5262330000000  0.4032110000000  0.4737340000000 1.0
C      1  0.4905540000000  0.5967920000000  0.4643070000000 1.0
C      1  0.5535810000000  0.4275120000000  0.4412820000000 1.0
C      1  0.4761230000000  0.5724940000000  0.4243950000000 1.0
C      1  0.4227620000000  0.4275110000000  0.4830260000000 1.0
C      1  0.4468640000000  0.5724880000000  0.5585600000000 1.0
C      1  0.5243220000000  0.4275060000000  0.5754470000000 1.0
C      1  0.5776830000000  0.5724890000000  0.5168170000000 1.0
C      1  0.4367720000000  0.5468900000000  0.5694760000000 1.0
C      1  0.5287310000000  0.4531040000000  0.5896460000000 1.0
C      1  0.5921830000000  0.5468900000000  0.5200970000000 1.0
C      1  0.5636730000000  0.4531100000000  0.4303670000000 1.0
C      1  0.4717140000000  0.5468960000000  0.4101960000000 1.0
C      1  0.4082620000000  0.4531100000000  0.4797450000000 1.0
C      1  0.5044300000000  0.4923140000000  0.5726470000000 1.0
C      1  0.5653090000000  0.5076800000000  0.5326410000000 1.0
C      1  0.5611010000000  0.4923190000000  0.4599140000000 1.0
C      1  0.4960150000000  0.5076860000000  0.4271960000000 1.0
C      1  0.4351370000000  0.4923200000000  0.4672020000000 1.0
C      1  0.4393440000000  0.5076810000000  0.5399280000000 1.0
C      1  0.5013630000000  0.6030480000000  0.5422110000000 1.0
C      1  0.5374120000000  0.3969490000000  0.5200730000000 1.0
C      1  0.5362740000000  0.6030500000000  0.4777960000000 1.0
C      1  0.4990820000000  0.3969520000000  0.4576310000000 1.0
C      1  0.4630340000000  0.6030510000000  0.4797690000000 1.0
C      1  0.4641710000000  0.3969500000000  0.5220460000000 1.0
C      1  0.6019820000000  0.4979780000000  0.5300030000000 1.0
C      1  0.5771540000000  0.5020220000000  0.4268360000000 1.0
C      1  0.4753940000000  0.4979850000000  0.3967540000000 1.0
C      1  0.3984630000000  0.5020220000000  0.4698400000000 1.0
C      1  0.4232910000000  0.4979780000000  0.5730070000000 1.0
C      1  0.5250510000000  0.5020150000000  0.6030890000000 1.0
C      1  0.5002210000000  0.3761030000000  0.4999160000000 1.0
C      1  0.5002240000000  0.6238970000000  0.4999260000000 1.0
END
