TITL C-103918-4971-1 0.110322779030251 125000 -1166.98944466156 0 0 165 (C1) n - 1
REM
REM in /rds/project/t2_vol4/rds-t2-cs072/BORA/CARBON/from-Arr/AIRSS/Generating-Clusters/GAP-ML-2020/Higher-Symm/SD-CG/HFTN-CG/C160-200
REM
REM
REM
REM
REM
REM ./C.cell (6b4489405718ea1b717e0baf1da4c2d9)
REM AIRSS Version 0.9.1 bugfix July 2018 build 013d7b7c2542+ Fri, 06 Jul 2018 19:26:36 +0100
REM compiler GCC version 9.3.0
REM options -cpp -mtune=generic -march=x86-64 -g -O0
REM seed -1024622437 1880662473 -1612518285 -1945478930 1660678860 -1813615876 1330323472 -985432968 447724342 425344898 -1961243116 402557498 -1173800669 657322358 1034379201 194324381 1540808111 -785410780 292538678 -2043305414 -753365005 -1985840955 -1691414293 -1352645217 2041817999 -436474647 1165513269 998372685 -1039203213 -2111139063 -1057701747 85921420 -406288403
REM
CELL 1.54180   50.00000   50.00000   50.00000   90.00000   90.00000   90.00000
LATT -1
SFAC C  
C      1  0.4820220000000  0.5765170000000  0.4534910000000 1.0
C      1  0.4196900000000  0.5510180000000  0.5263290000000 1.0
C      1  0.5392870000000  0.3787600000000  0.5066530000000 1.0
C      1  0.4786070000000  0.4649260000000  0.4007910000000 1.0
C      1  0.5907520000000  0.5518030000000  0.5379540000000 1.0
C      1  0.4699180000000  0.5540320000000  0.4740600000000 1.0
C      1  0.5722190000000  0.5776760000000  0.5039030000000 1.0
C      1  0.5474370000000  0.5248210000000  0.6014010000000 1.0
C      1  0.4726250000000  0.5189480000000  0.5060660000000 1.0
C      1  0.4914310000000  0.5668710000000  0.4256850000000 1.0
C      1  0.5014180000000  0.5239740000000  0.6149920000000 1.0
C      1  0.5609240000000  0.5476700000000  0.4371790000000 1.0
C      1  0.3991050000000  0.4900850000000  0.4829740000000 1.0
C      1  0.4387590000000  0.4084700000000  0.4908240000000 1.0
C      1  0.5400440000000  0.5202860000000  0.4076230000000 1.0
C      1  0.4744930000000  0.3908920000000  0.4600080000000 1.0
C      1  0.4257930000000  0.5398600000000  0.4256420000000 1.0
C      1  0.4582930000000  0.5297250000000  0.4604910000000 1.0
C      1  0.4893220000000  0.4756590000000  0.5214810000000 1.0
C      1  0.5836530000000  0.5300110000000  0.4400850000000 1.0
C      1  0.5333500000000  0.4923730000000  0.5427060000000 1.0
C      1  0.5871050000000  0.5383310000000  0.4679270000000 1.0
C      1  0.4747040000000  0.5746410000000  0.5706570000000 1.0
C      1  0.4758300000000  0.5193650000000  0.5364620000000 1.0
C      1  0.4974420000000  0.5632960000000  0.5099780000000 1.0
C      1  0.5633500000000  0.4950440000000  0.5074750000000 1.0
C      1  0.4418730000000  0.5193740000000  0.5000520000000 1.0
C      1  0.4311510000000  0.5761590000000  0.4670970000000 1.0
C      1  0.5008540000000  0.4787040000000  0.4803150000000 1.0
C      1  0.5552460000000  0.5785940000000  0.4802360000000 1.0
C      1  0.5832020000000  0.5050520000000  0.4257780000000 1.0
C      1  0.6107730000000  0.5118330000000  0.5053970000000 1.0
C      1  0.5486260000000  0.4995860000000  0.4824900000000 1.0
C      1  0.5232400000000  0.6055180000000  0.5050360000000 1.0
C      1  0.4781970000000  0.5387890000000  0.6060050000000 1.0
C      1  0.5585000000000  0.5514340000000  0.4674850000000 1.0
C      1  0.4481440000000  0.4982640000000  0.5954500000000 1.0
C      1  0.5334990000000  0.5916810000000  0.5288970000000 1.0
C      1  0.5289250000000  0.4130750000000  0.4629040000000 1.0
C      1  0.5231260000000  0.4819670000000  0.6028730000000 1.0
C      1  0.4593540000000  0.3894520000000  0.4824970000000 1.0
C      1  0.5294570000000  0.4699360000000  0.4513730000000 1.0
C      1  0.5140790000000  0.5529690000000  0.4178820000000 1.0
C      1  0.4909150000000  0.5876320000000  0.5509080000000 1.0
C      1  0.4898660000000  0.3949920000000  0.5215860000000 1.0
C      1  0.5748620000000  0.4710820000000  0.5220290000000 1.0
C      1  0.4524420000000  0.4563480000000  0.5756040000000 1.0
C      1  0.5373370000000  0.4556420000000  0.4789230000000 1.0
C      1  0.5579490000000  0.5637380000000  0.5722110000000 1.0
C      1  0.4877660000000  0.5625800000000  0.5929020000000 1.0
C      1  0.5666000000000  0.4909690000000  0.5749700000000 1.0
C      1  0.4348230000000  0.4313770000000  0.4754550000000 1.0
C      1  0.5912430000000  0.5567410000000  0.5098010000000 1.0
C      1  0.4268180000000  0.5463820000000  0.4980880000000 1.0
C      1  0.4529720000000  0.5813140000000  0.5171780000000 1.0
C      1  0.5161950000000  0.5630930000000  0.5952340000000 1.0
C      1  0.5027160000000  0.5133450000000  0.4468050000000 1.0
C      1  0.5184450000000  0.4734680000000  0.3927250000000 1.0
C      1  0.4475160000000  0.5684630000000  0.4914100000000 1.0
C      1  0.5174370000000  0.3911050000000  0.5142630000000 1.0
C      1  0.5214380000000  0.4219020000000  0.5159710000000 1.0
C      1  0.4432510000000  0.4073120000000  0.5192560000000 1.0
C      1  0.5941000000000  0.4842140000000  0.4400890000000 1.0
C      1  0.4784860000000  0.4901330000000  0.4957580000000 1.0
C      1  0.5682070000000  0.4500080000000  0.4775410000000 1.0
C      1  0.5452570000000  0.4272510000000  0.5328940000000 1.0
C      1  0.4144570000000  0.5536760000000  0.4703610000000 1.0
C      1  0.4680980000000  0.5564960000000  0.4114620000000 1.0
C      1  0.5426350000000  0.4450280000000  0.5546120000000 1.0
C      1  0.5188550000000  0.5904660000000  0.5548130000000 1.0
C      1  0.4626990000000  0.4358460000000  0.5601630000000 1.0
C      1  0.4652160000000  0.5302360000000  0.4007170000000 1.0
C      1  0.4741580000000  0.4895620000000  0.5427630000000 1.0
C      1  0.5180610000000  0.4794720000000  0.5214830000000 1.0
C      1  0.4022430000000  0.4904620000000  0.5119640000000 1.0
C      1  0.6004940000000  0.4870650000000  0.5175790000000 1.0
C      1  0.4891430000000  0.5153800000000  0.3965120000000 1.0
C      1  0.4895080000000  0.4853410000000  0.5705230000000 1.0
C      1  0.5666450000000  0.4429310000000  0.4364150000000 1.0
C      1  0.5215660000000  0.4327060000000  0.4166200000000 1.0
C      1  0.5111320000000  0.5226970000000  0.4154730000000 1.0
C      1  0.5518080000000  0.4880580000000  0.4551830000000 1.0
C      1  0.5197850000000  0.4324300000000  0.4857150000000 1.0
C      1  0.5727330000000  0.5704870000000  0.5492360000000 1.0
C      1  0.4815060000000  0.5866020000000  0.5213890000000 1.0
C      1  0.5217080000000  0.5408250000000  0.5322210000000 1.0
C      1  0.4376050000000  0.4577390000000  0.4894810000000 1.0
C      1  0.4498940000000  0.5607890000000  0.5625620000000 1.0
C      1  0.4875380000000  0.4116030000000  0.4468360000000 1.0
C      1  0.5762520000000  0.4461230000000  0.5057540000000 1.0
C      1  0.4142070000000  0.4597460000000  0.4382050000000 1.0
C      1  0.4956160000000  0.6018210000000  0.4989770000000 1.0
C      1  0.4200690000000  0.5217050000000  0.5688680000000 1.0
C      1  0.5111250000000  0.5298720000000  0.4722500000000 1.0
C      1  0.4421170000000  0.5074260000000  0.4729950000000 1.0
C      1  0.5543980000000  0.4035890000000  0.4702870000000 1.0
C      1  0.5572810000000  0.4719770000000  0.5516370000000 1.0
C      1  0.5758180000000  0.4674200000000  0.4522220000000 1.0
C      1  0.5469860000000  0.4474320000000  0.4167560000000 1.0
C      1  0.4530190000000  0.5345630000000  0.5468720000000 1.0
C      1  0.4307070000000  0.4702470000000  0.5606820000000 1.0
C      1  0.4922740000000  0.4467440000000  0.4835600000000 1.0
C      1  0.6103700000000  0.5086750000000  0.5325580000000 1.0
C      1  0.4895330000000  0.5408700000000  0.4913260000000 1.0
C      1  0.5156430000000  0.4441460000000  0.5674260000000 1.0
C      1  0.4266720000000  0.4949680000000  0.5772230000000 1.0
C      1  0.4025310000000  0.4632130000000  0.5206210000000 1.0
C      1  0.5126950000000  0.5052710000000  0.5616650000000 1.0
C      1  0.5971670000000  0.5267710000000  0.5501750000000 1.0
C      1  0.4366420000000  0.5414510000000  0.5822960000000 1.0
C      1  0.4751010000000  0.5188900000000  0.4433960000000 1.0
C      1  0.5423250000000  0.5476460000000  0.4167160000000 1.0
C      1  0.4120390000000  0.5052460000000  0.4607370000000 1.0
C      1  0.4162360000000  0.4510310000000  0.5425580000000 1.0
C      1  0.4802730000000  0.4479420000000  0.5119310000000 1.0
C      1  0.5038870000000  0.4497430000000  0.4017780000000 1.0
C      1  0.4729070000000  0.4693430000000  0.4486940000000 1.0
C      1  0.4765230000000  0.4393380000000  0.4566970000000 1.0
C      1  0.4937040000000  0.4245520000000  0.5284090000000 1.0
C      1  0.5086660000000  0.4657580000000  0.5833690000000 1.0
C      1  0.5147670000000  0.4147050000000  0.4384400000000 1.0
C      1  0.4489710000000  0.5800420000000  0.4459720000000 1.0
C      1  0.4279350000000  0.5030210000000  0.5217190000000 1.0
C      1  0.4670520000000  0.4773710000000  0.5897500000000 1.0
C      1  0.5322090000000  0.5761990000000  0.5761430000000 1.0
C      1  0.5025130000000  0.4831830000000  0.4517060000000 1.0
C      1  0.4375190000000  0.4479000000000  0.4305120000000 1.0
C      1  0.5651160000000  0.4264740000000  0.4591530000000 1.0
C      1  0.4473380000000  0.4317540000000  0.4509780000000 1.0
C      1  0.4160340000000  0.4872900000000  0.4370400000000 1.0
C      1  0.5387730000000  0.5321530000000  0.5122510000000 1.0
C      1  0.5235680000000  0.5642970000000  0.5180870000000 1.0
C      1  0.4394260000000  0.5197550000000  0.4097880000000 1.0
C      1  0.5046630000000  0.4972150000000  0.6166550000000 1.0
C      1  0.4105260000000  0.5343720000000  0.4504610000000 1.0
C      1  0.5388060000000  0.5287610000000  0.4822750000000 1.0
C      1  0.4929570000000  0.4882390000000  0.3905520000000 1.0
C      1  0.4911010000000  0.4312910000000  0.5564660000000 1.0
C      1  0.5622990000000  0.5869910000000  0.5287600000000 1.0
C      1  0.5662600000000  0.4211160000000  0.5151070000000 1.0
C      1  0.4242290000000  0.5260240000000  0.5406610000000 1.0
C      1  0.4439580000000  0.5629300000000  0.4248730000000 1.0
C      1  0.4460850000000  0.4802580000000  0.5344960000000 1.0
C      1  0.4535700000000  0.5266790000000  0.5996450000000 1.0
C      1  0.5016150000000  0.5923370000000  0.4710300000000 1.0
C      1  0.5025660000000  0.5273280000000  0.5475590000000 1.0
C      1  0.5277520000000  0.4794730000000  0.4942920000000 1.0
C      1  0.5309810000000  0.5943080000000  0.4793110000000 1.0
C      1  0.5578010000000  0.4990150000000  0.4096110000000 1.0
C      1  0.5575840000000  0.3991530000000  0.4976880000000 1.0
C      1  0.4367350000000  0.4927780000000  0.4178880000000 1.0
C      1  0.4415610000000  0.4321040000000  0.5363060000000 1.0
C      1  0.5475900000000  0.4963160000000  0.5963300000000 1.0
C      1  0.5645180000000  0.5378990000000  0.5833310000000 1.0
C      1  0.5793710000000  0.5172220000000  0.5702880000000 1.0
C      1  0.4562820000000  0.4801400000000  0.4754420000000 1.0
C      1  0.4646340000000  0.3877640000000  0.5123910000000 1.0
C      1  0.5245740000000  0.5391950000000  0.6087250000000 1.0
C      1  0.6008280000000  0.5359290000000  0.4921830000000 1.0
C      1  0.5500620000000  0.5114940000000  0.5268950000000 1.0
C      1  0.4569290000000  0.4697220000000  0.4211390000000 1.0
C      1  0.4364460000000  0.5710900000000  0.5380500000000 1.0
C      1  0.4506070000000  0.4543620000000  0.5170180000000 1.0
C      1  0.5444810000000  0.4739440000000  0.4039730000000 1.0
C      1  0.4086790000000  0.4644560000000  0.4921330000000 1.0
END
