TITL C-109508-6403-6 515.614927749942 125000 -792.197734953097 0 0 114 (C2) n - 1
REM
REM in /rds/project/t2_vol4/rds-t2-cs072/BORA/CARBON/from-Arr/AIRSS/Generating-Clusters/GAP-ML-2020/Higher-Symm/SD-CG/HFTN-CG
REM
REM
REM
REM
REM
REM ./C.cell (b20cbc046b6831c77cfcea5457e17084)
REM AIRSS Version 0.9.1 bugfix July 2018 build 013d7b7c2542+ Fri, 06 Jul 2018 19:26:36 +0100
REM compiler GCC version 9.3.0
REM options -cpp -mtune=generic -march=x86-64 -g -O0
REM seed -1701765534 91591994 1515445904 -99587571 -1855893202 1480809150 1988173666 1548956549 -577772093 24958585 519023566 2041925787 -1752375625 -70799192 1105342772 -1832740055 -1641874453 -1211400707 733070848 -167771724 -724984415 -2021073496 195618901 219402729 -923918611 1509659886 -216271017 2126596058 -1290706091 -1758586217 -1400403090 1568740975 -595143435
REM
CELL 1.54180   50.00000   50.00000   50.00000   90.00000   90.00000   90.00000
LATT -1
SFAC C  
C      1  0.5302280000000  0.5426900000000  0.5824770000000 1.0
C      1  0.4697370000000  0.5426190000000  0.4174990000000 1.0
C      1  0.5302090000000  0.4620620000000  0.4181640000000 1.0
C      1  0.4698220000000  0.4620830000000  0.5818580000000 1.0
C      1  0.4353450000000  0.5411450000000  0.5510820000000 1.0
C      1  0.5646210000000  0.5411690000000  0.4488950000000 1.0
C      1  0.4829160000000  0.5016470000000  0.5566160000000 1.0
C      1  0.5170830000000  0.5016290000000  0.4433830000000 1.0
C      1  0.5008340000000  0.5909640000000  0.5322210000000 1.0
C      1  0.4990910000000  0.5909450000000  0.4677290000000 1.0
C      1  0.5207020000000  0.4116110000000  0.5218760000000 1.0
C      1  0.4793710000000  0.4115820000000  0.4781730000000 1.0
C      1  0.4804970000000  0.4861470000000  0.5942010000000 1.0
C      1  0.5195140000000  0.4861100000000  0.4058060000000 1.0
C      1  0.4349480000000  0.5577490000000  0.4707370000000 1.0
C      1  0.5650050000000  0.5578190000000  0.5292310000000 1.0
C      1  0.4899160000000  0.5647620000000  0.5236490000000 1.0
C      1  0.5100310000000  0.5647570000000  0.4763140000000 1.0
C      1  0.5142340000000  0.4596580000000  0.5603400000000 1.0
C      1  0.4857990000000  0.4596120000000  0.4396830000000 1.0
C      1  0.4808020000000  0.4859500000000  0.4257800000000 1.0
C      1  0.5192090000000  0.4860070000000  0.5742280000000 1.0
C      1  0.4249550000000  0.4609870000000  0.5210120000000 1.0
C      1  0.5750770000000  0.4610360000000  0.4790090000000 1.0
C      1  0.5289320000000  0.5242830000000  0.5377820000000 1.0
C      1  0.4710490000000  0.5242380000000  0.4622040000000 1.0
C      1  0.4443220000000  0.5276140000000  0.4256650000000 1.0
C      1  0.5556550000000  0.5277010000000  0.5743200000000 1.0
C      1  0.4394630000000  0.5562880000000  0.5000850000000 1.0
C      1  0.5604910000000  0.5563370000000  0.4998840000000 1.0
C      1  0.5399310000000  0.4452910000000  0.5574780000000 1.0
C      1  0.4601140000000  0.4452260000000  0.4425530000000 1.0
C      1  0.5007430000000  0.6106030000000  0.5127980000000 1.0
C      1  0.4991660000000  0.6105950000000  0.4871410000000 1.0
C      1  0.5163400000000  0.5465740000000  0.5175190000000 1.0
C      1  0.4836220000000  0.5465510000000  0.4824560000000 1.0
C      1  0.4678980000000  0.5676140000000  0.4312300000000 1.0
C      1  0.5320470000000  0.5676780000000  0.5687320000000 1.0
C      1  0.4735830000000  0.4107680000000  0.5065480000000 1.0
C      1  0.5264900000000  0.4107860000000  0.4935010000000 1.0
C      1  0.5254000000000  0.5342070000000  0.4155150000000 1.0
C      1  0.4745720000000  0.5342340000000  0.5844650000000 1.0
C      1  0.5593780000000  0.5338960000000  0.5444760000000 1.0
C      1  0.4405960000000  0.5338230000000  0.4555060000000 1.0
C      1  0.4358610000000  0.4387790000000  0.4743820000000 1.0
C      1  0.5641890000000  0.4388460000000  0.5256520000000 1.0
C      1  0.4789100000000  0.4248600000000  0.5510450000000 1.0
C      1  0.5211510000000  0.4248490000000  0.4489970000000 1.0
C      1  0.4277640000000  0.5400100000000  0.5210690000000 1.0
C      1  0.5722030000000  0.5400570000000  0.4789080000000 1.0
C      1  0.5634940000000  0.4592650000000  0.5468630000000 1.0
C      1  0.4365390000000  0.4591870000000  0.4531600000000 1.0
C      1  0.4490310000000  0.4212660000000  0.5161260000000 1.0
C      1  0.5510340000000  0.4212980000000  0.4839190000000 1.0
C      1  0.5639700000000  0.4950060000000  0.5139110000000 1.0
C      1  0.4360340000000  0.4949460000000  0.4860920000000 1.0
C      1  0.4682520000000  0.5627200000000  0.5021450000000 1.0
C      1  0.5316960000000  0.5627450000000  0.4978200000000 1.0
C      1  0.4588830000000  0.4245350000000  0.4632910000000 1.0
C      1  0.5411790000000  0.4245890000000  0.5367520000000 1.0
C      1  0.5292020000000  0.4952940000000  0.4667280000000 1.0
C      1  0.4708020000000  0.4952890000000  0.5332740000000 1.0
C      1  0.4639670000000  0.5073110000000  0.5831700000000 1.0
C      1  0.5360270000000  0.5072930000000  0.4168260000000 1.0
C      1  0.5703530000000  0.4866810000000  0.5420790000000 1.0
C      1  0.4296580000000  0.4866000000000  0.4579290000000 1.0
C      1  0.5075020000000  0.4124610000000  0.4715040000000 1.0
C      1  0.4925700000000  0.4124710000000  0.5285450000000 1.0
C      1  0.5144750000000  0.5216080000000  0.5006340000000 1.0
C      1  0.4855070000000  0.5215960000000  0.4993530000000 1.0
C      1  0.4516580000000  0.4291100000000  0.5431840000000 1.0
C      1  0.5484000000000  0.4291250000000  0.4568560000000 1.0
C      1  0.4766960000000  0.5858710000000  0.4502670000000 1.0
C      1  0.5232340000000  0.5859180000000  0.5496850000000 1.0
C      1  0.5058650000000  0.4965560000000  0.5972030000000 1.0
C      1  0.4941370000000  0.4964960000000  0.4027990000000 1.0
C      1  0.4357460000000  0.4525970000000  0.5475860000000 1.0
C      1  0.5642920000000  0.4526220000000  0.4524400000000 1.0
C      1  0.4251030000000  0.5144230000000  0.5551420000000 1.0
C      1  0.5748850000000  0.5144530000000  0.4448500000000 1.0
C      1  0.5263020000000  0.5218150000000  0.4747740000000 1.0
C      1  0.4736800000000  0.5218070000000  0.5252130000000 1.0
C      1  0.5617640000000  0.4968250000000  0.4272260000000 1.0
C      1  0.4382390000000  0.4968160000000  0.5727750000000 1.0
C      1  0.5339610000000  0.5024850000000  0.5160880000000 1.0
C      1  0.4660370000000  0.5024480000000  0.4839110000000 1.0
C      1  0.4180060000000  0.5124000000000  0.5262890000000 1.0
C      1  0.5819840000000  0.5124520000000  0.4737040000000 1.0
C      1  0.4436500000000  0.4686570000000  0.5694740000000 1.0
C      1  0.5563750000000  0.4686640000000  0.4305440000000 1.0
C      1  0.4812450000000  0.4738800000000  0.5188200000000 1.0
C      1  0.5187760000000  0.4738840000000  0.4811950000000 1.0
C      1  0.4514130000000  0.5749880000000  0.4544970000000 1.0
C      1  0.5485260000000  0.5750540000000  0.5454610000000 1.0
C      1  0.5235620000000  0.4758350000000  0.5093600000000 1.0
C      1  0.4764580000000  0.4758110000000  0.4906530000000 1.0
C      1  0.4598640000000  0.5489840000000  0.5636690000000 1.0
C      1  0.5400960000000  0.5489800000000  0.4363030000000 1.0
C      1  0.4743430000000  0.5477370000000  0.5392830000000 1.0
C      1  0.5256180000000  0.5477360000000  0.4606890000000 1.0
C      1  0.4948030000000  0.5268900000000  0.4144850000000 1.0
C      1  0.5051750000000  0.5269430000000  0.5855000000000 1.0
C      1  0.4892780000000  0.5114840000000  0.4407610000000 1.0
C      1  0.5107120000000  0.5115260000000  0.5592320000000 1.0
C      1  0.4887660000000  0.4451010000000  0.5687630000000 1.0
C      1  0.5112790000000  0.4450720000000  0.4312680000000 1.0
C      1  0.5681200000000  0.4396280000000  0.4976420000000 1.0
C      1  0.4319290000000  0.4395730000000  0.5023920000000 1.0
C      1  0.4303360000000  0.5094250000000  0.4411560000000 1.0
C      1  0.5696560000000  0.5095150000000  0.5588390000000 1.0
C      1  0.5778120000000  0.4884630000000  0.4888810000000 1.0
C      1  0.4221970000000  0.4884050000000  0.5111250000000 1.0
C      1  0.4937970000000  0.4644570000000  0.4722530000000 1.0
C      1  0.5062330000000  0.4644790000000  0.5277670000000 1.0
END
