TITL C-102471-7358-3 -8.44296460716237 125000 -521.533854468567 0 0 77 (C1) n - 1
REM
REM in /rds/project/t2_vol4/rds-t2-cs072/BORA/CARBON/from-Arr/AIRSS/Generating-Clusters/GAP-ML-2020/Higher-Symm/SD-CG/HFTN-CG
REM
REM
REM
REM
REM
REM ./C.cell (b20cbc046b6831c77cfcea5457e17084)
REM AIRSS Version 0.9.1 bugfix July 2018 build 013d7b7c2542+ Fri, 06 Jul 2018 19:26:36 +0100
REM compiler GCC version 9.3.0
REM options -cpp -mtune=generic -march=x86-64 -g -O0
REM seed -419124727 -162166017 120008690 1588557097 584718476 810865975 -1307692789 14275810 -1895159283 1270255030 -1374316769 1397098977 -672307395 804786399 -202034084 -285175119 879669774 -596469513 -1120563935 -459888812 620081605 266044156 -411714824 529932981 796686484 -61276154 -15834619 -1716926880 -1677949032 1553283187 2044547603 -2082067634 -1442496121
REM
CELL 1.54180   50.00000   50.00000   50.00000   90.00000   90.00000   90.00000
LATT -1
SFAC C  
C      1  0.4697960000000  0.4372280000000  0.4705340000000 1.0
C      1  0.4705730000000  0.5471360000000  0.4690690000000 1.0
C      1  0.5685130000000  0.4999220000000  0.4637720000000 1.0
C      1  0.4673440000000  0.4411510000000  0.5306380000000 1.0
C      1  0.4612800000000  0.5620130000000  0.5325350000000 1.0
C      1  0.5701530000000  0.5026950000000  0.5344420000000 1.0
C      1  0.5350930000000  0.4584840000000  0.5520220000000 1.0
C      1  0.4407180000000  0.4927630000000  0.5521560000000 1.0
C      1  0.5194100000000  0.5579510000000  0.5443130000000 1.0
C      1  0.5372580000000  0.4572710000000  0.4490720000000 1.0
C      1  0.4407840000000  0.4832990000000  0.4459290000000 1.0
C      1  0.5222450000000  0.5537510000000  0.4453320000000 1.0
C      1  0.4609870000000  0.5368340000000  0.5468880000000 1.0
C      1  0.5490570000000  0.5180750000000  0.5462400000000 1.0
C      1  0.4872160000000  0.4482570000000  0.5522960000000 1.0
C      1  0.4627720000000  0.5266780000000  0.4492770000000 1.0
C      1  0.5474560000000  0.5102580000000  0.4466030000000 1.0
C      1  0.4892320000000  0.4439290000000  0.4479190000000 1.0
C      1  0.4568420000000  0.4718320000000  0.4281410000000 1.0
C      1  0.5035240000000  0.5404840000000  0.4304600000000 1.0
C      1  0.5417990000000  0.4671340000000  0.4243710000000 1.0
C      1  0.4574940000000  0.4811130000000  0.5695860000000 1.0
C      1  0.5032940000000  0.5487810000000  0.5640700000000 1.0
C      1  0.5381210000000  0.4778080000000  0.5703080000000 1.0
C      1  0.5299060000000  0.4918530000000  0.4310500000000 1.0
C      1  0.4839890000000  0.4684160000000  0.4328110000000 1.0
C      1  0.4867780000000  0.5191010000000  0.4323570000000 1.0
C      1  0.5298130000000  0.5028190000000  0.5631330000000 1.0
C      1  0.4833720000000  0.4753730000000  0.5634100000000 1.0
C      1  0.4850060000000  0.5286890000000  0.5618070000000 1.0
C      1  0.5362110000000  0.4383900000000  0.5150350000000 1.0
C      1  0.4303230000000  0.5035090000000  0.5125550000000 1.0
C      1  0.5297440000000  0.5771910000000  0.5037900000000 1.0
C      1  0.5368660000000  0.4388110000000  0.4867770000000 1.0
C      1  0.4308970000000  0.4993490000000  0.4838610000000 1.0
C      1  0.5292360000000  0.5910170000000  0.4797840000000 1.0
C      1  0.5142860000000  0.4449940000000  0.4653030000000 1.0
C      1  0.4418070000000  0.5100420000000  0.4578840000000 1.0
C      1  0.5430330000000  0.5370780000000  0.4559930000000 1.0
C      1  0.5129910000000  0.4462540000000  0.5352940000000 1.0
C      1  0.4422420000000  0.5177630000000  0.5369230000000 1.0
C      1  0.5420360000000  0.5429290000000  0.5334340000000 1.0
C      1  0.4313020000000  0.4724820000000  0.4711660000000 1.0
C      1  0.5135860000000  0.5766670000000  0.4616660000000 1.0
C      1  0.5558090000000  0.4528970000000  0.4706850000000 1.0
C      1  0.4292880000000  0.4791020000000  0.5291720000000 1.0
C      1  0.5100090000000  0.5766460000000  0.5246310000000 1.0
C      1  0.5548800000000  0.4524700000000  0.5319180000000 1.0
C      1  0.5736560000000  0.5193790000000  0.4841850000000 1.0
C      1  0.4686380000000  0.4117180000000  0.4868500000000 1.0
C      1  0.4523890000000  0.5630990000000  0.4880890000000 1.0
C      1  0.5823480000000  0.5078380000000  0.5081910000000 1.0
C      1  0.4587940000000  0.4180210000000  0.5113580000000 1.0
C      1  0.4414420000000  0.5589160000000  0.5127940000000 1.0
C      1  0.4398410000000  0.4536990000000  0.5259090000000 1.0
C      1  0.4822350000000  0.5783330000000  0.5194260000000 1.0
C      1  0.5731480000000  0.4732710000000  0.5287250000000 1.0
C      1  0.4416270000000  0.4472380000000  0.4774330000000 1.0
C      1  0.4860020000000  0.5736900000000  0.4677290000000 1.0
C      1  0.5731500000000  0.4742720000000  0.4765310000000 1.0
C      1  0.5005250000000  0.5036580000000  0.4769350000000 1.0
C      1  0.5256960000000  0.4933100000000  0.4870650000000 1.0
C      1  0.4822530000000  0.4832870000000  0.4849960000000 1.0
C      1  0.5001800000000  0.5028810000000  0.5257100000000 1.0
C      1  0.5263830000000  0.4911940000000  0.5130090000000 1.0
C      1  0.4814350000000  0.4837200000000  0.5141990000000 1.0
C      1  0.5561620000000  0.5412180000000  0.4820160000000 1.0
C      1  0.4914720000000  0.4548030000000  0.4844100000000 1.0
C      1  0.4915840000000  0.5291930000000  0.4867060000000 1.0
C      1  0.5468300000000  0.5537850000000  0.5067790000000 1.0
C      1  0.4908780000000  0.4550480000000  0.5152750000000 1.0
C      1  0.4928080000000  0.5286150000000  0.5136630000000 1.0
C      1  0.5837780000000  0.4790560000000  0.5024000000000 1.0
C      1  0.4362280000000  0.4367410000000  0.5032080000000 1.0
C      1  0.4736270000000  0.5827360000000  0.4924740000000 1.0
C      1  0.5002530000000  0.4925490000000  0.4290760000000 1.0
C      1  0.4994200000000  0.5017240000000  0.5566240000000 1.0
END
