TITL C-100735-6386-7 -0.00624615699385853 125000 -29.7959810064956 0 0 5 (D(inf)h) n - 1
REM
REM in /rds/project/t2_vol4/rds-t2-cs072/BORA/CARBON/from-Arr/AIRSS/Generating-Clusters/GAP-ML-2020/Higher-Symm/SD-CG/HFTN-CG
REM
REM
REM
REM
REM
REM ./C.cell (b20cbc046b6831c77cfcea5457e17084)
REM AIRSS Version 0.9.1 bugfix July 2018 build 013d7b7c2542+ Fri, 06 Jul 2018 19:26:36 +0100
REM compiler GCC version 9.3.0
REM options -cpp -mtune=generic -march=x86-64 -g -O0
REM seed -952728801 -1690989733 491496400 1141279398 1283297228 -1234186144 -1826496441 -297764501 1163374213 786585590 871446110 -1763993877 1173257036 -913343116 58920776 -2107906766 -1805994875 -2054567249 2052319123 618170714 1191610522 1000158946 697409177 -1543710760 -1975458057 -1917429396 -1958324616 -940567474 -1362228020 -728394417 48804581 -989862175 -775801763
REM
CELL 1.54180   50.00000   50.00000   50.00000   90.00000   90.00000   90.00000
LATT -1
SFAC C  
C      1  0.4482930000000  0.5000560000000  0.5006050000000 1.0
C      1  0.4741540000000  0.5000560000000  0.5006050000000 1.0
C      1  0.5517070000000  0.5000560000000  0.5006050000000 1.0
C      1  0.5258460000000  0.5000560000000  0.5006050000000 1.0
C      1  0.5000000000000  0.5000560000000  0.5006050000000 1.0
END
