TITL C-101417-5356-3 -0.203952126959502 125000 -776.189386662379 0 0 110 (C1) n - 1
REM
REM in /rds/project/t2_vol4/rds-t2-cs072/BORA/CARBON/from-Arr/AIRSS/Generating-Clusters/GAP-ML-2020/Higher-Symm/SD-CG/HFTN-CG
REM
REM
REM
REM
REM
REM ./C.cell (b20cbc046b6831c77cfcea5457e17084)
REM AIRSS Version 0.9.1 bugfix July 2018 build 013d7b7c2542+ Fri, 06 Jul 2018 19:26:36 +0100
REM compiler GCC version 9.3.0
REM options -cpp -mtune=generic -march=x86-64 -g -O0
REM seed -1734898493 -444300688 -1803978783 2077577381 -156853809 1014340569 1195856193 -829600724 2022837983 837922321 1637378193 271551543 757468109 -937163709 823512752 -1987314378 1782827868 2113277207 1517255141 1874516125 2099838419 -414613579 1016017612 1085120834 -929211421 -278968062 1778602895 -66078390 291203673 2101937064 1690572940 -1202824129 -2050009153
REM
CELL 1.54180   50.00000   50.00000   50.00000   90.00000   90.00000   90.00000
LATT -1
SFAC C  
C      1  0.5598620000000  0.5070120000000  0.5588520000000 1.0
C      1  0.5621760000000  0.4589380000000  0.5461410000000 1.0
C      1  0.4403350000000  0.4815470000000  0.5670760000000 1.0
C      1  0.5214130000000  0.5147290000000  0.5837470000000 1.0
C      1  0.4832540000000  0.4851560000000  0.5866530000000 1.0
C      1  0.5707820000000  0.5511250000000  0.5007850000000 1.0
C      1  0.4910930000000  0.5276010000000  0.4696760000000 1.0
C      1  0.4173510000000  0.4688270000000  0.5256450000000 1.0
C      1  0.4519950000000  0.5224760000000  0.4302760000000 1.0
C      1  0.5225500000000  0.4943360000000  0.4761280000000 1.0
C      1  0.4970350000000  0.4631330000000  0.5487660000000 1.0
C      1  0.5099730000000  0.5865540000000  0.4766630000000 1.0
C      1  0.5096910000000  0.5717540000000  0.4542140000000 1.0
C      1  0.4688400000000  0.4771640000000  0.5134110000000 1.0
C      1  0.4545250000000  0.4944970000000  0.4396480000000 1.0
C      1  0.5733760000000  0.4558310000000  0.4977700000000 1.0
C      1  0.4779900000000  0.4985910000000  0.4651400000000 1.0
C      1  0.4210680000000  0.5538790000000  0.4850320000000 1.0
C      1  0.5199080000000  0.4866720000000  0.5091030000000 1.0
C      1  0.5095050000000  0.4581510000000  0.5043880000000 1.0
C      1  0.4958440000000  0.4118710000000  0.5346690000000 1.0
C      1  0.5034900000000  0.4926610000000  0.5379890000000 1.0
C      1  0.5121890000000  0.4889340000000  0.5894730000000 1.0
C      1  0.5593810000000  0.4973310000000  0.4230420000000 1.0
C      1  0.4903630000000  0.5638370000000  0.5540560000000 1.0
C      1  0.5171460000000  0.4775350000000  0.4091780000000 1.0
C      1  0.4761650000000  0.5366630000000  0.4257860000000 1.0
C      1  0.4734390000000  0.4278910000000  0.5324430000000 1.0
C      1  0.4144550000000  0.4830100000000  0.5024010000000 1.0
C      1  0.4867990000000  0.5373280000000  0.5622160000000 1.0
C      1  0.4601600000000  0.5686710000000  0.4642330000000 1.0
C      1  0.5422080000000  0.5575740000000  0.5112570000000 1.0
C      1  0.4170270000000  0.5143390000000  0.4598760000000 1.0
C      1  0.4519590000000  0.4560980000000  0.5636300000000 1.0
C      1  0.4939660000000  0.4164170000000  0.4836880000000 1.0
C      1  0.5415840000000  0.4370220000000  0.4639230000000 1.0
C      1  0.5873010000000  0.4904620000000  0.5178560000000 1.0
C      1  0.5843180000000  0.4818950000000  0.4891540000000 1.0
C      1  0.4481680000000  0.4369500000000  0.5420630000000 1.0
C      1  0.4600320000000  0.5005860000000  0.5780790000000 1.0
C      1  0.5423210000000  0.4386860000000  0.5400630000000 1.0
C      1  0.5214040000000  0.5220810000000  0.4721980000000 1.0
C      1  0.5040110000000  0.4394370000000  0.4345830000000 1.0
C      1  0.4791040000000  0.4993680000000  0.5255580000000 1.0
C      1  0.5233550000000  0.5237290000000  0.4121960000000 1.0
C      1  0.4773240000000  0.5866990000000  0.5118210000000 1.0
C      1  0.4834860000000  0.5542150000000  0.4506180000000 1.0
C      1  0.5741120000000  0.5473260000000  0.4726240000000 1.0
C      1  0.4987100000000  0.4553560000000  0.4750590000000 1.0
C      1  0.5300050000000  0.4697670000000  0.5769850000000 1.0
C      1  0.5521590000000  0.5469400000000  0.5382480000000 1.0
C      1  0.5183430000000  0.5700410000000  0.5501820000000 1.0
C      1  0.5412110000000  0.5552190000000  0.5631320000000 1.0
C      1  0.5104440000000  0.5173470000000  0.5555090000000 1.0
C      1  0.4604100000000  0.5269720000000  0.5666670000000 1.0
C      1  0.4936500000000  0.5351070000000  0.4982570000000 1.0
C      1  0.5250940000000  0.4542580000000  0.4237310000000 1.0
C      1  0.5773850000000  0.5382100000000  0.5258290000000 1.0
C      1  0.5131200000000  0.4170690000000  0.5581790000000 1.0
C      1  0.4591380000000  0.4881150000000  0.4873530000000 1.0
C      1  0.5189240000000  0.4484670000000  0.5596420000000 1.0
C      1  0.4513290000000  0.5154040000000  0.4947160000000 1.0
C      1  0.4387560000000  0.5361160000000  0.5485470000000 1.0
C      1  0.5051940000000  0.5894090000000  0.5038530000000 1.0
C      1  0.4582490000000  0.5787400000000  0.4918260000000 1.0
C      1  0.5354980000000  0.4982140000000  0.4091430000000 1.0
C      1  0.4346410000000  0.5571660000000  0.4602000000000 1.0
C      1  0.4178710000000  0.5115210000000  0.5074120000000 1.0
C      1  0.4950150000000  0.5194980000000  0.4133590000000 1.0
C      1  0.4705630000000  0.4758640000000  0.4229660000000 1.0
C      1  0.5121580000000  0.4308450000000  0.4622860000000 1.0
C      1  0.5354040000000  0.5097630000000  0.5141810000000 1.0
C      1  0.5244140000000  0.5784980000000  0.5225980000000 1.0
C      1  0.4222680000000  0.4885890000000  0.5467900000000 1.0
C      1  0.5312680000000  0.4353650000000  0.5107630000000 1.0
C      1  0.5775940000000  0.5223400000000  0.4567600000000 1.0
C      1  0.4696480000000  0.5744380000000  0.5367230000000 1.0
C      1  0.4220440000000  0.5153620000000  0.5364280000000 1.0
C      1  0.5086720000000  0.4139330000000  0.5081200000000 1.0
C      1  0.5363760000000  0.5639140000000  0.4430440000000 1.0
C      1  0.5463000000000  0.5279880000000  0.5792330000000 1.0
C      1  0.4778920000000  0.4502970000000  0.4343080000000 1.0
C      1  0.5643040000000  0.5239520000000  0.4321310000000 1.0
C      1  0.5241810000000  0.5334540000000  0.4998600000000 1.0
C      1  0.5822450000000  0.5120140000000  0.5357310000000 1.0
C      1  0.4629600000000  0.4286630000000  0.4809060000000 1.0
C      1  0.5020550000000  0.4817380000000  0.4631890000000 1.0
C      1  0.4103460000000  0.5275750000000  0.4849240000000 1.0
C      1  0.4291510000000  0.4891040000000  0.4560470000000 1.0
C      1  0.4783780000000  0.4615960000000  0.5718110000000 1.0
C      1  0.4309200000000  0.5339550000000  0.4444090000000 1.0
C      1  0.4856240000000  0.4541460000000  0.5224860000000 1.0
C      1  0.4445460000000  0.5602100000000  0.5333600000000 1.0
C      1  0.5482630000000  0.4541630000000  0.4416010000000 1.0
C      1  0.5798510000000  0.4934320000000  0.4633710000000 1.0
C      1  0.5589850000000  0.5653430000000  0.4580970000000 1.0
C      1  0.4705820000000  0.4468180000000  0.4614500000000 1.0
C      1  0.5538780000000  0.4789070000000  0.5645560000000 1.0
C      1  0.4314030000000  0.4442820000000  0.5201720000000 1.0
C      1  0.5523140000000  0.4384800000000  0.4900840000000 1.0
C      1  0.5397790000000  0.4122960000000  0.5547460000000 1.0
C      1  0.5661430000000  0.4775940000000  0.4421320000000 1.0
C      1  0.4313260000000  0.4720000000000  0.4808570000000 1.0
C      1  0.5418870000000  0.5408960000000  0.4259790000000 1.0
C      1  0.4913470000000  0.4901600000000  0.4104860000000 1.0
C      1  0.5376300000000  0.5197710000000  0.5411260000000 1.0
C      1  0.4398910000000  0.4431740000000  0.4920040000000 1.0
C      1  0.4730440000000  0.5234930000000  0.5119420000000 1.0
C      1  0.5788680000000  0.4640070000000  0.5250580000000 1.0
C      1  0.4365190000000  0.5660560000000  0.5056750000000 1.0
END
