TITL C-109519-6404-4 -0.230088211000045 125000 -794.605318832181 0 0 112 (C1) n - 1
REM
REM in /rds/project/t2_vol4/rds-t2-cs072/BORA/CARBON/from-Arr/AIRSS/Generating-Clusters/GAP-ML-2020/Higher-Symm/SD-CG/HFTN-CG
REM
REM
REM
REM
REM
REM ./C.cell (b20cbc046b6831c77cfcea5457e17084)
REM AIRSS Version 0.9.1 bugfix July 2018 build 013d7b7c2542+ Fri, 06 Jul 2018 19:26:36 +0100
REM compiler GCC version 9.3.0
REM options -cpp -mtune=generic -march=x86-64 -g -O0
REM seed -1225620428 2107512892 -20378990 -577049595 2077568729 496660775 -1346625912 889567517 -1105067181 98884027 503406175 -1159885479 -646222659 -214381119 860902515 -1631642914 1567244746 -2105269348 1255586370 705189976 1026652980 -2020189181 361549997 -588772007 -1931830219 -1093235155 1131017956 -2066845385 399297427 -616295308 -1176328319 949324930 891727305
REM
CELL 1.54180   50.00000   50.00000   50.00000   90.00000   90.00000   90.00000
LATT -1
SFAC C  
C      1  0.5590060000000  0.5290670000000  0.4420000000000 1.0
C      1  0.4880690000000  0.4047520000000  0.5193520000000 1.0
C      1  0.4796410000000  0.4043340000000  0.4918540000000 1.0
C      1  0.4985870000000  0.4055210000000  0.4709560000000 1.0
C      1  0.5411220000000  0.4296670000000  0.4625490000000 1.0
C      1  0.5001580000000  0.6017090000000  0.5068730000000 1.0
C      1  0.5657420000000  0.4784930000000  0.4478620000000 1.0
C      1  0.4575860000000  0.5169660000000  0.5312110000000 1.0
C      1  0.4691410000000  0.4161660000000  0.5371550000000 1.0
C      1  0.5447240000000  0.5620720000000  0.5575550000000 1.0
C      1  0.5066110000000  0.4406730000000  0.4280740000000 1.0
C      1  0.5351520000000  0.5733090000000  0.5310130000000 1.0
C      1  0.5170620000000  0.4896930000000  0.4750760000000 1.0
C      1  0.4250920000000  0.5474980000000  0.5189290000000 1.0
C      1  0.5037830000000  0.5057630000000  0.5464170000000 1.0
C      1  0.4303000000000  0.4950730000000  0.4658500000000 1.0
C      1  0.4416640000000  0.5125490000000  0.4462550000000 1.0
C      1  0.4448220000000  0.4292850000000  0.5284180000000 1.0
C      1  0.5543750000000  0.5334760000000  0.5511900000000 1.0
C      1  0.5534120000000  0.5754760000000  0.5074720000000 1.0
C      1  0.4875260000000  0.5752080000000  0.5435280000000 1.0
C      1  0.5327620000000  0.5306110000000  0.5003550000000 1.0
C      1  0.4971690000000  0.4678570000000  0.4251300000000 1.0
C      1  0.5668060000000  0.5507250000000  0.4592200000000 1.0
C      1  0.5187780000000  0.4822950000000  0.5556980000000 1.0
C      1  0.5269000000000  0.5605550000000  0.4385290000000 1.0
C      1  0.4576220000000  0.4481180000000  0.5678780000000 1.0
C      1  0.4797000000000  0.5514500000000  0.4310000000000 1.0
C      1  0.5769660000000  0.5147910000000  0.5503050000000 1.0
C      1  0.4784450000000  0.4293540000000  0.5605140000000 1.0
C      1  0.5758300000000  0.4647950000000  0.4714990000000 1.0
C      1  0.5064280000000  0.4359190000000  0.5641030000000 1.0
C      1  0.5196290000000  0.5515940000000  0.5684680000000 1.0
C      1  0.4726750000000  0.5409520000000  0.5693600000000 1.0
C      1  0.5156970000000  0.4603540000000  0.5114380000000 1.0
C      1  0.5701390000000  0.5308040000000  0.5258730000000 1.0
C      1  0.5490480000000  0.4443330000000  0.5361630000000 1.0
C      1  0.5767270000000  0.5112240000000  0.4823430000000 1.0
C      1  0.5165730000000  0.4080410000000  0.5259930000000 1.0
C      1  0.5006010000000  0.5693700000000  0.4390460000000 1.0
C      1  0.4548450000000  0.5857020000000  0.4941040000000 1.0
C      1  0.4644400000000  0.5798570000000  0.4660290000000 1.0
C      1  0.5212110000000  0.5457810000000  0.5230370000000 1.0
C      1  0.4492570000000  0.5514630000000  0.5582810000000 1.0
C      1  0.4341270000000  0.5311950000000  0.5429340000000 1.0
C      1  0.4778640000000  0.5309550000000  0.5141040000000 1.0
C      1  0.5331910000000  0.4707160000000  0.5336460000000 1.0
C      1  0.4359460000000  0.5404880000000  0.4504130000000 1.0
C      1  0.4315080000000  0.5002720000000  0.5563370000000 1.0
C      1  0.4879360000000  0.4600670000000  0.5081050000000 1.0
C      1  0.5118000000000  0.5932750000000  0.4818890000000 1.0
C      1  0.5696790000000  0.5059640000000  0.4536910000000 1.0
C      1  0.5732500000000  0.5546970000000  0.5069840000000 1.0
C      1  0.4185000000000  0.5331360000000  0.4953060000000 1.0
C      1  0.4605020000000  0.4288850000000  0.4570340000000 1.0
C      1  0.4913290000000  0.4520670000000  0.4813620000000 1.0
C      1  0.5785780000000  0.4764280000000  0.5175290000000 1.0
C      1  0.5087780000000  0.4633800000000  0.5740410000000 1.0
C      1  0.5528230000000  0.4315700000000  0.5082370000000 1.0
C      1  0.4502790000000  0.4961100000000  0.5104410000000 1.0
C      1  0.4895500000000  0.4790540000000  0.4715390000000 1.0
C      1  0.4197510000000  0.5462180000000  0.4715650000000 1.0
C      1  0.4726720000000  0.5331540000000  0.4860080000000 1.0
C      1  0.4900980000000  0.4711620000000  0.5923550000000 1.0
C      1  0.4937620000000  0.4166510000000  0.4212060000000 1.0
C      1  0.4743730000000  0.4769070000000  0.4416900000000 1.0
C      1  0.4569590000000  0.5734420000000  0.5414740000000 1.0
C      1  0.4938060000000  0.5600740000000  0.5681460000000 1.0
C      1  0.5235480000000  0.5289230000000  0.5486530000000 1.0
C      1  0.5335670000000  0.5341660000000  0.4294630000000 1.0
C      1  0.5565100000000  0.4450690000000  0.4818540000000 1.0
C      1  0.4923420000000  0.5856960000000  0.4610620000000 1.0
C      1  0.5385800000000  0.5825370000000  0.4826340000000 1.0
C      1  0.5333130000000  0.4434950000000  0.4392480000000 1.0
C      1  0.5139750000000  0.5156870000000  0.4869300000000 1.0
C      1  0.5744880000000  0.4603130000000  0.5432910000000 1.0
C      1  0.5258520000000  0.4102420000000  0.4765160000000 1.0
C      1  0.4335130000000  0.4668650000000  0.4666630000000 1.0
C      1  0.4384890000000  0.4312000000000  0.5007500000000 1.0
C      1  0.4937630000000  0.5529190000000  0.5212300000000 1.0
C      1  0.4953230000000  0.5312940000000  0.4729430000000 1.0
C      1  0.4642280000000  0.4718000000000  0.5823640000000 1.0
C      1  0.4752780000000  0.5135640000000  0.5576480000000 1.0
C      1  0.5457680000000  0.5694220000000  0.4586340000000 1.0
C      1  0.5502790000000  0.4853810000000  0.5123360000000 1.0
C      1  0.4853690000000  0.4171200000000  0.4477760000000 1.0
C      1  0.4858490000000  0.5231570000000  0.4252810000000 1.0
C      1  0.4552510000000  0.4964120000000  0.5713190000000 1.0
C      1  0.5558150000000  0.5136660000000  0.5057860000000 1.0
C      1  0.5341830000000  0.4109290000000  0.5038390000000 1.0
C      1  0.4269010000000  0.5051090000000  0.4925280000000 1.0
C      1  0.4771080000000  0.4867450000000  0.5027020000000 1.0
C      1  0.5812950000000  0.4871630000000  0.5455580000000 1.0
C      1  0.4555820000000  0.4175790000000  0.4826830000000 1.0
C      1  0.5101640000000  0.5912800000000  0.5316670000000 1.0
C      1  0.4382410000000  0.4502800000000  0.5470550000000 1.0
C      1  0.5866130000000  0.4835170000000  0.4902060000000 1.0
C      1  0.5139080000000  0.5142870000000  0.4222740000000 1.0
C      1  0.5795740000000  0.5419730000000  0.4823440000000 1.0
C      1  0.4527700000000  0.4551460000000  0.4497140000000 1.0
C      1  0.4274920000000  0.4563180000000  0.4927440000000 1.0
C      1  0.4569020000000  0.5593930000000  0.4461860000000 1.0
C      1  0.4256930000000  0.4783190000000  0.5117520000000 1.0
C      1  0.4419120000000  0.5714220000000  0.5172410000000 1.0
C      1  0.4657100000000  0.5041100000000  0.4337930000000 1.0
C      1  0.4957950000000  0.5067970000000  0.5145820000000 1.0
C      1  0.5194330000000  0.4856110000000  0.4233120000000 1.0
C      1  0.5263640000000  0.4255200000000  0.5471180000000 1.0
C      1  0.4258320000000  0.4759200000000  0.5405770000000 1.0
C      1  0.4728480000000  0.6031630000000  0.5051740000000 1.0
C      1  0.5333840000000  0.4721100000000  0.4909890000000 1.0
C      1  0.5423100000000  0.4698220000000  0.4335830000000 1.0
END
