TITL C-103930-4999-2 0.0584545292741242 125000 -1225.90066657833 0 0 175 (C1) n - 1
REM
REM in /rds/project/t2_vol4/rds-t2-cs072/BORA/CARBON/from-Arr/AIRSS/Generating-Clusters/GAP-ML-2020/Higher-Symm/SD-CG/HFTN-CG/C160-200
REM
REM
REM
REM
REM
REM ./C.cell (6b4489405718ea1b717e0baf1da4c2d9)
REM AIRSS Version 0.9.1 bugfix July 2018 build 013d7b7c2542+ Fri, 06 Jul 2018 19:26:36 +0100
REM compiler GCC version 9.3.0
REM options -cpp -mtune=generic -march=x86-64 -g -O0
REM seed -570137644 -107803832 -1371675199 518851587 -470708532 -159131750 613624174 -239040019 -1013085992 1639788157 -917141615 -500583480 1705709977 -1887046711 2117440425 384650363 -68020685 -549447235 1977215820 1248659839 698354650 1573954075 811603546 2145955150 -613490065 -2087738472 783284170 -964768103 685113829 1486941933 2064311335 1910022094 898672923
REM
CELL 1.54180   50.00000   50.00000   50.00000   90.00000   90.00000   90.00000
LATT -1
SFAC C  
C      1  0.3816510000000  0.4911890000000  0.4861970000000 1.0
C      1  0.3815840000000  0.5160370000000  0.4995890000000 1.0
C      1  0.3814300000000  0.4919460000000  0.5144220000000 1.0
C      1  0.5589290000000  0.5054200000000  0.3946090000000 1.0
C      1  0.5590460000000  0.5882210000000  0.5571250000000 1.0
C      1  0.5588030000000  0.4052490000000  0.5481540000000 1.0
C      1  0.5744380000000  0.5181500000000  0.4128910000000 1.0
C      1  0.5743850000000  0.5659800000000  0.5586280000000 1.0
C      1  0.5744010000000  0.4147110000000  0.5281000000000 1.0
C      1  0.4793330000000  0.4550450000000  0.4578600000000 1.0
C      1  0.4806410000000  0.5581910000000  0.4837250000000 1.0
C      1  0.4792250000000  0.4852080000000  0.5601220000000 1.0
C      1  0.4505250000000  0.5196320000000  0.4216190000000 1.0
C      1  0.4504920000000  0.5577190000000  0.5564840000000 1.0
C      1  0.4505870000000  0.4220270000000  0.5221290000000 1.0
C      1  0.5122620000000  0.4134300000000  0.5594810000000 1.0
C      1  0.5125840000000  0.4915000000000  0.3961800000000 1.0
C      1  0.5128350000000  0.5928350000000  0.5437710000000 1.0
C      1  0.4746260000000  0.5741010000000  0.5671820000000 1.0
C      1  0.4744300000000  0.4043590000000  0.5308700000000 1.0
C      1  0.4745290000000  0.5207930000000  0.4020600000000 1.0
C      1  0.5154600000000  0.5249250000000  0.5133930000000 1.0
C      1  0.5183240000000  0.4775530000000  0.5143120000000 1.0
C      1  0.5172540000000  0.4991960000000  0.4729480000000 1.0
C      1  0.5897830000000  0.4985370000000  0.4303580000000 1.0
C      1  0.5900090000000  0.5612240000000  0.5328650000000 1.0
C      1  0.5899150000000  0.4394740000000  0.5365130000000 1.0
C      1  0.4646060000000  0.5393610000000  0.4943270000000 1.0
C      1  0.4643130000000  0.4847480000000  0.5378920000000 1.0
C      1  0.4648910000000  0.4748850000000  0.4687660000000 1.0
C      1  0.4832460000000  0.4465690000000  0.4099880000000 1.0
C      1  0.4834550000000  0.6043080000000  0.4987940000000 1.0
C      1  0.4829290000000  0.4480820000000  0.5914830000000 1.0
C      1  0.4967120000000  0.5548710000000  0.5806150000000 1.0
C      1  0.4968230000000  0.4027100000000  0.5076450000000 1.0
C      1  0.4968540000000  0.5419650000000  0.4121420000000 1.0
C      1  0.5535330000000  0.5385920000000  0.4245260000000 1.0
C      1  0.5534360000000  0.5456180000000  0.5712960000000 1.0
C      1  0.5531760000000  0.4144710000000  0.5043980000000 1.0
C      1  0.5414540000000  0.5747000000000  0.4598120000000 1.0
C      1  0.5408380000000  0.4964770000000  0.5844090000000 1.0
C      1  0.5410030000000  0.4284660000000  0.4553370000000 1.0
C      1  0.4323230000000  0.5413220000000  0.4319240000000 1.0
C      1  0.4322700000000  0.5378450000000  0.5701220000000 1.0
C      1  0.4324610000000  0.4201010000000  0.4981110000000 1.0
C      1  0.4694530000000  0.5968420000000  0.5228080000000 1.0
C      1  0.4689920000000  0.4310410000000  0.5729550000000 1.0
C      1  0.4692680000000  0.4710610000000  0.4043780000000 1.0
C      1  0.5112820000000  0.4537100000000  0.5888740000000 1.0
C      1  0.5115790000000  0.4459920000000  0.4162530000000 1.0
C      1  0.5118920000000  0.5990670000000  0.4948170000000 1.0
C      1  0.4039220000000  0.5369100000000  0.4987720000000 1.0
C      1  0.4034090000000  0.4820520000000  0.5330960000000 1.0
C      1  0.4039710000000  0.4800360000000  0.4686330000000 1.0
C      1  0.4122100000000  0.5005280000000  0.4451020000000 1.0
C      1  0.4121590000000  0.5469810000000  0.5282500000000 1.0
C      1  0.4119070000000  0.4514850000000  0.5269870000000 1.0
C      1  0.5245210000000  0.5879880000000  0.5184020000000 1.0
C      1  0.5237370000000  0.4378860000000  0.5680360000000 1.0
C      1  0.5241110000000  0.4718980000000  0.4131100000000 1.0
C      1  0.4638930000000  0.4281540000000  0.4215700000000 1.0
C      1  0.4640050000000  0.6034930000000  0.4771730000000 1.0
C      1  0.4636010000000  0.4674310000000  0.6015460000000 1.0
C      1  0.4400270000000  0.5899590000000  0.4860320000000 1.0
C      1  0.4397330000000  0.4666490000000  0.5852720000000 1.0
C      1  0.4400240000000  0.4426480000000  0.4290250000000 1.0
C      1  0.4843470000000  0.5918290000000  0.5472020000000 1.0
C      1  0.4838280000000  0.4120390000000  0.5564970000000 1.0
C      1  0.4841000000000  0.4947560000000  0.3961040000000 1.0
C      1  0.4260330000000  0.4920610000000  0.5802040000000 1.0
C      1  0.4263640000000  0.4343150000000  0.4535290000000 1.0
C      1  0.4262980000000  0.5728690000000  0.4666000000000 1.0
C      1  0.4736740000000  0.4413930000000  0.5167300000000 1.0
C      1  0.4736470000000  0.5149120000000  0.4411780000000 1.0
C      1  0.4732330000000  0.5428920000000  0.5426860000000 1.0
C      1  0.5800350000000  0.4804360000000  0.5563930000000 1.0
C      1  0.5799680000000  0.4607230000000  0.4563740000000 1.0
C      1  0.5858860000000  0.5660110000000  0.4858720000000 1.0
C      1  0.4496670000000  0.4699760000000  0.4916590000000 1.0
C      1  0.4494280000000  0.5222880000000  0.4782500000000 1.0
C      1  0.4488500000000  0.5068010000000  0.5305470000000 1.0
C      1  0.6066560000000  0.4614660000000  0.5235620000000 1.0
C      1  0.6057280000000  0.4995640000000  0.4556260000000 1.0
C      1  0.6042990000000  0.5388590000000  0.5202510000000 1.0
C      1  0.5730990000000  0.4760850000000  0.4324360000000 1.0
C      1  0.5743320000000  0.5720180000000  0.5119490000000 1.0
C      1  0.5729290000000  0.4521120000000  0.5549110000000 1.0
C      1  0.4119210000000  0.4396250000000  0.4992010000000 1.0
C      1  0.4118630000000  0.5306120000000  0.4483950000000 1.0
C      1  0.4117820000000  0.5289950000000  0.5525790000000 1.0
C      1  0.5268020000000  0.3987630000000  0.5150310000000 1.0
C      1  0.5270090000000  0.5374670000000  0.4054120000000 1.0
C      1  0.5270410000000  0.5628390000000  0.5797870000000 1.0
C      1  0.4318790000000  0.4371920000000  0.5417400000000 1.0
C      1  0.4320080000000  0.4949800000000  0.4251700000000 1.0
C      1  0.4319730000000  0.5670870000000  0.5333710000000 1.0
C      1  0.4868800000000  0.5704970000000  0.4168670000000 1.0
C      1  0.4866690000000  0.5364310000000  0.6030570000000 1.0
C      1  0.4867730000000  0.3924370000000  0.4804970000000 1.0
C      1  0.5662950000000  0.4686380000000  0.5049290000000 1.0
C      1  0.5656530000000  0.5101820000000  0.4716640000000 1.0
C      1  0.5654940000000  0.5164900000000  0.5255830000000 1.0
C      1  0.5072250000000  0.3925320000000  0.4625970000000 1.0
C      1  0.5074610000000  0.5858190000000  0.4258120000000 1.0
C      1  0.5070520000000  0.5207080000000  0.6118000000000 1.0
C      1  0.5597770000000  0.4149090000000  0.4750030000000 1.0
C      1  0.5600780000000  0.5646010000000  0.4386580000000 1.0
C      1  0.5599800000000  0.5201100000000  0.5856930000000 1.0
C      1  0.5251190000000  0.5503170000000  0.4712620000000 1.0
C      1  0.5239260000000  0.4990910000000  0.5583960000000 1.0
C      1  0.5241950000000  0.4498640000000  0.4707740000000 1.0
C      1  0.4667240000000  0.5274850000000  0.5202500000000 1.0
C      1  0.4679000000000  0.4686070000000  0.5148030000000 1.0
C      1  0.4674750000000  0.5029140000000  0.4655660000000 1.0
C      1  0.5225980000000  0.4511640000000  0.5022420000000 1.0
C      1  0.5220650000000  0.5225700000000  0.4560920000000 1.0
C      1  0.5217600000000  0.5263870000000  0.5417590000000 1.0
C      1  0.5964000000000  0.5139730000000  0.5307390000000 1.0
C      1  0.5971580000000  0.4656210000000  0.4975910000000 1.0
C      1  0.5949690000000  0.5207470000000  0.4711020000000 1.0
C      1  0.4961710000000  0.4396280000000  0.4709140000000 1.0
C      1  0.4966030000000  0.5558090000000  0.4628770000000 1.0
C      1  0.4959140000000  0.5042080000000  0.5672810000000 1.0
C      1  0.5434630000000  0.4498090000000  0.5473070000000 1.0
C      1  0.5438410000000  0.4836780000000  0.4339990000000 1.0
C      1  0.5450990000000  0.5643330000000  0.5182910000000 1.0
C      1  0.4640350000000  0.4014670000000  0.4633860000000 1.0
C      1  0.4640490000000  0.5807360000000  0.4332150000000 1.0
C      1  0.4638740000000  0.5169970000000  0.6036000000000 1.0
C      1  0.4961500000000  0.5328840000000  0.4417620000000 1.0
C      1  0.4959000000000  0.5337250000000  0.5580260000000 1.0
C      1  0.4964240000000  0.4332370000000  0.5011370000000 1.0
C      1  0.5337030000000  0.4781250000000  0.5398450000000 1.0
C      1  0.5337990000000  0.4762890000000  0.4621440000000 1.0
C      1  0.5348060000000  0.5441720000000  0.4985070000000 1.0
C      1  0.5719750000000  0.5726440000000  0.4620390000000 1.0
C      1  0.5700710000000  0.4958400000000  0.5788920000000 1.0
C      1  0.5703640000000  0.4331220000000  0.4577420000000 1.0
C      1  0.4893520000000  0.5150910000000  0.5077650000000 1.0
C      1  0.4906130000000  0.4854640000000  0.5096510000000 1.0
C      1  0.4900880000000  0.4981170000000  0.4827460000000 1.0
C      1  0.4394480000000  0.5680290000000  0.4406730000000 1.0
C      1  0.4392940000000  0.5169420000000  0.5889110000000 1.0
C      1  0.4395090000000  0.4142760000000  0.4706560000000 1.0
C      1  0.5318240000000  0.5128290000000  0.3923700000000 1.0
C      1  0.5318790000000  0.5860560000000  0.5644620000000 1.0
C      1  0.5316330000000  0.3996200000000  0.5428590000000 1.0
C      1  0.4244000000000  0.4980320000000  0.5175660000000 1.0
C      1  0.4248890000000  0.4852310000000  0.4905930000000 1.0
C      1  0.4247600000000  0.5155240000000  0.4920000000000 1.0
C      1  0.4090180000000  0.4496250000000  0.4705560000000 1.0
C      1  0.4088950000000  0.5505090000000  0.4713760000000 1.0
C      1  0.4086170000000  0.4991160000000  0.5584600000000 1.0
C      1  0.4742060000000  0.4914720000000  0.6115150000000 1.0
C      1  0.4744230000000  0.4074780000000  0.4373750000000 1.0
C      1  0.4744170000000  0.6003670000000  0.4512630000000 1.0
C      1  0.5030360000000  0.6021500000000  0.4474780000000 1.0
C      1  0.5028270000000  0.4936540000000  0.6147820000000 1.0
C      1  0.5030170000000  0.4036060000000  0.4377350000000 1.0
C      1  0.6033090000000  0.4868220000000  0.5392640000000 1.0
C      1  0.6030930000000  0.4728090000000  0.4700630000000 1.0
C      1  0.6013630000000  0.5420590000000  0.4902500000000 1.0
C      1  0.5476870000000  0.4438520000000  0.5142740000000 1.0
C      1  0.5472810000000  0.5148410000000  0.4446810000000 1.0
C      1  0.5477800000000  0.5393700000000  0.5411960000000 1.0
C      1  0.5608050000000  0.4790220000000  0.4757500000000 1.0
C      1  0.5539370000000  0.5198970000000  0.4976960000000 1.0
C      1  0.5607670000000  0.4872800000000  0.5308220000000 1.0
C      1  0.4431650000000  0.4698390000000  0.4172190000000 1.0
C      1  0.4431650000000  0.5865550000000  0.5155100000000 1.0
C      1  0.4429210000000  0.4427960000000  0.5675650000000 1.0
C      1  0.5219100000000  0.4237500000000  0.4317000000000 1.0
C      1  0.5221060000000  0.5974960000000  0.4677710000000 1.0
C      1  0.5217010000000  0.4782470000000  0.6003810000000 1.0
C      1  0.5298830000000  0.5023120000000  0.4997680000000 1.0
END
