TITL C-109520-6404-4 19.5216183011219 125000 -875.240091346941 0 0 125 (C2) n - 1
REM
REM in /rds/project/t2_vol4/rds-t2-cs072/BORA/CARBON/from-Arr/AIRSS/Generating-Clusters/GAP-ML-2020/Higher-Symm/SD-CG/HFTN-CG
REM
REM
REM
REM
REM
REM ./C.cell (b20cbc046b6831c77cfcea5457e17084)
REM AIRSS Version 0.9.1 bugfix July 2018 build 013d7b7c2542+ Fri, 06 Jul 2018 19:26:36 +0100
REM compiler GCC version 9.3.0
REM options -cpp -mtune=generic -march=x86-64 -g -O0
REM seed 587696188 -317547017 -1307055517 395915971 2127571391 791768174 -1162815069 1811195216 1744092166 525147287 77014455 221245475 -705037408 -1369970782 1513029282 -502324742 -216640453 169937496 744241834 653618448 1537683757 1055684524 155015024 473871647 1192707918 -765402659 -1196129979 -854718493 -1002622220 -1257499602 742033310 1255945867 1969971334
REM
CELL 1.54180   50.00000   50.00000   50.00000   90.00000   90.00000   90.00000
LATT -1
SFAC C  
C      1  0.4565800000000  0.4205790000000  0.5427270000000 1.0
C      1  0.5427740000000  0.5449240000000  0.5764740000000 1.0
C      1  0.4565850000000  0.5786020000000  0.4570900000000 1.0
C      1  0.5427750000000  0.4542530000000  0.4233460000000 1.0
C      1  0.5057470000000  0.5718420000000  0.5622530000000 1.0
C      1  0.4956610000000  0.5652260000000  0.4281780000000 1.0
C      1  0.5057460000000  0.4273370000000  0.4375660000000 1.0
C      1  0.4956560000000  0.4339540000000  0.5716400000000 1.0
C      1  0.4371480000000  0.4842220000000  0.4402670000000 1.0
C      1  0.5587520000000  0.4471650000000  0.5146390000000 1.0
C      1  0.4371460000000  0.5149600000000  0.5595490000000 1.0
C      1  0.5587550000000  0.5520110000000  0.4851810000000 1.0
C      1  0.5906640000000  0.5158110000000  0.4872300000000 1.0
C      1  0.4116740000000  0.4877250000000  0.4828830000000 1.0
C      1  0.5906630000000  0.4833640000000  0.5125920000000 1.0
C      1  0.4116740000000  0.5114580000000  0.5169330000000 1.0
C      1  0.4240620000000  0.4708420000000  0.4637420000000 1.0
C      1  0.5768860000000  0.4658670000000  0.5297330000000 1.0
C      1  0.4240620000000  0.5283400000000  0.5360740000000 1.0
C      1  0.5768890000000  0.5333090000000  0.4700880000000 1.0
C      1  0.5489910000000  0.4823180000000  0.4219650000000 1.0
C      1  0.4498720000000  0.4173750000000  0.5144420000000 1.0
C      1  0.5489890000000  0.5168590000000  0.5778550000000 1.0
C      1  0.4498760000000  0.5818060000000  0.4853750000000 1.0
C      1  0.4448410000000  0.5118800000000  0.4364260000000 1.0
C      1  0.5579180000000  0.4357030000000  0.4870280000000 1.0
C      1  0.4448380000000  0.4873020000000  0.5633900000000 1.0
C      1  0.5579210000000  0.5634740000000  0.5127930000000 1.0
C      1  0.5524690000000  0.5809750000000  0.4426070000000 1.0
C      1  0.4495980000000  0.4427000000000  0.4157540000000 1.0
C      1  0.5524630000000  0.4182020000000  0.5572130000000 1.0
C      1  0.4495980000000  0.5564810000000  0.5840630000000 1.0
C      1  0.4927950000000  0.4668080000000  0.5720610000000 1.0
C      1  0.5104200000000  0.5687360000000  0.5321940000000 1.0
C      1  0.4927990000000  0.5323720000000  0.4277580000000 1.0
C      1  0.5104180000000  0.4304430000000  0.4676240000000 1.0
C      1  0.5264060000000  0.5440560000000  0.4577610000000 1.0
C      1  0.4752350000000  0.4637850000000  0.4673720000000 1.0
C      1  0.5264020000000  0.4551220000000  0.5420580000000 1.0
C      1  0.4752350000000  0.5353950000000  0.5324460000000 1.0
C      1  0.5047000000000  0.4606040000000  0.4731970000000 1.0
C      1  0.4966340000000  0.4662540000000  0.5420910000000 1.0
C      1  0.5047010000000  0.5385750000000  0.5266220000000 1.0
C      1  0.4966370000000  0.5329250000000  0.4577270000000 1.0
C      1  0.5423990000000  0.5718160000000  0.4676730000000 1.0
C      1  0.4525780000000  0.4699550000000  0.4207560000000 1.0
C      1  0.5423940000000  0.4273620000000  0.5321470000000 1.0
C      1  0.4525770000000  0.5292260000000  0.5790610000000 1.0
C      1  0.4578090000000  0.5724180000000  0.5641060000000 1.0
C      1  0.5428750000000  0.5659010000000  0.4216340000000 1.0
C      1  0.4578080000000  0.4267630000000  0.4357110000000 1.0
C      1  0.5428700000000  0.4332770000000  0.5781860000000 1.0
C      1  0.4645680000000  0.5217870000000  0.5094610000000 1.0
C      1  0.5336930000000  0.5324900000000  0.4840080000000 1.0
C      1  0.4645670000000  0.4773940000000  0.4903560000000 1.0
C      1  0.5336910000000  0.4666880000000  0.5158110000000 1.0
C      1  0.4114100000000  0.4826690000000  0.5114770000000 1.0
C      1  0.5911710000000  0.5120290000000  0.5166160000000 1.0
C      1  0.4114110000000  0.5165140000000  0.4883390000000 1.0
C      1  0.5911710000000  0.4871460000000  0.4832060000000 1.0
C      1  0.4359350000000  0.5575300000000  0.4949760000000 1.0
C      1  0.5681820000000  0.4939380000000  0.4400350000000 1.0
C      1  0.4359320000000  0.4416520000000  0.5048400000000 1.0
C      1  0.5681800000000  0.5052380000000  0.5597850000000 1.0
C      1  0.5328450000000  0.5788560000000  0.5138060000000 1.0
C      1  0.4700430000000  0.5127990000000  0.4217210000000 1.0
C      1  0.5328420000000  0.4203210000000  0.4860140000000 1.0
C      1  0.4700400000000  0.4863820000000  0.5780960000000 1.0
C      1  0.4760830000000  0.5129740000000  0.5862970000000 1.0
C      1  0.5243060000000  0.5850900000000  0.4871650000000 1.0
C      1  0.4760850000000  0.4862060000000  0.4135200000000 1.0
C      1  0.5243010000000  0.4140880000000  0.5126540000000 1.0
C      1  0.5145430000000  0.5502040000000  0.5802680000000 1.0
C      1  0.4842820000000  0.5809570000000  0.4511600000000 1.0
C      1  0.5145430000000  0.4489750000000  0.4195510000000 1.0
C      1  0.4842770000000  0.4182230000000  0.5486580000000 1.0
C      1  0.5572830000000  0.5608650000000  0.5602960000000 1.0
C      1  0.4446170000000  0.5603810000000  0.4415210000000 1.0
C      1  0.5572830000000  0.4383120000000  0.4395240000000 1.0
C      1  0.4446130000000  0.4388010000000  0.5582950000000 1.0
C      1  0.5349020000000  0.4965190000000  0.5136020000000 1.0
C      1  0.4623100000000  0.5421870000000  0.4902720000000 1.0
C      1  0.5349030000000  0.5026590000000  0.4862170000000 1.0
C      1  0.4623080000000  0.4569940000000  0.5095450000000 1.0
C      1  0.5244940000000  0.4943990000000  0.4132030000000 1.0
C      1  0.4744820000000  0.4089860000000  0.5009710000000 1.0
C      1  0.5244910000000  0.5047790000000  0.5866160000000 1.0
C      1  0.4744860000000  0.5901940000000  0.4988470000000 1.0
C      1  0.4817840000000  0.4130160000000  0.4415970000000 1.0
C      1  0.5172330000000  0.4263100000000  0.5859890000000 1.0
C      1  0.4817860000000  0.5861640000000  0.5582210000000 1.0
C      1  0.5172400000000  0.5728690000000  0.4138310000000 1.0
C      1  0.5200650000000  0.5212170000000  0.4191150000000 1.0
C      1  0.4806980000000  0.4171860000000  0.4735670000000 1.0
C      1  0.5200610000000  0.4779610000000  0.5807040000000 1.0
C      1  0.4807010000000  0.5819940000000  0.5262510000000 1.0
C      1  0.4327560000000  0.5533820000000  0.5245380000000 1.0
C      1  0.5658830000000  0.5220940000000  0.4452700000000 1.0
C      1  0.4327540000000  0.4458000000000  0.4752780000000 1.0
C      1  0.5658810000000  0.4770820000000  0.5545510000000 1.0
C      1  0.4221010000000  0.5386750000000  0.4759020000000 1.0
C      1  0.5789000000000  0.4755870000000  0.4604940000000 1.0
C      1  0.4220980000000  0.4605080000000  0.5239140000000 1.0
C      1  0.5789000000000  0.5235890000000  0.5393270000000 1.0
C      1  0.5679950000000  0.5507500000000  0.5369100000000 1.0
C      1  0.4343830000000  0.5361120000000  0.4493480000000 1.0
C      1  0.5679940000000  0.4484260000000  0.4629110000000 1.0
C      1  0.4343800000000  0.4630700000000  0.5504680000000 1.0
C      1  0.4588190000000  0.5608810000000  0.5360320000000 1.0
C      1  0.5416370000000  0.5358990000000  0.4335850000000 1.0
C      1  0.4588180000000  0.4383000000000  0.4637850000000 1.0
C      1  0.5416330000000  0.4632780000000  0.5662340000000 1.0
C      1  0.5031510000000  0.4752550000000  0.4114170000000 1.0
C      1  0.4956630000000  0.4159070000000  0.5210330000000 1.0
C      1  0.5031500000000  0.5239240000000  0.5884010000000 1.0
C      1  0.4956680000000  0.5832720000000  0.4787860000000 1.0
C      1  0.5161090000000  0.4880870000000  0.4701640000000 1.0
C      1  0.4881360000000  0.4489200000000  0.5191870000000 1.0
C      1  0.5161090000000  0.5110920000000  0.5296550000000 1.0
C      1  0.4881390000000  0.5502600000000  0.4806320000000 1.0
C      1  0.4941220000000  0.4933900000000  0.5285450000000 1.0
C      1  0.5089860000000  0.5397120000000  0.4984490000000 1.0
C      1  0.4941230000000  0.5057900000000  0.4712730000000 1.0
C      1  0.5089840000000  0.4594670000000  0.5013690000000 1.0
C      1  0.4788480000000  0.4995900000000  0.4999090000000 1.0
END
