TITL C-102460-7172-2 -0.172164117977579 125000 -380.866223570857 0 0 57 (C1) n - 1
REM
REM in /rds/project/t2_vol4/rds-t2-cs072/BORA/CARBON/from-Arr/AIRSS/Generating-Clusters/GAP-ML-2020/Higher-Symm/SD-CG/HFTN-CG
REM
REM
REM
REM
REM
REM ./C.cell (b20cbc046b6831c77cfcea5457e17084)
REM AIRSS Version 0.9.1 bugfix July 2018 build 013d7b7c2542+ Fri, 06 Jul 2018 19:26:36 +0100
REM compiler GCC version 9.3.0
REM options -cpp -mtune=generic -march=x86-64 -g -O0
REM seed -1436238652 -430654517 -1395811952 1712391774 -338587046 -814403798 -1457692792 -884019188 1559112100 1947732063 -1991025097 -926804947 -1558527624 893875859 979602005 -756162493 -1390808970 -263026422 871930614 277702221 -578677017 -1804874731 890069733 -1662869605 -2072081998 -860046756 -1417916046 -1705085846 -2035935681 1415683693 -972215424 890279504 -1364622789
REM
CELL 1.54180   50.00000   50.00000   50.00000   90.00000   90.00000   90.00000
LATT -1
SFAC C  
C      1  0.5493340000000  0.4702930000000  0.5392860000000 1.0
C      1  0.5453140000000  0.5382710000000  0.5375830000000 1.0
C      1  0.4792110000000  0.5566080000000  0.5366340000000 1.0
C      1  0.4437140000000  0.4937780000000  0.5407530000000 1.0
C      1  0.4875010000000  0.4417730000000  0.5376490000000 1.0
C      1  0.4483990000000  0.4694850000000  0.4642340000000 1.0
C      1  0.4535410000000  0.5381360000000  0.4649950000000 1.0
C      1  0.5200990000000  0.5526200000000  0.4602120000000 1.0
C      1  0.5625700000000  0.4944950000000  0.4665840000000 1.0
C      1  0.5131690000000  0.4474310000000  0.4576180000000 1.0
C      1  0.5430300000000  0.4851360000000  0.4215460000000 1.0
C      1  0.5078680000000  0.5208470000000  0.4226990000000 1.0
C      1  0.4793170000000  0.5208140000000  0.4258220000000 1.0
C      1  0.4703320000000  0.4933970000000  0.4257300000000 1.0
C      1  0.4932060000000  0.4761900000000  0.4220410000000 1.0
C      1  0.4716270000000  0.4846560000000  0.5805580000000 1.0
C      1  0.4862930000000  0.5304800000000  0.5802720000000 1.0
C      1  0.5140510000000  0.5228940000000  0.5754900000000 1.0
C      1  0.5196420000000  0.4944960000000  0.5735960000000 1.0
C      1  0.4986000000000  0.4746560000000  0.5757550000000 1.0
C      1  0.4957640000000  0.4515990000000  0.4359470000000 1.0
C      1  0.5594070000000  0.4808750000000  0.4418910000000 1.0
C      1  0.5242750000000  0.5393740000000  0.4361880000000 1.0
C      1  0.4660870000000  0.5417050000000  0.4402430000000 1.0
C      1  0.4475760000000  0.4848430000000  0.4407210000000 1.0
C      1  0.5006410000000  0.4498260000000  0.5612500000000 1.0
C      1  0.4500900000000  0.4773190000000  0.5626440000000 1.0
C      1  0.4729760000000  0.5487780000000  0.5621790000000 1.0
C      1  0.5300810000000  0.5418080000000  0.5607660000000 1.0
C      1  0.5448900000000  0.4862880000000  0.5617860000000 1.0
C      1  0.5015240000000  0.5512640000000  0.5212580000000 1.0
C      1  0.4553230000000  0.5148260000000  0.5273750000000 1.0
C      1  0.4717670000000  0.4583110000000  0.5218520000000 1.0
C      1  0.5308130000000  0.4593150000000  0.5219070000000 1.0
C      1  0.5488990000000  0.5160270000000  0.5217660000000 1.0
C      1  0.4990460000000  0.5498070000000  0.4776250000000 1.0
C      1  0.5468180000000  0.5151150000000  0.4757890000000 1.0
C      1  0.5288270000000  0.4613210000000  0.4753690000000 1.0
C      1  0.4704090000000  0.4601760000000  0.4782960000000 1.0
C      1  0.4514330000000  0.5156360000000  0.4807340000000 1.0
C      1  0.4581420000000  0.5388590000000  0.5404530000000 1.0
C      1  0.4505510000000  0.4670430000000  0.5372240000000 1.0
C      1  0.5150300000000  0.4435980000000  0.5380800000000 1.0
C      1  0.5577730000000  0.4964480000000  0.5391800000000 1.0
C      1  0.5239620000000  0.5557170000000  0.5370040000000 1.0
C      1  0.5413860000000  0.5348040000000  0.4575540000000 1.0
C      1  0.5541530000000  0.4681190000000  0.4668130000000 1.0
C      1  0.4855970000000  0.4452150000000  0.4609540000000 1.0
C      1  0.4399540000000  0.4958640000000  0.4653530000000 1.0
C      1  0.4757480000000  0.5546320000000  0.4633500000000 1.0
C      1  0.5004430000000  0.5274200000000  0.5005760000000 1.0
C      1  0.4745810000000  0.5085340000000  0.5030780000000 1.0
C      1  0.4846890000000  0.4781380000000  0.5007950000000 1.0
C      1  0.5167360000000  0.4781150000000  0.4990400000000 1.0
C      1  0.5266490000000  0.5087670000000  0.4992230000000 1.0
C      1  0.4693960000000  0.5106840000000  0.5891620000000 1.0
C      1  0.5168900000000  0.4932810000000  0.4190520000000 1.0
END
