TITL C-107722-8622-2 223.180211842549 125000 -1351.83061768928 0 0 190 (C1) n - 1
REM
REM in /rds/project/t2_vol4/rds-t2-cs072/BORA/CARBON/from-Arr/AIRSS/Generating-Clusters/GAP-ML-2020/Higher-Symm/SD-CG/HFTN-CG/C160-200
REM
REM
REM
REM
REM
REM ./C.cell (6b4489405718ea1b717e0baf1da4c2d9)
REM AIRSS Version 0.9.1 bugfix July 2018 build 013d7b7c2542+ Fri, 06 Jul 2018 19:26:36 +0100
REM compiler GCC version 9.3.0
REM options -cpp -mtune=generic -march=x86-64 -g -O0
REM seed 249592001 764775366 2071917570 1006871642 -1004185490 -1847873087 -1308309194 1138923562 -1578558083 -1613044810 -1087498647 -565023866 -2040083363 1318658897 -1530303257 818182925 -192206828 870571701 -778604416 -435118847 -1988314812 -2115574342 -1086561497 1068640853 1138615092 -1004715327 -988868833 33021313 1503955725 -2061628322 -1642302908 554937428 -1631834005
REM
CELL 1.54180   50.00000   50.00000   50.00000   90.00000   90.00000   90.00000
LATT -1
SFAC C  
C      1  0.4405760000000  0.4118890000000  0.5027150000000 1.0
C      1  0.5604060000000  0.5871960000000  0.5049450000000 1.0
C      1  0.4377360000000  0.5903060000000  0.4966370000000 1.0
C      1  0.5637550000000  0.4119190000000  0.4954070000000 1.0
C      1  0.5689550000000  0.4087130000000  0.5235990000000 1.0
C      1  0.4314800000000  0.5928530000000  0.5247100000000 1.0
C      1  0.5671960000000  0.5897770000000  0.4770700000000 1.0
C      1  0.4331360000000  0.4088770000000  0.4748600000000 1.0
C      1  0.5137920000000  0.5828720000000  0.5797020000000 1.0
C      1  0.4864960000000  0.4191000000000  0.5793610000000 1.0
C      1  0.5144420000000  0.4171670000000  0.4198540000000 1.0
C      1  0.4869640000000  0.5824720000000  0.4193820000000 1.0
C      1  0.5867170000000  0.4255240000000  0.5365610000000 1.0
C      1  0.4142050000000  0.5753630000000  0.5377130000000 1.0
C      1  0.5846590000000  0.5724920000000  0.4642440000000 1.0
C      1  0.4176500000000  0.4286960000000  0.4630260000000 1.0
C      1  0.5316020000000  0.5803400000000  0.4443220000000 1.0
C      1  0.4690890000000  0.4168530000000  0.4418910000000 1.0
C      1  0.5314610000000  0.4207820000000  0.5544630000000 1.0
C      1  0.4676690000000  0.5821010000000  0.5568030000000 1.0
C      1  0.4395190000000  0.4996160000000  0.4166390000000 1.0
C      1  0.5560530000000  0.5019330000000  0.4157790000000 1.0
C      1  0.4384230000000  0.5033170000000  0.5852670000000 1.0
C      1  0.5603790000000  0.4973470000000  0.5833740000000 1.0
C      1  0.4813680000000  0.5105950000000  0.4943850000000 1.0
C      1  0.5215970000000  0.4841290000000  0.4884030000000 1.0
C      1  0.4717430000000  0.4882620000000  0.5099710000000 1.0
C      1  0.5106760000000  0.5095520000000  0.4991390000000 1.0
C      1  0.6045970000000  0.4398690000000  0.4918400000000 1.0
C      1  0.3971070000000  0.5618230000000  0.4928610000000 1.0
C      1  0.6020410000000  0.5592710000000  0.5084800000000 1.0
C      1  0.4001830000000  0.4407080000000  0.5074390000000 1.0
C      1  0.3800740000000  0.5128650000000  0.5298980000000 1.0
C      1  0.6225840000000  0.4873620000000  0.5317780000000 1.0
C      1  0.3788070000000  0.4900920000000  0.4675060000000 1.0
C      1  0.6218130000000  0.5103540000000  0.4662750000000 1.0
C      1  0.6221000000000  0.5133660000000  0.5239260000000 1.0
C      1  0.3814340000000  0.4867770000000  0.5224950000000 1.0
C      1  0.6202100000000  0.4872230000000  0.4800720000000 1.0
C      1  0.3821240000000  0.5139480000000  0.4797600000000 1.0
C      1  0.4979780000000  0.4594970000000  0.5566620000000 1.0
C      1  0.5007220000000  0.5432270000000  0.5579760000000 1.0
C      1  0.4956460000000  0.5436750000000  0.4435490000000 1.0
C      1  0.4990560000000  0.4597040000000  0.4369450000000 1.0
C      1  0.5104790000000  0.5251430000000  0.3812230000000 1.0
C      1  0.4915080000000  0.4712340000000  0.3790200000000 1.0
C      1  0.5091360000000  0.4739670000000  0.6194510000000 1.0
C      1  0.4908930000000  0.5284640000000  0.6210850000000 1.0
C      1  0.4097460000000  0.4804360000000  0.5680420000000 1.0
C      1  0.5912500000000  0.5188340000000  0.5687150000000 1.0
C      1  0.4104940000000  0.5222840000000  0.4338250000000 1.0
C      1  0.5885450000000  0.4810880000000  0.4320570000000 1.0
C      1  0.5599630000000  0.4635190000000  0.4990350000000 1.0
C      1  0.4431310000000  0.5355000000000  0.4967250000000 1.0
C      1  0.5508130000000  0.5330030000000  0.5047500000000 1.0
C      1  0.4554800000000  0.4657820000000  0.5035860000000 1.0
C      1  0.4698750000000  0.5451750000000  0.3932210000000 1.0
C      1  0.5320980000000  0.4522930000000  0.3911150000000 1.0
C      1  0.4686990000000  0.4548850000000  0.6076340000000 1.0
C      1  0.5311700000000  0.5465790000000  0.6075260000000 1.0
C      1  0.5829140000000  0.4245490000000  0.4792730000000 1.0
C      1  0.4188260000000  0.5776650000000  0.4802000000000 1.0
C      1  0.5795030000000  0.5734570000000  0.5206980000000 1.0
C      1  0.4220030000000  0.4255920000000  0.5191040000000 1.0
C      1  0.5410720000000  0.4105600000000  0.5305620000000 1.0
C      1  0.4590570000000  0.5919960000000  0.5325340000000 1.0
C      1  0.5398770000000  0.5900030000000  0.4687590000000 1.0
C      1  0.4601830000000  0.4065470000000  0.4658890000000 1.0
C      1  0.5177720000000  0.5063690000000  0.5288120000000 1.0
C      1  0.4653420000000  0.4952700000000  0.5367570000000 1.0
C      1  0.5376810000000  0.4804230000000  0.4634110000000 1.0
C      1  0.4698320000000  0.5083530000000  0.4665070000000 1.0
C      1  0.5161520000000  0.4371500000000  0.5003000000000 1.0
C      1  0.4842130000000  0.5631030000000  0.5027440000000 1.0
C      1  0.5118910000000  0.5630370000000  0.4979370000000 1.0
C      1  0.4891400000000  0.4338660000000  0.4922560000000 1.0
C      1  0.5749420000000  0.4884730000000  0.5085960000000 1.0
C      1  0.4278110000000  0.5107620000000  0.5077380000000 1.0
C      1  0.5645720000000  0.5113320000000  0.4926380000000 1.0
C      1  0.4375590000000  0.4867120000000  0.4928820000000 1.0
C      1  0.5769520000000  0.5595920000000  0.4398610000000 1.0
C      1  0.4297480000000  0.4456740000000  0.4422020000000 1.0
C      1  0.5779690000000  0.4391960000000  0.5603780000000 1.0
C      1  0.4222680000000  0.5614720000000  0.5616680000000 1.0
C      1  0.5169770000000  0.5250200000000  0.4400830000000 1.0
C      1  0.4740240000000  0.4715520000000  0.4335170000000 1.0
C      1  0.5202990000000  0.4777280000000  0.5600860000000 1.0
C      1  0.4775900000000  0.5273950000000  0.5638530000000 1.0
C      1  0.5474830000000  0.5397740000000  0.5324670000000 1.0
C      1  0.4550920000000  0.4530670000000  0.5324730000000 1.0
C      1  0.5555320000000  0.4590440000000  0.4711270000000 1.0
C      1  0.4485170000000  0.5446480000000  0.4690470000000 1.0
C      1  0.5549900000000  0.5076320000000  0.4642560000000 1.0
C      1  0.4446330000000  0.4904310000000  0.4646810000000 1.0
C      1  0.5637570000000  0.4897410000000  0.5356400000000 1.0
C      1  0.4379150000000  0.5087290000000  0.5363540000000 1.0
C      1  0.4605070000000  0.4114960000000  0.5753530000000 1.0
C      1  0.5396260000000  0.5875010000000  0.5728220000000 1.0
C      1  0.4611200000000  0.5888500000000  0.4251660000000 1.0
C      1  0.5398490000000  0.4132600000000  0.4279440000000 1.0
C      1  0.4623580000000  0.4862610000000  0.4114900000000 1.0
C      1  0.5265440000000  0.5021100000000  0.4214810000000 1.0
C      1  0.4639550000000  0.5129200000000  0.5870660000000 1.0
C      1  0.5337130000000  0.4907020000000  0.5833230000000 1.0
C      1  0.6119450000000  0.4605990000000  0.4723390000000 1.0
C      1  0.3892540000000  0.5414890000000  0.4732030000000 1.0
C      1  0.6108600000000  0.5389710000000  0.5282120000000 1.0
C      1  0.3920570000000  0.4611620000000  0.5268970000000 1.0
C      1  0.5701800000000  0.5236300000000  0.5873880000000 1.0
C      1  0.4291550000000  0.4764250000000  0.5886130000000 1.0
C      1  0.5691700000000  0.4764070000000  0.4119010000000 1.0
C      1  0.4297040000000  0.5258130000000  0.4128600000000 1.0
C      1  0.6064330000000  0.4403990000000  0.5214010000000 1.0
C      1  0.3948200000000  0.5607850000000  0.5220730000000 1.0
C      1  0.6038660000000  0.5576130000000  0.4793850000000 1.0
C      1  0.3983410000000  0.4427200000000  0.4784550000000 1.0
C      1  0.4099370000000  0.4677800000000  0.4406480000000 1.0
C      1  0.5905970000000  0.5344290000000  0.4399850000000 1.0
C      1  0.4070340000000  0.5367290000000  0.5611350000000 1.0
C      1  0.5935830000000  0.4633430000000  0.5610210000000 1.0
C      1  0.4046870000000  0.5439980000000  0.4502420000000 1.0
C      1  0.5959410000000  0.4596440000000  0.4492460000000 1.0
C      1  0.4081110000000  0.4594300000000  0.5496040000000 1.0
C      1  0.5940670000000  0.5399280000000  0.5504770000000 1.0
C      1  0.4715690000000  0.5342270000000  0.4554990000000 1.0
C      1  0.5212680000000  0.4770270000000  0.4385500000000 1.0
C      1  0.4721090000000  0.4688040000000  0.5493260000000 1.0
C      1  0.5222670000000  0.5313670000000  0.5433540000000 1.0
C      1  0.5703270000000  0.5574130000000  0.5451200000000 1.0
C      1  0.4308280000000  0.4402850000000  0.5446450000000 1.0
C      1  0.5734020000000  0.4409990000000  0.4549630000000 1.0
C      1  0.4279230000000  0.5620050000000  0.4553140000000 1.0
C      1  0.5160410000000  0.4477010000000  0.6083320000000 1.0
C      1  0.4844340000000  0.5552710000000  0.6105170000000 1.0
C      1  0.5170600000000  0.5516960000000  0.3910680000000 1.0
C      1  0.4852590000000  0.4441290000000  0.3879980000000 1.0
C      1  0.5184800000000  0.5229730000000  0.6179710000000 1.0
C      1  0.4812400000000  0.4788350000000  0.6179480000000 1.0
C      1  0.5195050000000  0.4759310000000  0.3809660000000 1.0
C      1  0.4823370000000  0.5208330000000  0.3830510000000 1.0
C      1  0.5553160000000  0.5473250000000  0.5919010000000 1.0
C      1  0.4439890000000  0.4525630000000  0.5929600000000 1.0
C      1  0.5557830000000  0.4521140000000  0.4074590000000 1.0
C      1  0.4452380000000  0.5486500000000  0.4081620000000 1.0
C      1  0.6129350000000  0.4621130000000  0.5398320000000 1.0
C      1  0.3885860000000  0.5379360000000  0.5392320000000 1.0
C      1  0.6102770000000  0.5343720000000  0.4618210000000 1.0
C      1  0.3908440000000  0.4661430000000  0.4619020000000 1.0
C      1  0.4668870000000  0.5863490000000  0.5046570000000 1.0
C      1  0.5345030000000  0.4151510000000  0.5022920000000 1.0
C      1  0.4697210000000  0.4117560000000  0.4936550000000 1.0
C      1  0.5309840000000  0.5850480000000  0.4965790000000 1.0
C      1  0.5109120000000  0.5665580000000  0.6037720000000 1.0
C      1  0.4896250000000  0.4357000000000  0.6029920000000 1.0
C      1  0.5116310000000  0.4329630000000  0.3955050000000 1.0
C      1  0.4906910000000  0.5644830000000  0.3965120000000 1.0
C      1  0.5589360000000  0.4321490000000  0.4295930000000 1.0
C      1  0.4418480000000  0.5703170000000  0.4286170000000 1.0
C      1  0.5583240000000  0.5681390000000  0.5711600000000 1.0
C      1  0.4418030000000  0.4309360000000  0.5722350000000 1.0
C      1  0.4475270000000  0.5691530000000  0.5749320000000 1.0
C      1  0.5517540000000  0.4331980000000  0.5726290000000 1.0
C      1  0.4489310000000  0.4298970000000  0.4230140000000 1.0
C      1  0.5519740000000  0.5669430000000  0.4268020000000 1.0
C      1  0.5390970000000  0.4439460000000  0.5948720000000 1.0
C      1  0.4612310000000  0.5600670000000  0.5974720000000 1.0
C      1  0.5398320000000  0.5553950000000  0.4049690000000 1.0
C      1  0.4616890000000  0.4370180000000  0.3998910000000 1.0
C      1  0.4202930000000  0.5092520000000  0.5623660000000 1.0
C      1  0.5799530000000  0.4903180000000  0.5619520000000 1.0
C      1  0.4233580000000  0.4949330000000  0.4409940000000 1.0
C      1  0.5752500000000  0.5085670000000  0.4387450000000 1.0
C      1  0.5243470000000  0.4957130000000  0.6101770000000 1.0
C      1  0.4747630000000  0.5068170000000  0.6126830000000 1.0
C      1  0.5250640000000  0.5024000000000  0.3906800000000 1.0
C      1  0.4753330000000  0.4930360000000  0.3872850000000 1.0
C      1  0.5313000000000  0.4653370000000  0.5085980000000 1.0
C      1  0.4694510000000  0.5359030000000  0.5103200000000 1.0
C      1  0.5254030000000  0.5360190000000  0.4893980000000 1.0
C      1  0.4700040000000  0.4538410000000  0.4821000000000 1.0
C      1  0.4952370000000  0.5736660000000  0.5596270000000 1.0
C      1  0.5039680000000  0.4293380000000  0.5582000000000 1.0
C      1  0.4958320000000  0.4276000000000  0.4391660000000 1.0
C      1  0.5038320000000  0.5730090000000  0.4409680000000 1.0
C      1  0.4640550000000  0.5250890000000  0.5389030000000 1.0
C      1  0.5344680000000  0.4825270000000  0.5349040000000 1.0
C      1  0.4567790000000  0.4638700000000  0.4563170000000 1.0
C      1  0.5336230000000  0.5284680000000  0.4620500000000 1.0
C      1  0.6081280000000  0.4922900000000  0.5062940000000 1.0
C      1  0.3956400000000  0.5078300000000  0.5050530000000 1.0
END
