TITL C-105239-9281-1 -79.2320807874844 125000 -669.538977791542 0 0 101 (T23) n - 1
REM
REM in /rds/project/t2_vol4/rds-t2-cs072/BORA/CARBON/from-Arr/AIRSS/Generating-Clusters/GAP-ML-2020/Higher-Symm/SD-CG/HFTN-CG
REM
REM
REM
REM
REM
REM ./C.cell (b20cbc046b6831c77cfcea5457e17084)
REM AIRSS Version 0.9.1 bugfix July 2018 build 013d7b7c2542+ Fri, 06 Jul 2018 19:26:36 +0100
REM compiler GCC version 9.3.0
REM options -cpp -mtune=generic -march=x86-64 -g -O0
REM seed -393164776 1237073136 1971908984 -1928604734 -364431942 -107501652 -670011937 -391027199 755205826 2064163327 1647201524 -1320394379 1871869218 949335665 1729371948 1763375185 231558604 748441943 -1304405266 -1600206007 946278464 -1746547839 -1302906841 1079151308 1021184198 -575920228 1733258923 -129908193 143230862 -1373380658 -1188343520 985063871 133256765
REM
CELL 1.54180   50.00000   50.00000   50.00000   90.00000   90.00000   90.00000
LATT -1
SFAC C  
C      1  0.4712690000000  0.4988400000000  0.4618210000000 1.0
C      1  0.4616780000000  0.4720760000000  0.4981880000000 1.0
C      1  0.4980340000000  0.4624730000000  0.4714130000000 1.0
C      1  0.5287880000000  0.4988360000000  0.5385000000000 1.0
C      1  0.4712870000000  0.5028110000000  0.5385130000000 1.0
C      1  0.5287710000000  0.5027970000000  0.4618080000000 1.0
C      1  0.5383710000000  0.4720640000000  0.5021360000000 1.0
C      1  0.4616880000000  0.5295780000000  0.5021500000000 1.0
C      1  0.5383790000000  0.5295660000000  0.4981670000000 1.0
C      1  0.5020130000000  0.4624770000000  0.5289140000000 1.0
C      1  0.4980580000000  0.5391690000000  0.5289090000000 1.0
C      1  0.5020110000000  0.5391650000000  0.4714070000000 1.0
C      1  0.4065940000000  0.5116580000000  0.4894630000000 1.0
C      1  0.4892990000000  0.4073890000000  0.5109930000000 1.0
C      1  0.5108300000000  0.4900950000000  0.4067250000000 1.0
C      1  0.5934670000000  0.5116320000000  0.5108560000000 1.0
C      1  0.4065960000000  0.4900110000000  0.5109010000000 1.0
C      1  0.5934590000000  0.4899820000000  0.4894210000000 1.0
C      1  0.5107310000000  0.4073840000000  0.4893400000000 1.0
C      1  0.4893220000000  0.5942560000000  0.4893330000000 1.0
C      1  0.5107640000000  0.5942540000000  0.5109760000000 1.0
C      1  0.4892250000000  0.4901100000000  0.5935980000000 1.0
C      1  0.5108760000000  0.5115440000000  0.5935920000000 1.0
C      1  0.4891850000000  0.5115350000000  0.4067280000000 1.0
C      1  0.4980580000000  0.5338450000000  0.4230600000000 1.0
C      1  0.4229370000000  0.4988760000000  0.5332070000000 1.0
C      1  0.5330460000000  0.4237170000000  0.4982000000000 1.0
C      1  0.5020100000000  0.5338550000000  0.5772570000000 1.0
C      1  0.4980840000000  0.4677970000000  0.5772620000000 1.0
C      1  0.5019640000000  0.4677870000000  0.4230630000000 1.0
C      1  0.5771200000000  0.4988490000000  0.4671140000000 1.0
C      1  0.4229220000000  0.5027880000000  0.4671490000000 1.0
C      1  0.5771360000000  0.5027700000000  0.5331710000000 1.0
C      1  0.4669890000000  0.4237270000000  0.5021310000000 1.0
C      1  0.5330700000000  0.5779150000000  0.5021060000000 1.0
C      1  0.4670110000000  0.5779250000000  0.4982050000000 1.0
C      1  0.5377330000000  0.5052660000000  0.5943640000000 1.0
C      1  0.5942480000000  0.5384890000000  0.5045800000000 1.0
C      1  0.5044960000000  0.5950350000000  0.5378350000000 1.0
C      1  0.4623260000000  0.5052650000000  0.4059570000000 1.0
C      1  0.5376880000000  0.4963650000000  0.4059400000000 1.0
C      1  0.4623680000000  0.4963880000000  0.5943820000000 1.0
C      1  0.4058210000000  0.5385170000000  0.4957360000000 1.0
C      1  0.5942350000000  0.4631250000000  0.4956970000000 1.0
C      1  0.4058120000000  0.4631530000000  0.5046290000000 1.0
C      1  0.4955900000000  0.5950310000000  0.4624730000000 1.0
C      1  0.5044500000000  0.4066050000000  0.4624840000000 1.0
C      1  0.4955790000000  0.4066120000000  0.5378500000000 1.0
C      1  0.5606780000000  0.4246650000000  0.4935090000000 1.0
C      1  0.4933780000000  0.5614790000000  0.4240120000000 1.0
C      1  0.4238960000000  0.4941940000000  0.5608410000000 1.0
C      1  0.4393570000000  0.4246840000000  0.5068220000000 1.0
C      1  0.5607040000000  0.5769590000000  0.5067840000000 1.0
C      1  0.4393760000000  0.5769760000000  0.4935280000000 1.0
C      1  0.5066980000000  0.5614870000000  0.5763020000000 1.0
C      1  0.4933960000000  0.4401650000000  0.5763120000000 1.0
C      1  0.5066440000000  0.4401530000000  0.4240170000000 1.0
C      1  0.5761600000000  0.4941640000000  0.4394810000000 1.0
C      1  0.4238690000000  0.5074700000000  0.4395150000000 1.0
C      1  0.5761900000000  0.5074560000000  0.5608050000000 1.0
C      1  0.5260610000000  0.4483150000000  0.5144590000000 1.0
C      1  0.5143210000000  0.5268520000000  0.4476520000000 1.0
C      1  0.4475340000000  0.5151310000000  0.5262080000000 1.0
C      1  0.4739810000000  0.4483210000000  0.4858690000000 1.0
C      1  0.5260700000000  0.5533190000000  0.4858500000000 1.0
C      1  0.4740040000000  0.5533290000000  0.5144640000000 1.0
C      1  0.4857440000000  0.5268630000000  0.5526650000000 1.0
C      1  0.5143380000000  0.4747860000000  0.5526620000000 1.0
C      1  0.4857120000000  0.4747830000000  0.4476620000000 1.0
C      1  0.5525280000000  0.5151120000000  0.4741110000000 1.0
C      1  0.4475180000000  0.4865260000000  0.4741370000000 1.0
C      1  0.5525360000000  0.4865140000000  0.5261860000000 1.0
C      1  0.5429550000000  0.5601220000000  0.4623280000000 1.0
C      1  0.4622310000000  0.5437560000000  0.5594760000000 1.0
C      1  0.5593430000000  0.4629960000000  0.5430750000000 1.0
C      1  0.4571210000000  0.5601400000000  0.5379850000000 1.0
C      1  0.5429550000000  0.4415070000000  0.5379730000000 1.0
C      1  0.4570860000000  0.4415150000000  0.4623560000000 1.0
C      1  0.5378400000000  0.5437370000000  0.4408390000000 1.0
C      1  0.4621900000000  0.4578970000000  0.4408620000000 1.0
C      1  0.5378550000000  0.4578940000000  0.5594640000000 1.0
C      1  0.4407040000000  0.4630080000000  0.4572510000000 1.0
C      1  0.5593340000000  0.5386280000000  0.4572190000000 1.0
C      1  0.4407350000000  0.5386510000000  0.5430980000000 1.0
C      1  0.4947430000000  0.5817540000000  0.4399120000000 1.0
C      1  0.4398030000000  0.4955520000000  0.5811110000000 1.0
C      1  0.5809550000000  0.4405640000000  0.4948620000000 1.0
C      1  0.5053380000000  0.5817610000000  0.5603980000000 1.0
C      1  0.4947470000000  0.4198890000000  0.5604110000000 1.0
C      1  0.5052860000000  0.4198800000000  0.4399200000000 1.0
C      1  0.5602540000000  0.4955230000000  0.4192100000000 1.0
C      1  0.4397670000000  0.5061080000000  0.4192380000000 1.0
C      1  0.5602930000000  0.5061010000000  0.5810830000000 1.0
C      1  0.4190850000000  0.4405890000000  0.5054670000000 1.0
C      1  0.5809760000000  0.5610540000000  0.5054210000000 1.0
C      1  0.4191000000000  0.5610770000000  0.4948920000000 1.0
C      1  0.4822170000000  0.5186330000000  0.4823530000000 1.0
C      1  0.5178330000000  0.4830060000000  0.4823470000000 1.0
C      1  0.4822200000000  0.4830140000000  0.5179770000000 1.0
C      1  0.5178470000000  0.5186300000000  0.5179660000000 1.0
C      1  0.5000290000000  0.5008210000000  0.5001610000000 1.0
END
