TITL C-109520-6404-10 0.230120024083914 125000 -30.5959870893301 0 0 6 (D3h) n - 1
REM
REM in /rds/project/t2_vol4/rds-t2-cs072/BORA/CARBON/from-Arr/AIRSS/Generating-Clusters/GAP-ML-2020/Higher-Symm/SD-CG/HFTN-CG
REM
REM
REM
REM
REM
REM ./C.cell (b20cbc046b6831c77cfcea5457e17084)
REM AIRSS Version 0.9.1 bugfix July 2018 build 013d7b7c2542+ Fri, 06 Jul 2018 19:26:36 +0100
REM compiler GCC version 9.3.0
REM options -cpp -mtune=generic -march=x86-64 -g -O0
REM seed 1158990089 1137234264 -949681383 93842042 -8398109 1937887424 -1790263793 660276140 -1121931810 934344477 -344761711 121019365 1855091209 718593142 206833223 -1858652904 538578350 846628296 -911107708 -201928936 1361946774 1918347337 -566500337 188462788 1496083067 1085014625 54321592 1612968768 31402883 881385639 -1642816164 -505717621 624186998
REM
CELL 1.54180   50.00000   50.00000   50.00000   90.00000   90.00000   90.00000
LATT -1
SFAC C  
C      1  0.4853920000000  0.4811700000000  0.5154810000000 1.0
C      1  0.5146130000000  0.4811900000000  0.4845110000000 1.0
C      1  0.4853920000000  0.4811830000000  0.4845110000000 1.0
C      1  0.5146130000000  0.4811780000000  0.5154810000000 1.0
C      1  0.4853840000000  0.5079970000000  0.5000080000000 1.0
C      1  0.5146060000000  0.5080050000000  0.5000070000000 1.0
END
