TITL C-100382-3719-4 124.413592036373 125000 -791.477301706502 0 0 111 (C4) n - 1
REM
REM in /rds/project/t2_vol4/rds-t2-cs072/BORA/CARBON/from-Arr/AIRSS/Generating-Clusters/GAP-ML-2020/Higher-Symm/SD-CG/HFTN-CG
REM
REM
REM
REM
REM
REM ./C.cell (b20cbc046b6831c77cfcea5457e17084)
REM AIRSS Version 0.9.1 bugfix July 2018 build 013d7b7c2542+ Fri, 06 Jul 2018 19:26:36 +0100
REM compiler GCC version 9.3.0
REM options -cpp -mtune=generic -march=x86-64 -g -O0
REM seed -483807802 -1844508446 2079616436 -1167475716 1953684068 489494853 -773619530 -1402138628 -515042857 1814601308 1030455618 -848066445 389417708 -2014234336 -1739634816 -1068002284 -340037529 -2018027146 -1659421858 -13305839 395092606 824208012 -913366113 -1521437854 923392421 -1392162042 -376744522 -669419322 -1456565033 -539789589 120742478 -1331851997 -1018466650
REM
CELL 1.54180   50.00000   50.00000   50.00000   90.00000   90.00000   90.00000
LATT -1
SFAC C  
C      1  0.4681850000000  0.4865640000000  0.4096190000000 1.0
C      1  0.4097810000000  0.4865580000000  0.5323560000000 1.0
C      1  0.5325180000000  0.4865430000000  0.5907600000000 1.0
C      1  0.5909220000000  0.4865490000000  0.4680240000000 1.0
C      1  0.4680470000000  0.5124930000000  0.5895100000000 1.0
C      1  0.4110350000000  0.5125090000000  0.4678850000000 1.0
C      1  0.5326600000000  0.5125040000000  0.4108740000000 1.0
C      1  0.5896720000000  0.5124880000000  0.5324990000000 1.0
C      1  0.5047690000000  0.4861310000000  0.5967180000000 1.0
C      1  0.5968790000000  0.4861320000000  0.4957720000000 1.0
C      1  0.4959340000000  0.4861490000000  0.4036620000000 1.0
C      1  0.4038230000000  0.4861480000000  0.5046070000000 1.0
C      1  0.5051400000000  0.5129070000000  0.4039370000000 1.0
C      1  0.5966090000000  0.5128900000000  0.5049790000000 1.0
C      1  0.4955670000000  0.5128910000000  0.5964470000000 1.0
C      1  0.4040980000000  0.5129070000000  0.4954050000000 1.0
C      1  0.5491120000000  0.5592520000000  0.4853080000000 1.0
C      1  0.4854690000000  0.5592610000000  0.4514420000000 1.0
C      1  0.4516030000000  0.5592580000000  0.5150840000000 1.0
C      1  0.5152450000000  0.5592500000000  0.5489510000000 1.0
C      1  0.5492320000000  0.4389920000000  0.5156920000000 1.0
C      1  0.4848410000000  0.4389940000000  0.5490700000000 1.0
C      1  0.4514630000000  0.4390030000000  0.4846790000000 1.0
C      1  0.5158540000000  0.4390010000000  0.4513010000000 1.0
C      1  0.4337750000000  0.5557440000000  0.4609560000000 1.0
C      1  0.4611170000000  0.5557330000000  0.5667780000000 1.0
C      1  0.5669400000000  0.5557260000000  0.5394360000000 1.0
C      1  0.5395970000000  0.5557380000000  0.4336130000000 1.0
C      1  0.4333780000000  0.4431890000000  0.5392410000000 1.0
C      1  0.4612930000000  0.4431970000000  0.4332160000000 1.0
C      1  0.5673180000000  0.4431850000000  0.4611310000000 1.0
C      1  0.5394030000000  0.4431780000000  0.5671560000000 1.0
C      1  0.5172470000000  0.4369860000000  0.5812310000000 1.0
C      1  0.5813930000000  0.4369890000000  0.4832860000000 1.0
C      1  0.4834480000000  0.4370030000000  0.4191390000000 1.0
C      1  0.4193020000000  0.4369990000000  0.5170850000000 1.0
C      1  0.5178280000000  0.5628010000000  0.4187060000000 1.0
C      1  0.5818480000000  0.5627870000000  0.5176660000000 1.0
C      1  0.4828880000000  0.5627890000000  0.5816870000000 1.0
C      1  0.4188670000000  0.5628030000000  0.4827270000000 1.0
C      1  0.5771020000000  0.4434180000000  0.5092180000000 1.0
C      1  0.5093800000000  0.4434310000000  0.4234320000000 1.0
C      1  0.4235940000000  0.4434320000000  0.4911540000000 1.0
C      1  0.4913160000000  0.4434190000000  0.5769400000000 1.0
C      1  0.5770560000000  0.5555350000000  0.4916990000000 1.0
C      1  0.5088530000000  0.5555330000000  0.5768950000000 1.0
C      1  0.4236580000000  0.5555460000000  0.5086920000000 1.0
C      1  0.4918610000000  0.5555480000000  0.4234970000000 1.0
C      1  0.4305760000000  0.5133800000000  0.5634790000000 1.0
C      1  0.5636410000000  0.5133690000000  0.5699700000000 1.0
C      1  0.5701310000000  0.5133800000000  0.4369050000000 1.0
C      1  0.4370670000000  0.5133910000000  0.4304150000000 1.0
C      1  0.4317430000000  0.4857250000000  0.4368710000000 1.0
C      1  0.5636700000000  0.4857140000000  0.4315810000000 1.0
C      1  0.5689600000000  0.4857020000000  0.5635080000000 1.0
C      1  0.4370330000000  0.4857130000000  0.5687980000000 1.0
C      1  0.4857870000000  0.4787350000000  0.4592450000000 1.0
C      1  0.4594070000000  0.4787320000000  0.5147530000000 1.0
C      1  0.5149150000000  0.4787250000000  0.5411330000000 1.0
C      1  0.5412950000000  0.4787280000000  0.4856250000000 1.0
C      1  0.4883910000000  0.5174180000000  0.5352920000000 1.0
C      1  0.4652540000000  0.5174240000000  0.4882290000000 1.0
C      1  0.5123170000000  0.5174230000000  0.4650930000000 1.0
C      1  0.5354540000000  0.5174160000000  0.5121560000000 1.0
C      1  0.5079460000000  0.5484320000000  0.4690090000000 1.0
C      1  0.4691700000000  0.5484330000000  0.4926060000000 1.0
C      1  0.4927680000000  0.5484270000000  0.5313820000000 1.0
C      1  0.5315430000000  0.5484260000000  0.5077840000000 1.0
C      1  0.5072720000000  0.4511100000000  0.5314980000000 1.0
C      1  0.4690370000000  0.4511160000000  0.5071100000000 1.0
C      1  0.4934250000000  0.4511170000000  0.4688750000000 1.0
C      1  0.5316600000000  0.4511120000000  0.4932630000000 1.0
C      1  0.5384500000000  0.5596980000000  0.5344940000000 1.0
C      1  0.5346550000000  0.5597050000000  0.4621040000000 1.0
C      1  0.4622650000000  0.5597100000000  0.4658990000000 1.0
C      1  0.4660600000000  0.5597040000000  0.5382890000000 1.0
C      1  0.5388280000000  0.4385810000000  0.4657230000000 1.0
C      1  0.5348100000000  0.4385750000000  0.5386660000000 1.0
C      1  0.4618670000000  0.4385810000000  0.5346480000000 1.0
C      1  0.4658850000000  0.4385870000000  0.4617040000000 1.0
C      1  0.4246970000000  0.4688450000000  0.5493280000000 1.0
C      1  0.5494900000000  0.4688330000000  0.5758410000000 1.0
C      1  0.5760030000000  0.4688420000000  0.4510480000000 1.0
C      1  0.4512100000000  0.4688540000000  0.4245350000000 1.0
C      1  0.4247190000000  0.5303910000000  0.4501610000000 1.0
C      1  0.5503880000000  0.5303830000000  0.4245570000000 1.0
C      1  0.5759910000000  0.5303700000000  0.5502270000000 1.0
C      1  0.4503220000000  0.5303780000000  0.5758300000000 1.0
C      1  0.4111120000000  0.4683810000000  0.4834480000000 1.0
C      1  0.4836100000000  0.4683660000000  0.5894260000000 1.0
C      1  0.5895880000000  0.4683640000000  0.5169280000000 1.0
C      1  0.5170890000000  0.4683790000000  0.4109500000000 1.0
C      1  0.4107640000000  0.5307630000000  0.5166470000000 1.0
C      1  0.4839010000000  0.5307660000000  0.4106020000000 1.0
C      1  0.5899460000000  0.5307510000000  0.4837400000000 1.0
C      1  0.5168090000000  0.5307480000000  0.5897850000000 1.0
C      1  0.4158770000000  0.4853630000000  0.4607650000000 1.0
C      1  0.4609270000000  0.4853490000000  0.5846640000000 1.0
C      1  0.5848260000000  0.4853420000000  0.5396140000000 1.0
C      1  0.5397750000000  0.4853570000000  0.4157150000000 1.0
C      1  0.4140600000000  0.5138670000000  0.5398070000000 1.0
C      1  0.4607390000000  0.5138740000000  0.4138980000000 1.0
C      1  0.5866480000000  0.5138590000000  0.4605780000000 1.0
C      1  0.5399680000000  0.5138520000000  0.5864860000000 1.0
C      1  0.5139770000000  0.5034880000000  0.5291540000000 1.0
C      1  0.5293160000000  0.5034910000000  0.4865670000000 1.0
C      1  0.4713900000000  0.5034930000000  0.5138150000000 1.0
C      1  0.4867290000000  0.5034960000000  0.4712280000000 1.0
C      1  0.5003570000000  0.5507230000000  0.5001950000000 1.0
C      1  0.5003480000000  0.4475930000000  0.5001860000000 1.0
C      1  0.5003520000000  0.4988280000000  0.5001910000000 1.0
END
