TITL C-101436-5186-8 -0.0533496181254617 125000 -296.50183696174 0 0 44 (S4) n - 1
REM
REM in /rds/project/t2_vol4/rds-t2-cs072/BORA/CARBON/from-Arr/AIRSS/Generating-Clusters/GAP-ML-2020/Higher-Symm/SD-CG/HFTN-CG
REM
REM
REM
REM
REM
REM ./C.cell (b20cbc046b6831c77cfcea5457e17084)
REM AIRSS Version 0.9.1 bugfix July 2018 build 013d7b7c2542+ Fri, 06 Jul 2018 19:26:36 +0100
REM compiler GCC version 9.3.0
REM options -cpp -mtune=generic -march=x86-64 -g -O0
REM seed -600732931 -733223673 1141236272 -263662852 -1652020312 1101627400 769884962 -1820418122 2045864126 284264804 -1580338067 652843218 818839592 2140234569 413414476 761874625 1946229038 -687141424 -1181736217 1363748612 477740824 465638675 321623269 1540017958 1028458248 817982011 880346796 1321193711 -1921011412 -1133420658 199701231 -833679738 -862102006
REM
CELL 1.54180   50.00000   50.00000   50.00000   90.00000   90.00000   90.00000
LATT -1
SFAC C  
C      1  0.5034560000000  0.5081380000000  0.5348100000000 1.0
C      1  0.4965250000000  0.5348090000000  0.4918640000000 1.0
C      1  0.5034600000000  0.4918660000000  0.4651890000000 1.0
C      1  0.4965590000000  0.4651880000000  0.5081360000000 1.0
C      1  0.5438000000000  0.4569280000000  0.4998270000000 1.0
C      1  0.4562220000000  0.4998080000000  0.5430950000000 1.0
C      1  0.5437590000000  0.5431140000000  0.5001690000000 1.0
C      1  0.4562180000000  0.5001500000000  0.4569090000000 1.0
C      1  0.4826540000000  0.4964740000000  0.5546480000000 1.0
C      1  0.5173240000000  0.5546550000000  0.5035160000000 1.0
C      1  0.4826460000000  0.5035090000000  0.4453540000000 1.0
C      1  0.5173760000000  0.4453610000000  0.4964820000000 1.0
C      1  0.5451630000000  0.4753250000000  0.5229500000000 1.0
C      1  0.4548400000000  0.5229300000000  0.5246990000000 1.0
C      1  0.5451370000000  0.5247190000000  0.4770460000000 1.0
C      1  0.4548600000000  0.4770270000000  0.4753050000000 1.0
C      1  0.5149100000000  0.5174270000000  0.4760880000000 1.0
C      1  0.4850920000000  0.4760820000000  0.4825810000000 1.0
C      1  0.5149290000000  0.4825870000000  0.5239100000000 1.0
C      1  0.4850700000000  0.5239040000000  0.5174210000000 1.0
C      1  0.4843320000000  0.4487410000000  0.4636070000000 1.0
C      1  0.5157110000000  0.4636140000000  0.5512510000000 1.0
C      1  0.4842860000000  0.5512440000000  0.5363950000000 1.0
C      1  0.5156710000000  0.5364020000000  0.4487480000000 1.0
C      1  0.4752900000000  0.4610170000000  0.5290580000000 1.0
C      1  0.5247180000000  0.5290690000000  0.5389690000000 1.0
C      1  0.4752500000000  0.5389590000000  0.4709440000000 1.0
C      1  0.5247430000000  0.4709550000000  0.4610280000000 1.0
C      1  0.5578410000000  0.4996510000000  0.4856720000000 1.0
C      1  0.4421660000000  0.4856460000000  0.5003800000000 1.0
C      1  0.5578420000000  0.5004050000000  0.5143230000000 1.0
C      1  0.4421520000000  0.5142980000000  0.4996260000000 1.0
C      1  0.5117490000000  0.4448600000000  0.4678540000000 1.0
C      1  0.4882950000000  0.4678490000000  0.5551460000000 1.0
C      1  0.5116980000000  0.5551510000000  0.5321450000000 1.0
C      1  0.4882590000000  0.5321400000000  0.4448550000000 1.0
C      1  0.5479640000000  0.5260230000000  0.5230080000000 1.0
C      1  0.4520130000000  0.5229870000000  0.4740020000000 1.0
C      1  0.5479870000000  0.4740230000000  0.4769870000000 1.0
C      1  0.4520370000000  0.4769660000000  0.5260020000000 1.0
C      1  0.5417500000000  0.4619180000000  0.5498820000000 1.0
C      1  0.4582480000000  0.5498640000000  0.5381040000000 1.0
C      1  0.5417090000000  0.5381220000000  0.4501140000000 1.0
C      1  0.4582930000000  0.4500960000000  0.4619000000000 1.0
END
