TITL C-100743-6175-3 0.00571017611257011 125000 -415.400419398495 0 0 64 (T23) n - 1
REM
REM in /rds/project/t2_vol4/rds-t2-cs072/BORA/CARBON/from-Arr/AIRSS/Generating-Clusters/GAP-ML-2020/Higher-Symm/SD-CG/HFTN-CG
REM
REM
REM
REM
REM
REM ./C.cell (b20cbc046b6831c77cfcea5457e17084)
REM AIRSS Version 0.9.1 bugfix July 2018 build 013d7b7c2542+ Fri, 06 Jul 2018 19:26:36 +0100
REM compiler GCC version 9.3.0
REM options -cpp -mtune=generic -march=x86-64 -g -O0
REM seed -376917452 2056912021 1048514694 -811373485 1089319012 -1912003839 1435618831 -1098798293 1794757019 558394646 -764923360 -967111146 -1197585436 748536297 274161789 -575959457 179808070 -125990936 -1406021458 -282649627 1134720324 815702371 -454429076 1464132866 -891193892 643574616 745469924 -254874330 -2002536984 713531307 -1084733101 1323812300 -1325682466
REM
CELL 1.54180   50.00000   50.00000   50.00000   90.00000   90.00000   90.00000
LATT -1
SFAC C  
C      1  0.5231390000000  0.5189720000000  0.5000330000000 1.0
C      1  0.5000800000000  0.5233320000000  0.5187330000000 1.0
C      1  0.5187800000000  0.5002720000000  0.5230930000000 1.0
C      1  0.5231380000000  0.4811190000000  0.4995820000000 1.0
C      1  0.4765670000000  0.4811190000000  0.5000340000000 1.0
C      1  0.4765680000000  0.5189730000000  0.4995810000000 1.0
C      1  0.5000790000000  0.4767600000000  0.4808810000000 1.0
C      1  0.4996270000000  0.4767610000000  0.5187350000000 1.0
C      1  0.4996280000000  0.5233310000000  0.4808800000000 1.0
C      1  0.5187800000000  0.4998190000000  0.4765220000000 1.0
C      1  0.4809260000000  0.4998210000000  0.5230930000000 1.0
C      1  0.4809260000000  0.5002720000000  0.4765220000000 1.0
C      1  0.5651820000000  0.5084730000000  0.5115800000000 1.0
C      1  0.5116270000000  0.5653740000000  0.5082330000000 1.0
C      1  0.5082810000000  0.5118200000000  0.5651350000000 1.0
C      1  0.5651810000000  0.4916170000000  0.4880350000000 1.0
C      1  0.4345250000000  0.4916200000000  0.5115800000000 1.0
C      1  0.4345250000000  0.5084750000000  0.4880340000000 1.0
C      1  0.5116250000000  0.4347170000000  0.4913810000000 1.0
C      1  0.4880790000000  0.4347180000000  0.5082370000000 1.0
C      1  0.4880820000000  0.5653740000000  0.4913780000000 1.0
C      1  0.5082810000000  0.4882710000000  0.4344790000000 1.0
C      1  0.4914250000000  0.4882750000000  0.5651360000000 1.0
C      1  0.4914260000000  0.5118170000000  0.4344790000000 1.0
C      1  0.4518450000000  0.4660510000000  0.5111010000000 1.0
C      1  0.5111460000000  0.4520380000000  0.4658130000000 1.0
C      1  0.4658580000000  0.5113390000000  0.4518000000000 1.0
C      1  0.4518470000000  0.5340420000000  0.4885130000000 1.0
C      1  0.5478610000000  0.5340410000000  0.5111000000000 1.0
C      1  0.5478600000000  0.4660490000000  0.4885150000000 1.0
C      1  0.5111470000000  0.5480540000000  0.5338020000000 1.0
C      1  0.4885610000000  0.5480520000000  0.4658100000000 1.0
C      1  0.4885590000000  0.4520400000000  0.5338040000000 1.0
C      1  0.4658570000000  0.4887540000000  0.5478150000000 1.0
C      1  0.5338490000000  0.4887510000000  0.4518010000000 1.0
C      1  0.5338490000000  0.5113400000000  0.5478140000000 1.0
C      1  0.5568480000000  0.5039000000000  0.4629710000000 1.0
C      1  0.4630170000000  0.5570410000000  0.5036610000000 1.0
C      1  0.5037080000000  0.4632110000000  0.5568030000000 1.0
C      1  0.5568470000000  0.4961900000000  0.5366440000000 1.0
C      1  0.4428590000000  0.4961900000000  0.4629700000000 1.0
C      1  0.4428590000000  0.5039040000000  0.5366440000000 1.0
C      1  0.4630150000000  0.4430520000000  0.4959530000000 1.0
C      1  0.5366890000000  0.4430510000000  0.5036650000000 1.0
C      1  0.5366910000000  0.5570400000000  0.4959500000000 1.0
C      1  0.5037100000000  0.5368810000000  0.4428120000000 1.0
C      1  0.4959980000000  0.5368840000000  0.5568010000000 1.0
C      1  0.4959970000000  0.4632080000000  0.4428140000000 1.0
C      1  0.5311910000000  0.4579890000000  0.5541270000000 1.0
C      1  0.5541720000000  0.5313820000000  0.4577490000000 1.0
C      1  0.4577960000000  0.5543660000000  0.5311440000000 1.0
C      1  0.5311930000000  0.5421010000000  0.4454880000000 1.0
C      1  0.4685150000000  0.5421050000000  0.5541240000000 1.0
C      1  0.4685140000000  0.4579870000000  0.4454900000000 1.0
C      1  0.5541710000000  0.4687070000000  0.5418660000000 1.0
C      1  0.4455350000000  0.4687070000000  0.4577500000000 1.0
C      1  0.4455350000000  0.5313870000000  0.5418640000000 1.0
C      1  0.4577950000000  0.4457280000000  0.4684700000000 1.0
C      1  0.5419100000000  0.4457280000000  0.5311480000000 1.0
C      1  0.5419120000000  0.5543620000000  0.4684670000000 1.0
C      1  0.5380130000000  0.4618840000000  0.4616480000000 1.0
C      1  0.4616930000000  0.5382060000000  0.4616460000000 1.0
C      1  0.4616920000000  0.4618870000000  0.5379690000000 1.0
C      1  0.5380140000000  0.5382070000000  0.5379670000000 1.0
END
