TITL C-101430-5159-3 231.99237740735 125000 -1217.78239835832 0 0 175 (C2) n - 1
REM
REM in /rds/project/t2_vol4/rds-t2-cs072/BORA/CARBON/from-Arr/AIRSS/Generating-Clusters/GAP-ML-2020/Higher-Symm/SD-CG/HFTN-CG
REM
REM
REM
REM
REM
REM ./C.cell (b20cbc046b6831c77cfcea5457e17084)
REM AIRSS Version 0.9.1 bugfix July 2018 build 013d7b7c2542+ Fri, 06 Jul 2018 19:26:36 +0100
REM compiler GCC version 9.3.0
REM options -cpp -mtune=generic -march=x86-64 -g -O0
REM seed 1566291297 -1795428776 -494329812 -1611512242 128291254 -1591036940 1189588603 -1021653298 -394579740 -1632360583 1986618416 -980304536 1442124527 -1832993905 463562725 -1904437368 -463773597 1832404616 -147849233 -1539035270 -1795583048 -472844950 368945784 1037224562 125554755 607216525 -447099806 1141259225 456050368 151665315 1664054564 2110807454 1354911953
REM
CELL 1.54180   50.00000   50.00000   50.00000   90.00000   90.00000   90.00000
LATT -1
SFAC C  
C      1  0.5281150000000  0.5634290000000  0.4158930000000 1.0
C      1  0.5281220000000  0.4366030000000  0.5843310000000 1.0
C      1  0.4721430000000  0.5626670000000  0.4162770000000 1.0
C      1  0.4721500000000  0.4373660000000  0.5839520000000 1.0
C      1  0.4722180000000  0.4974670000000  0.4412260000000 1.0
C      1  0.4722230000000  0.5025660000000  0.5590030000000 1.0
C      1  0.5287540000000  0.4972340000000  0.4421930000000 1.0
C      1  0.5287590000000  0.5027990000000  0.5580310000000 1.0
C      1  0.4186950000000  0.5102990000000  0.5519240000000 1.0
C      1  0.4186900000000  0.4897340000000  0.4483100000000 1.0
C      1  0.5822730000000  0.5094820000000  0.5516690000000 1.0
C      1  0.5822680000000  0.4905490000000  0.4485510000000 1.0
C      1  0.4707640000000  0.4288990000000  0.4209340000000 1.0
C      1  0.4707710000000  0.5711340000000  0.5792950000000 1.0
C      1  0.5291820000000  0.4292100000000  0.4218590000000 1.0
C      1  0.5291890000000  0.5708230000000  0.5783650000000 1.0
C      1  0.4656330000000  0.5344480000000  0.4119410000000 1.0
C      1  0.4656400000000  0.4655850000000  0.5882890000000 1.0
C      1  0.5345060000000  0.5349340000000  0.4115140000000 1.0
C      1  0.5345130000000  0.4650980000000  0.5887100000000 1.0
C      1  0.5159980000000  0.4885100000000  0.5868720000000 1.0
C      1  0.5159900000000  0.5115220000000  0.4133530000000 1.0
C      1  0.4842830000000  0.4889080000000  0.5861150000000 1.0
C      1  0.4842760000000  0.5111250000000  0.4141130000000 1.0
C      1  0.4858130000000  0.4427570000000  0.4015230000000 1.0
C      1  0.4858220000000  0.5572750000000  0.5987040000000 1.0
C      1  0.5147380000000  0.4427870000000  0.4016520000000 1.0
C      1  0.5147470000000  0.5572460000000  0.5985730000000 1.0
C      1  0.4817930000000  0.5310050000000  0.5145430000000 1.0
C      1  0.4817910000000  0.4690280000000  0.4856860000000 1.0
C      1  0.5125130000000  0.5299530000000  0.5112090000000 1.0
C      1  0.5125120000000  0.4700790000000  0.4890160000000 1.0
C      1  0.5619190000000  0.4195350000000  0.4969060000000 1.0
C      1  0.5619200000000  0.5804970000000  0.5033160000000 1.0
C      1  0.4355780000000  0.4194510000000  0.4954520000000 1.0
C      1  0.4355790000000  0.5805820000000  0.5047800000000 1.0
C      1  0.5121400000000  0.4196490000000  0.6016990000000 1.0
C      1  0.5121330000000  0.5803830000000  0.3985260000000 1.0
C      1  0.4864960000000  0.4195530000000  0.6016580000000 1.0
C      1  0.4864880000000  0.5804800000000  0.3985700000000 1.0
C      1  0.4729200000000  0.4467400000000  0.5066400000000 1.0
C      1  0.4729200000000  0.5532930000000  0.4935890000000 1.0
C      1  0.5239200000000  0.4465980000000  0.5076710000000 1.0
C      1  0.5239200000000  0.5534350000000  0.4925530000000 1.0
C      1  0.5538550000000  0.5589950000000  0.4872140000000 1.0
C      1  0.5538560000000  0.4410370000000  0.5130080000000 1.0
C      1  0.4440490000000  0.5597900000000  0.4877380000000 1.0
C      1  0.4440490000000  0.4402430000000  0.5124940000000 1.0
C      1  0.4181640000000  0.4770400000000  0.5198030000000 1.0
C      1  0.4181620000000  0.5229940000000  0.4804310000000 1.0
C      1  0.5851190000000  0.4743270000000  0.5197340000000 1.0
C      1  0.5851180000000  0.5257040000000  0.4804850000000 1.0
C      1  0.4708270000000  0.4670320000000  0.3967170000000 1.0
C      1  0.4708360000000  0.5330010000000  0.6035120000000 1.0
C      1  0.5295970000000  0.4671670000000  0.3969520000000 1.0
C      1  0.5296070000000  0.5328650000000  0.6032720000000 1.0
C      1  0.4405080000000  0.5034310000000  0.5705550000000 1.0
C      1  0.4405020000000  0.4966030000000  0.4296760000000 1.0
C      1  0.5596580000000  0.5029070000000  0.5698060000000 1.0
C      1  0.5596520000000  0.4971250000000  0.4304150000000 1.0
C      1  0.5138310000000  0.5475160000000  0.4644800000000 1.0
C      1  0.5138330000000  0.4525170000000  0.5357450000000 1.0
C      1  0.4832540000000  0.5459350000000  0.4659660000000 1.0
C      1  0.4832570000000  0.4540980000000  0.5342620000000 1.0
C      1  0.4272290000000  0.5464490000000  0.4682890000000 1.0
C      1  0.4272310000000  0.4535840000000  0.5319440000000 1.0
C      1  0.5727100000000  0.5476160000000  0.4680950000000 1.0
C      1  0.5727120000000  0.4524160000000  0.5321250000000 1.0
C      1  0.4413020000000  0.4737330000000  0.5769380000000 1.0
C      1  0.4412960000000  0.5263000000000  0.4232940000000 1.0
C      1  0.5586790000000  0.4732760000000  0.5769370000000 1.0
C      1  0.5586730000000  0.5267560000000  0.4232840000000 1.0
C      1  0.5521560000000  0.5537290000000  0.5710300000000 1.0
C      1  0.5521490000000  0.4463030000000  0.4291920000000 1.0
C      1  0.4471290000000  0.5544500000000  0.5726250000000 1.0
C      1  0.4471220000000  0.4455830000000  0.4276060000000 1.0
C      1  0.5612100000000  0.5938150000000  0.4538560000000 1.0
C      1  0.5612130000000  0.4062170000000  0.5463650000000 1.0
C      1  0.4357510000000  0.5931650000000  0.4545690000000 1.0
C      1  0.4357540000000  0.4068690000000  0.5456630000000 1.0
C      1  0.5672710000000  0.5480500000000  0.4405670000000 1.0
C      1  0.5672760000000  0.4519820000000  0.5596540000000 1.0
C      1  0.4319540000000  0.5470610000000  0.4406020000000 1.0
C      1  0.4319590000000  0.4529730000000  0.5596300000000 1.0
C      1  0.5133500000000  0.4200160000000  0.4966790000000 1.0
C      1  0.5133510000000  0.5800170000000  0.5035460000000 1.0
C      1  0.4842450000000  0.4199030000000  0.4963680000000 1.0
C      1  0.4842470000000  0.5801300000000  0.5038590000000 1.0
C      1  0.4404330000000  0.4990890000000  0.4850080000000 1.0
C      1  0.4404340000000  0.5009440000000  0.5152230000000 1.0
C      1  0.5628880000000  0.5019180000000  0.4853350000000 1.0
C      1  0.5628890000000  0.4981140000000  0.5148850000000 1.0
C      1  0.4463560000000  0.5773250000000  0.5302580000000 1.0
C      1  0.4463530000000  0.4227090000000  0.4699730000000 1.0
C      1  0.5519690000000  0.5764460000000  0.5290600000000 1.0
C      1  0.5519660000000  0.4235860000000  0.4711620000000 1.0
C      1  0.5736780000000  0.4720860000000  0.4692640000000 1.0
C      1  0.5736800000000  0.5279450000000  0.5309560000000 1.0
C      1  0.4274640000000  0.4713600000000  0.4687310000000 1.0
C      1  0.4274670000000  0.5286730000000  0.5315020000000 1.0
C      1  0.5523210000000  0.5299020000000  0.5861490000000 1.0
C      1  0.5523130000000  0.4701300000000  0.4140730000000 1.0
C      1  0.4475140000000  0.5301040000000  0.5870920000000 1.0
C      1  0.4475060000000  0.4699290000000  0.4131390000000 1.0
C      1  0.5945770000000  0.4707680000000  0.4911290000000 1.0
C      1  0.5945780000000  0.5292640000000  0.5090900000000 1.0
C      1  0.4080490000000  0.4722570000000  0.4913300000000 1.0
C      1  0.4080500000000  0.5277760000000  0.5089040000000 1.0
C      1  0.5236000000000  0.4692480000000  0.4592620000000 1.0
C      1  0.5236040000000  0.5307840000000  0.5409630000000 1.0
C      1  0.4763880000000  0.4677130000000  0.4559100000000 1.0
C      1  0.4763930000000  0.5323200000000  0.5443190000000 1.0
C      1  0.5143980000000  0.5101600000000  0.6070310000000 1.0
C      1  0.5143890000000  0.4898720000000  0.3931940000000 1.0
C      1  0.4859020000000  0.5102940000000  0.6069550000000 1.0
C      1  0.4858930000000  0.4897380000000  0.3932730000000 1.0
C      1  0.3886430000000  0.4918740000000  0.4869810000000 1.0
C      1  0.3886440000000  0.5081600000000  0.5132550000000 1.0
C      1  0.6119320000000  0.4921230000000  0.4871450000000 1.0
C      1  0.6119330000000  0.5079090000000  0.5130720000000 1.0
C      1  0.6016250000000  0.5067190000000  0.4649640000000 1.0
C      1  0.6016280000000  0.4933120000000  0.5352540000000 1.0
C      1  0.4001220000000  0.5054760000000  0.4651670000000 1.0
C      1  0.4001250000000  0.4945580000000  0.5350680000000 1.0
C      1  0.5123260000000  0.5944020000000  0.4565470000000 1.0
C      1  0.5123290000000  0.4056310000000  0.5436780000000 1.0
C      1  0.4849020000000  0.5937990000000  0.4569580000000 1.0
C      1  0.4849050000000  0.4062340000000  0.5432700000000 1.0
C      1  0.4724040000000  0.5914150000000  0.5325320000000 1.0
C      1  0.4724000000000  0.4086180000000  0.4676970000000 1.0
C      1  0.5260390000000  0.5907230000000  0.5317380000000 1.0
C      1  0.5260360000000  0.4093090000000  0.4684870000000 1.0
C      1  0.5239820000000  0.6015480000000  0.4826990000000 1.0
C      1  0.5239830000000  0.3984850000000  0.5175250000000 1.0
C      1  0.4733530000000  0.6012160000000  0.4830260000000 1.0
C      1  0.4733530000000  0.3988170000000  0.5172030000000 1.0
C      1  0.5527540000000  0.5960120000000  0.4805050000000 1.0
C      1  0.5527540000000  0.4040200000000  0.5197170000000 1.0
C      1  0.4447000000000  0.5953010000000  0.4810880000000 1.0
C      1  0.4447000000000  0.4047320000000  0.5191430000000 1.0
C      1  0.5533810000000  0.4513610000000  0.4588530000000 1.0
C      1  0.5533850000000  0.5486710000000  0.5413680000000 1.0
C      1  0.4452880000000  0.4495260000000  0.4571290000000 1.0
C      1  0.4452920000000  0.5505070000000  0.5431020000000 1.0
C      1  0.5138290000000  0.5851500000000  0.5588810000000 1.0
C      1  0.5138230000000  0.4148830000000  0.4413440000000 1.0
C      1  0.4853560000000  0.5854230000000  0.5593320000000 1.0
C      1  0.4853490000000  0.4146100000000  0.4408960000000 1.0
C      1  0.4840070000000  0.5142050000000  0.4635870000000 1.0
C      1  0.4840110000000  0.4858280000000  0.5366410000000 1.0
C      1  0.5165750000000  0.5169810000000  0.4606740000000 1.0
C      1  0.5165790000000  0.4830510000000  0.5395510000000 1.0
C      1  0.4756400000000  0.3802700000000  0.4757120000000 1.0
C      1  0.4756440000000  0.6197630000000  0.5245170000000 1.0
C      1  0.5225510000000  0.3806850000000  0.4760980000000 1.0
C      1  0.5225550000000  0.6193480000000  0.5241270000000 1.0
C      1  0.5525010000000  0.4272400000000  0.5630200000000 1.0
C      1  0.5524960000000  0.5727920000000  0.4372020000000 1.0
C      1  0.4450580000000  0.4274460000000  0.5622010000000 1.0
C      1  0.4450540000000  0.5725870000000  0.4380310000000 1.0
C      1  0.5358070000000  0.5090270000000  0.4795400000000 1.0
C      1  0.5358090000000  0.4910050000000  0.5206820000000 1.0
C      1  0.4706690000000  0.4971720000000  0.4856830000000 1.0
C      1  0.4706700000000  0.5028610000000  0.5145470000000 1.0
C      1  0.4736630000000  0.5689400000000  0.4449540000000 1.0
C      1  0.4736670000000  0.4310930000000  0.5552750000000 1.0
C      1  0.5234470000000  0.5697700000000  0.4447110000000 1.0
C      1  0.5234510000000  0.4302630000000  0.5555130000000 1.0
C      1  0.4845840000000  0.6246700000000  0.4985280000000 1.0
C      1  0.4845830000000  0.3753630000000  0.5017000000000 1.0
C      1  0.5128980000000  0.6246890000000  0.4984470000000 1.0
C      1  0.5128970000000  0.3753430000000  0.5017790000000 1.0
C      1  0.5010320000000  0.4616030000000  0.4443280000000 1.0
C      1  0.5010380000000  0.5384290000000  0.5558980000000 1.0
C      1  0.5193440000000  0.5000160000000  0.5001120000000 1.0
END
