TITL C-105258-9087-4 -0.0975048625531899 125000 -290.40291282554 0 0 43 (C2) n - 1
REM
REM in /rds/project/t2_vol4/rds-t2-cs072/BORA/CARBON/from-Arr/AIRSS/Generating-Clusters/GAP-ML-2020/Higher-Symm/SD-CG/HFTN-CG
REM
REM
REM
REM
REM
REM ./C.cell (b20cbc046b6831c77cfcea5457e17084)
REM AIRSS Version 0.9.1 bugfix July 2018 build 013d7b7c2542+ Fri, 06 Jul 2018 19:26:36 +0100
REM compiler GCC version 9.3.0
REM options -cpp -mtune=generic -march=x86-64 -g -O0
REM seed 1003274495 546896656 535727430 -595392293 825500117 -2196254 2104239798 -227514920 1618969840 -935477067 -230097571 1103083637 1398229046 -524535788 1075900060 -807617532 2049483096 534300640 -2043376319 -1742709066 -795805984 -446747704 1458925240 946488192 -1253071761 -1470677065 -1094847646 1613660680 -295515209 -1742463148 1370937013 -941955899 1971077439
REM
CELL 1.54180   50.00000   50.00000   50.00000   90.00000   90.00000   90.00000
LATT -1
SFAC C  
C      1  0.5289620000000  0.5406020000000  0.5306570000000 1.0
C      1  0.4729000000000  0.4591200000000  0.5306580000000 1.0
C      1  0.5439550000000  0.4720770000000  0.5078650000000 1.0
C      1  0.4579070000000  0.5276440000000  0.5078650000000 1.0
C      1  0.5203630000000  0.5515920000000  0.5061760000000 1.0
C      1  0.4814990000000  0.4481290000000  0.5061760000000 1.0
C      1  0.4816880000000  0.5374030000000  0.4683730000000 1.0
C      1  0.5201730000000  0.4623180000000  0.4683730000000 1.0
C      1  0.4586730000000  0.4834020000000  0.5274320000000 1.0
C      1  0.5431890000000  0.5163200000000  0.5274320000000 1.0
C      1  0.4871440000000  0.4962670000000  0.4912120000000 1.0
C      1  0.5147180000000  0.5034540000000  0.4912110000000 1.0
C      1  0.4375750000000  0.5123490000000  0.4963520000000 1.0
C      1  0.5642870000000  0.4873720000000  0.4963520000000 1.0
C      1  0.4818450000000  0.4692810000000  0.4372700000000 1.0
C      1  0.5200160000000  0.5304390000000  0.4372700000000 1.0
C      1  0.5268900000000  0.4946590000000  0.5160700000000 1.0
C      1  0.4749710000000  0.5050630000000  0.5160700000000 1.0
C      1  0.5543070000000  0.5250650000000  0.4825740000000 1.0
C      1  0.4475550000000  0.4746560000000  0.4825740000000 1.0
C      1  0.4742040000000  0.5467960000000  0.4936930000000 1.0
C      1  0.5276580000000  0.4529250000000  0.4936930000000 1.0
C      1  0.5626720000000  0.5145250000000  0.5074960000000 1.0
C      1  0.4391890000000  0.4851960000000  0.5074960000000 1.0
C      1  0.5261950000000  0.5341740000000  0.4841650000000 1.0
C      1  0.4756670000000  0.4655470000000  0.4841650000000 1.0
C      1  0.4929110000000  0.5604630000000  0.5104390000000 1.0
C      1  0.5089510000000  0.4392590000000  0.5104390000000 1.0
C      1  0.4894060000000  0.5641070000000  0.5380870000000 1.0
C      1  0.5124550000000  0.4356140000000  0.5380870000000 1.0
C      1  0.4456360000000  0.5015190000000  0.4712970000000 1.0
C      1  0.5562250000000  0.4982020000000  0.4712960000000 1.0
C      1  0.4922760000000  0.4608880000000  0.4605820000000 1.0
C      1  0.5095850000000  0.5388330000000  0.4605820000000 1.0
C      1  0.5073220000000  0.5454340000000  0.5497640000000 1.0
C      1  0.4945400000000  0.4542880000000  0.5497640000000 1.0
C      1  0.4873440000000  0.4947290000000  0.4441180000000 1.0
C      1  0.5145170000000  0.5049920000000  0.4441180000000 1.0
C      1  0.4728290000000  0.5092220000000  0.4650020000000 1.0
C      1  0.5290320000000  0.4904990000000  0.4650020000000 1.0
C      1  0.4997840000000  0.4741750000000  0.5675740000000 1.0
C      1  0.5020780000000  0.5255470000000  0.5675740000000 1.0
C      1  0.5009310000000  0.4998610000000  0.5676360000000 1.0
END
