TITL C-107705-8578-1 -0.477126927291518 125000 -1258.85884950939 0 0 175 (C1) n - 1
REM
REM in /rds/project/t2_vol4/rds-t2-cs072/BORA/CARBON/from-Arr/AIRSS/Generating-Clusters/GAP-ML-2020/Higher-Symm/SD-CG/HFTN-CG/C160-200
REM
REM
REM
REM
REM
REM ./C.cell (6b4489405718ea1b717e0baf1da4c2d9)
REM AIRSS Version 0.9.1 bugfix July 2018 build 013d7b7c2542+ Fri, 06 Jul 2018 19:26:36 +0100
REM compiler GCC version 9.3.0
REM options -cpp -mtune=generic -march=x86-64 -g -O0
REM seed -1926417144 1349832716 -1118548253 -895488920 -54197445 -613449647 -618275409 1022237508 -736276893 949847433 571302137 49156917 1738048568 -281893513 -1195732223 -1323034110 -1021846917 -57278058 -1159158827 1655194079 -772465818 -1434793564 -123806960 1347009573 309053791 -392360341 1349199575 556687630 905620240 2140429962 504373653 -1575505650 791963476
REM
CELL 1.54180   50.00000   50.00000   50.00000   90.00000   90.00000   90.00000
LATT -1
SFAC C  
C      1  0.4589280000000  0.5300060000000  0.4153460000000 1.0
C      1  0.4177390000000  0.5293840000000  0.4470840000000 1.0
C      1  0.4036890000000  0.5297250000000  0.4962690000000 1.0
C      1  0.4218390000000  0.5315330000000  0.5455380000000 1.0
C      1  0.4642430000000  0.5342340000000  0.5758670000000 1.0
C      1  0.5140650000000  0.5334650000000  0.5896930000000 1.0
C      1  0.5651260000000  0.5332530000000  0.5748750000000 1.0
C      1  0.5964370000000  0.5330040000000  0.5310250000000 1.0
C      1  0.5920350000000  0.5332630000000  0.4753470000000 1.0
C      1  0.5584040000000  0.5329560000000  0.4355760000000 1.0
C      1  0.5111300000000  0.5316960000000  0.4129700000000 1.0
C      1  0.4109020000000  0.4202360000000  0.4974910000000 1.0
C      1  0.4260500000000  0.4219950000000  0.5438200000000 1.0
C      1  0.4659060000000  0.4277550000000  0.5709210000000 1.0
C      1  0.5134870000000  0.4240480000000  0.5840030000000 1.0
C      1  0.5564380000000  0.4216910000000  0.5677870000000 1.0
C      1  0.5849810000000  0.4200040000000  0.5272340000000 1.0
C      1  0.5816840000000  0.4234270000000  0.4784700000000 1.0
C      1  0.5565680000000  0.4215340000000  0.4363570000000 1.0
C      1  0.5129440000000  0.4216310000000  0.4149750000000 1.0
C      1  0.4644130000000  0.4208090000000  0.4198350000000 1.0
C      1  0.4264140000000  0.4193050000000  0.4506650000000 1.0
C      1  0.5142400000000  0.5608040000000  0.5849280000000 1.0
C      1  0.5638030000000  0.5612530000000  0.5716710000000 1.0
C      1  0.5908900000000  0.5605540000000  0.5308110000000 1.0
C      1  0.5868350000000  0.5604390000000  0.4792940000000 1.0
C      1  0.5534780000000  0.5602950000000  0.4422320000000 1.0
C      1  0.5093170000000  0.5592350000000  0.4183780000000 1.0
C      1  0.4594280000000  0.5580970000000  0.4198970000000 1.0
C      1  0.4183510000000  0.5579880000000  0.4490750000000 1.0
C      1  0.4048630000000  0.5580940000000  0.4959230000000 1.0
C      1  0.4243470000000  0.5591150000000  0.5432220000000 1.0
C      1  0.4663530000000  0.5628960000000  0.5706990000000 1.0
C      1  0.5349050000000  0.6316960000000  0.4986320000000 1.0
C      1  0.5389720000000  0.6173000000000  0.4742810000000 1.0
C      1  0.5198070000000  0.6197060000000  0.4550220000000 1.0
C      1  0.4932750000000  0.6151670000000  0.4530740000000 1.0
C      1  0.4757980000000  0.6306840000000  0.4695490000000 1.0
C      1  0.4523560000000  0.6207480000000  0.4836830000000 1.0
C      1  0.4626240000000  0.6338370000000  0.5084060000000 1.0
C      1  0.4669010000000  0.6194010000000  0.5327490000000 1.0
C      1  0.4931230000000  0.6198380000000  0.5454450000000 1.0
C      1  0.5136960000000  0.6341350000000  0.5326930000000 1.0
C      1  0.5396730000000  0.6219570000000  0.5256830000000 1.0
C      1  0.4923930000000  0.5756420000000  0.5741850000000 1.0
C      1  0.5386650000000  0.5733890000000  0.5772240000000 1.0
C      1  0.5750560000000  0.5751990000000  0.5498840000000 1.0
C      1  0.5838550000000  0.5705370000000  0.5056520000000 1.0
C      1  0.5672680000000  0.5743100000000  0.4633060000000 1.0
C      1  0.5269100000000  0.5693630000000  0.4388860000000 1.0
C      1  0.4839950000000  0.5715680000000  0.4230140000000 1.0
C      1  0.4419450000000  0.5690310000000  0.4391970000000 1.0
C      1  0.4135800000000  0.5723450000000  0.4732630000000 1.0
C      1  0.4151610000000  0.5708680000000  0.5189880000000 1.0
C      1  0.4466810000000  0.5745270000000  0.5529980000000 1.0
C      1  0.4651980000000  0.3939350000000  0.5380590000000 1.0
C      1  0.4926560000000  0.3940430000000  0.5512630000000 1.0
C      1  0.5220500000000  0.3913040000000  0.5487070000000 1.0
C      1  0.5453490000000  0.3920500000000  0.5302270000000 1.0
C      1  0.5539120000000  0.3922460000000  0.5016980000000 1.0
C      1  0.5449630000000  0.3928200000000  0.4730630000000 1.0
C      1  0.5223690000000  0.3917180000000  0.4521860000000 1.0
C      1  0.4925580000000  0.3913450000000  0.4468060000000 1.0
C      1  0.4652930000000  0.3919040000000  0.4585880000000 1.0
C      1  0.4483960000000  0.3922770000000  0.4836330000000 1.0
C      1  0.4483320000000  0.3929050000000  0.5130130000000 1.0
C      1  0.4606620000000  0.4468330000000  0.4128140000000 1.0
C      1  0.4300970000000  0.4479550000000  0.4515580000000 1.0
C      1  0.4015920000000  0.4459750000000  0.4966510000000 1.0
C      1  0.4271830000000  0.4502900000000  0.5388390000000 1.0
C      1  0.4697690000000  0.4545830000000  0.5624490000000 1.0
C      1  0.5250170000000  0.4506890000000  0.5878780000000 1.0
C      1  0.5518570000000  0.4496440000000  0.5766180000000 1.0
C      1  0.5798910000000  0.4474950000000  0.5292630000000 1.0
C      1  0.5809800000000  0.4519370000000  0.4806940000000 1.0
C      1  0.5510900000000  0.4496250000000  0.4392420000000 1.0
C      1  0.5127720000000  0.4481390000000  0.4094570000000 1.0
C      1  0.4496710000000  0.4516450000000  0.5181990000000 1.0
C      1  0.4746440000000  0.4585120000000  0.5305340000000 1.0
C      1  0.4978420000000  0.4416470000000  0.5185620000000 1.0
C      1  0.5222080000000  0.4513620000000  0.5282500000000 1.0
C      1  0.5488610000000  0.4450150000000  0.5174130000000 1.0
C      1  0.5547800000000  0.4627580000000  0.4955160000000 1.0
C      1  0.5287130000000  0.4499440000000  0.4603720000000 1.0
C      1  0.5035440000000  0.4392700000000  0.4686570000000 1.0
C      1  0.4827430000000  0.4569160000000  0.4618970000000 1.0
C      1  0.4551070000000  0.4509030000000  0.4682580000000 1.0
C      1  0.4501200000000  0.4636610000000  0.4928100000000 1.0
C      1  0.5020040000000  0.5389340000000  0.4667030000000 1.0
C      1  0.4755400000000  0.5308870000000  0.4672440000000 1.0
C      1  0.4605460000000  0.5490010000000  0.4826600000000 1.0
C      1  0.4654670000000  0.5378460000000  0.5094550000000 1.0
C      1  0.4900160000000  0.5443440000000  0.5220280000000 1.0
C      1  0.5073820000000  0.5252730000000  0.5333670000000 1.0
C      1  0.5334320000000  0.5366720000000  0.5359170000000 1.0
C      1  0.5543210000000  0.5169560000000  0.5375700000000 1.0
C      1  0.5619990000000  0.5140290000000  0.5077290000000 1.0
C      1  0.5416610000000  0.5309930000000  0.4937950000000 1.0
C      1  0.5203190000000  0.5206110000000  0.4791780000000 1.0
C      1  0.5075770000000  0.5685820000000  0.4627700000000 1.0
C      1  0.4840890000000  0.5854510000000  0.4491730000000 1.0
C      1  0.4571690000000  0.5773990000000  0.4632350000000 1.0
C      1  0.4385660000000  0.5940360000000  0.4819880000000 1.0
C      1  0.4334540000000  0.5905750000000  0.5115970000000 1.0
C      1  0.4494690000000  0.5967710000000  0.5344680000000 1.0
C      1  0.5043650000000  0.5984520000000  0.5606680000000 1.0
C      1  0.5326590000000  0.5933840000000  0.5587560000000 1.0
C      1  0.5526630000000  0.5966540000000  0.5361400000000 1.0
C      1  0.5566380000000  0.5816740000000  0.5078200000000 1.0
C      1  0.5552590000000  0.5939690000000  0.4800520000000 1.0
C      1  0.4405780000000  0.4916310000000  0.5648670000000 1.0
C      1  0.4882610000000  0.4912810000000  0.5877410000000 1.0
C      1  0.5397620000000  0.4928770000000  0.5857500000000 1.0
C      1  0.5857740000000  0.4889620000000  0.5548920000000 1.0
C      1  0.5997150000000  0.4900500000000  0.5010120000000 1.0
C      1  0.5788740000000  0.4908360000000  0.4521360000000 1.0
C      1  0.5379910000000  0.4904810000000  0.4194870000000 1.0
C      1  0.4856670000000  0.4890650000000  0.4088210000000 1.0
C      1  0.4359830000000  0.4880810000000  0.4269580000000 1.0
C      1  0.4058410000000  0.4874760000000  0.4696560000000 1.0
C      1  0.4074180000000  0.4894160000000  0.5230400000000 1.0
C      1  0.5658810000000  0.4077790000000  0.5446240000000 1.0
C      1  0.5778790000000  0.4085510000000  0.5021310000000 1.0
C      1  0.5653520000000  0.4091210000000  0.4603030000000 1.0
C      1  0.5329880000000  0.4073770000000  0.4301790000000 1.0
C      1  0.4894690000000  0.4069300000000  0.4221640000000 1.0
C      1  0.4491930000000  0.4065340000000  0.4395200000000 1.0
C      1  0.4242760000000  0.4067040000000  0.4759920000000 1.0
C      1  0.4237350000000  0.4071650000000  0.5198350000000 1.0
C      1  0.4496120000000  0.4113740000000  0.5547960000000 1.0
C      1  0.4895640000000  0.4131080000000  0.5733620000000 1.0
C      1  0.5323090000000  0.4074330000000  0.5713340000000 1.0
C      1  0.4016150000000  0.4733700000000  0.4965660000000 1.0
C      1  0.4219940000000  0.4772680000000  0.5456520000000 1.0
C      1  0.4645990000000  0.4788800000000  0.5757550000000 1.0
C      1  0.5153120000000  0.4778620000000  0.5909680000000 1.0
C      1  0.5598940000000  0.4771720000000  0.5678860000000 1.0
C      1  0.5891820000000  0.4758320000000  0.5269970000000 1.0
C      1  0.5922690000000  0.4771570000000  0.4749930000000 1.0
C      1  0.5595040000000  0.4767690000000  0.4337550000000 1.0
C      1  0.5124100000000  0.4752240000000  0.4107780000000 1.0
C      1  0.4601710000000  0.4741200000000  0.4139570000000 1.0
C      1  0.4194910000000  0.4741640000000  0.4470610000000 1.0
C      1  0.5466290000000  0.4879940000000  0.5411560000000 1.0
C      1  0.5627900000000  0.4846860000000  0.5144370000000 1.0
C      1  0.5324200000000  0.4706450000000  0.4789210000000 1.0
C      1  0.5156430000000  0.4930020000000  0.4752350000000 1.0
C      1  0.4905540000000  0.4847900000000  0.4645090000000 1.0
C      1  0.4697330000000  0.5027440000000  0.4688050000000 1.0
C      1  0.4541420000000  0.4928660000000  0.4904290000000 1.0
C      1  0.4607730000000  0.5079820000000  0.5128040000000 1.0
C      1  0.4776750000000  0.4894220000000  0.5252480000000 1.0
C      1  0.5025370000000  0.4981270000000  0.5309090000000 1.0
C      1  0.5208150000000  0.4784510000000  0.5357340000000 1.0
C      1  0.5368910000000  0.5188620000000  0.4203780000000 1.0
C      1  0.4850090000000  0.5171750000000  0.4101400000000 1.0
C      1  0.4357460000000  0.5163300000000  0.4275450000000 1.0
C      1  0.4064430000000  0.5156280000000  0.4703980000000 1.0
C      1  0.4084300000000  0.5173100000000  0.5222490000000 1.0
C      1  0.4409440000000  0.5197410000000  0.5641080000000 1.0
C      1  0.4881560000000  0.5199220000000  0.5869340000000 1.0
C      1  0.5408290000000  0.5205720000000  0.5862280000000 1.0
C      1  0.5808240000000  0.5181660000000  0.5529130000000 1.0
C      1  0.5934220000000  0.5188720000000  0.5027490000000 1.0
C      1  0.5783220000000  0.5193350000000  0.4528710000000 1.0
C      1  0.5362200000000  0.5548560000000  0.5124190000000 1.0
C      1  0.4851910000000  0.6450300000000  0.4938610000000 1.0
C      1  0.5100340000000  0.6449770000000  0.5059390000000 1.0
C      1  0.5084030000000  0.5643830000000  0.5136140000000 1.0
C      1  0.4996340000000  0.3457730000000  0.4997650000000 1.0
C      1  0.4997610000000  0.3717890000000  0.4994270000000 1.0
C      1  0.5013370000000  0.3967890000000  0.4975210000000 1.0
C      1  0.5037640000000  0.5783380000000  0.4904010000000 1.0
C      1  0.4965040000000  0.6002210000000  0.5013310000000 1.0
C      1  0.4988980000000  0.4245680000000  0.4946700000000 1.0
END
