TITL C-100360-7263-7 -0.00741230343649849 125000 -235.547240260637 0 0 35 (C1) n - 1
REM
REM in /rds/project/t2_vol4/rds-t2-cs072/BORA/CARBON/from-Arr/AIRSS/Generating-Clusters/GAP-ML-2020/Higher-Symm/SD-CG/HFTN-CG
REM
REM
REM
REM
REM
REM ./C.cell (b20cbc046b6831c77cfcea5457e17084)
REM AIRSS Version 0.9.1 bugfix July 2018 build 013d7b7c2542+ Fri, 06 Jul 2018 19:26:36 +0100
REM compiler GCC version 9.3.0
REM options -cpp -mtune=generic -march=x86-64 -g -O0
REM seed 403410553 -367385118 -33958867 1840406495 702223172 1690745749 -1626739517 -750482934 -568779231 -747343009 -1915982200 664701128 793689215 -524860568 1275040629 -1416145995 -1446581004 1264370705 -1147611768 955770676 -1339723439 1698879629 -1362206194 -489785245 -1531936649 -814618969 1041378949 1092539595 -1537062199 -186974994 -1599392279 1662146313 1831762230
REM
CELL 1.54180   50.00000   50.00000   50.00000   90.00000   90.00000   90.00000
LATT -1
SFAC C  
C      1  0.4662240000000  0.5323850000000  0.4715660000000 1.0
C      1  0.4659150000000  0.4827380000000  0.4551520000000 1.0
C      1  0.4597910000000  0.4635970000000  0.5039390000000 1.0
C      1  0.4614020000000  0.4954830000000  0.5412810000000 1.0
C      1  0.4656090000000  0.5410380000000  0.5200600000000 1.0
C      1  0.5398210000000  0.5257400000000  0.5334320000000 1.0
C      1  0.5352600000000  0.4751630000000  0.5382510000000 1.0
C      1  0.5354620000000  0.4546100000000  0.4914490000000 1.0
C      1  0.5402770000000  0.4924300000000  0.4580670000000 1.0
C      1  0.5417680000000  0.5364190000000  0.4835950000000 1.0
C      1  0.5507590000000  0.5361630000000  0.5102750000000 1.0
C      1  0.5507450000000  0.5170440000000  0.4662160000000 1.0
C      1  0.5483120000000  0.4690780000000  0.4709150000000 1.0
C      1  0.5438260000000  0.4587430000000  0.5173410000000 1.0
C      1  0.5469770000000  0.4999990000000  0.5420140000000 1.0
C      1  0.4571620000000  0.5457990000000  0.4935040000000 1.0
C      1  0.4536130000000  0.5211450000000  0.5343350000000 1.0
C      1  0.4500820000000  0.4741310000000  0.5274560000000 1.0
C      1  0.4538650000000  0.4795100000000  0.4800320000000 1.0
C      1  0.4556310000000  0.5050660000000  0.4680020000000 1.0
C      1  0.4942070000000  0.5491960000000  0.5247270000000 1.0
C      1  0.4944280000000  0.5368910000000  0.4617300000000 1.0
C      1  0.4930570000000  0.4743970000000  0.4484380000000 1.0
C      1  0.4860600000000  0.4487040000000  0.5071620000000 1.0
C      1  0.4888670000000  0.4926470000000  0.5534720000000 1.0
C      1  0.5145110000000  0.5486680000000  0.4799830000000 1.0
C      1  0.5122960000000  0.5339420000000  0.5424400000000 1.0
C      1  0.5065570000000  0.4704050000000  0.5457970000000 1.0
C      1  0.5068180000000  0.4467800000000  0.4859470000000 1.0
C      1  0.5133380000000  0.4948180000000  0.4454000000000 1.0
C      1  0.4991470000000  0.4501360000000  0.4595890000000 1.0
C      1  0.4952340000000  0.4483710000000  0.5333240000000 1.0
C      1  0.5043040000000  0.5207040000000  0.4418420000000 1.0
C      1  0.5009980000000  0.5165300000000  0.5607040000000 1.0
C      1  0.5051950000000  0.5615320000000  0.5025640000000 1.0
END
