TITL C-109986-9742-4 -0.166384673683881 125000 -1091.65557201679 0 0 160 (Td) n - 1
REM
REM in /rds/project/t2_vol4/rds-t2-cs072/BORA/CARBON/from-Arr/AIRSS/Generating-Clusters/GAP-ML-2020/Higher-Symm/SD-CG/HFTN-CG
REM
REM
REM
REM
REM
REM ./C.cell (b20cbc046b6831c77cfcea5457e17084)
REM AIRSS Version 0.9.1 bugfix July 2018 build 013d7b7c2542+ Fri, 06 Jul 2018 19:26:36 +0100
REM compiler GCC version 9.3.0
REM options -cpp -mtune=generic -march=x86-64 -g -O0
REM seed 1887996582 -2142911494 1238326128 2145435404 676657610 -1425692710 -942424168 1205714128 -1929734272 -904056157 342360132 -1178423190 -553045457 1016611018 475787681 909295330 -858925724 979724742 -1964339306 -621170770 881170379 157418442 653685864 1772125030 1102887674 -333590715 -614477815 -763458140 1462528839 1235243578 1681396654 1895123523 362045066
REM
CELL 1.54180   50.00000   50.00000   50.00000   90.00000   90.00000   90.00000
LATT -1
SFAC C  
C      1  0.5301350000000  0.4282950000000  0.5513430000000 1.0
C      1  0.4285330000000  0.5515210000000  0.5297260000000 1.0
C      1  0.5517540000000  0.5298990000000  0.4281200000000 1.0
C      1  0.4702110000000  0.4282960000000  0.4481880000000 1.0
C      1  0.4702160000000  0.5715850000000  0.5513420000000 1.0
C      1  0.5301390000000  0.5715820000000  0.4481860000000 1.0
C      1  0.5718200000000  0.5515150000000  0.4698020000000 1.0
C      1  0.5718170000000  0.4483600000000  0.5297260000000 1.0
C      1  0.4285290000000  0.4483640000000  0.4698040000000 1.0
C      1  0.4485990000000  0.5299040000000  0.5714090000000 1.0
C      1  0.4485950000000  0.4699790000000  0.4281220000000 1.0
C      1  0.5517530000000  0.4699770000000  0.5714090000000 1.0
C      1  0.5517510000000  0.4282940000000  0.5297270000000 1.0
C      1  0.5301380000000  0.5515160000000  0.4281200000000 1.0
C      1  0.4285330000000  0.5299040000000  0.5513430000000 1.0
C      1  0.4485940000000  0.4282970000000  0.4698040000000 1.0
C      1  0.5517550000000  0.5715820000000  0.4698020000000 1.0
C      1  0.4486000000000  0.5715860000000  0.5297260000000 1.0
C      1  0.4702160000000  0.5515200000000  0.5714080000000 1.0
C      1  0.5301350000000  0.4483620000000  0.5714090000000 1.0
C      1  0.4702110000000  0.4483620000000  0.4281220000000 1.0
C      1  0.5718200000000  0.5298980000000  0.4481860000000 1.0
C      1  0.4285300000000  0.4699800000000  0.4481880000000 1.0
C      1  0.5718180000000  0.4699760000000  0.5513430000000 1.0
C      1  0.5208300000000  0.4995960000000  0.5990790000000 1.0
C      1  0.4998340000000  0.5992540000000  0.5204180000000 1.0
C      1  0.5994900000000  0.5205900000000  0.4994200000000 1.0
C      1  0.4795200000000  0.4995950000000  0.4004510000000 1.0
C      1  0.4795220000000  0.5002860000000  0.5990790000000 1.0
C      1  0.5208280000000  0.5002820000000  0.4004500000000 1.0
C      1  0.5005230000000  0.5992540000000  0.4791100000000 1.0
C      1  0.5005160000000  0.4006260000000  0.5204200000000 1.0
C      1  0.4998270000000  0.4006250000000  0.4791120000000 1.0
C      1  0.4008610000000  0.5205970000000  0.5001100000000 1.0
C      1  0.4008600000000  0.4792890000000  0.4994210000000 1.0
C      1  0.5994890000000  0.4792830000000  0.5001090000000 1.0
C      1  0.5994900000000  0.4995920000000  0.5204180000000 1.0
C      1  0.5208320000000  0.5992530000000  0.4994190000000 1.0
C      1  0.4998320000000  0.5205950000000  0.5990790000000 1.0
C      1  0.4008610000000  0.4995990000000  0.4791120000000 1.0
C      1  0.5994890000000  0.5002800000000  0.4791100000000 1.0
C      1  0.4008610000000  0.5002880000000  0.5204190000000 1.0
C      1  0.4795250000000  0.5992550000000  0.5001080000000 1.0
C      1  0.5208250000000  0.4006250000000  0.5001100000000 1.0
C      1  0.4795180000000  0.4006260000000  0.4994220000000 1.0
C      1  0.5005190000000  0.5205930000000  0.4004500000000 1.0
C      1  0.4998290000000  0.4792850000000  0.4004510000000 1.0
C      1  0.5005190000000  0.4792870000000  0.5990790000000 1.0
C      1  0.4409270000000  0.5377690000000  0.4835640000000 1.0
C      1  0.5380020000000  0.4837370000000  0.4405160000000 1.0
C      1  0.4839720000000  0.4406920000000  0.5375930000000 1.0
C      1  0.5594250000000  0.5377660000000  0.5159650000000 1.0
C      1  0.5594220000000  0.4621100000000  0.4835640000000 1.0
C      1  0.4409250000000  0.4621140000000  0.5159670000000 1.0
C      1  0.4623470000000  0.4837410000000  0.5590140000000 1.0
C      1  0.4623470000000  0.5161420000000  0.4405160000000 1.0
C      1  0.5380040000000  0.5161400000000  0.5590130000000 1.0
C      1  0.5163740000000  0.4406900000000  0.4619380000000 1.0
C      1  0.5163790000000  0.5591880000000  0.5375920000000 1.0
C      1  0.4839760000000  0.5591890000000  0.4619370000000 1.0
C      1  0.4839750000000  0.5377670000000  0.4405160000000 1.0
C      1  0.4409260000000  0.4837410000000  0.5375930000000 1.0
C      1  0.5380010000000  0.4406900000000  0.4835640000000 1.0
C      1  0.5163780000000  0.5377680000000  0.5590130000000 1.0
C      1  0.4839730000000  0.4621130000000  0.5590140000000 1.0
C      1  0.5163740000000  0.4621110000000  0.4405160000000 1.0
C      1  0.5594230000000  0.4837360000000  0.4619370000000 1.0
C      1  0.4409270000000  0.5161430000000  0.4619370000000 1.0
C      1  0.5594250000000  0.5161390000000  0.5375920000000 1.0
C      1  0.4623450000000  0.4406930000000  0.5159670000000 1.0
C      1  0.5380050000000  0.5591880000000  0.5159650000000 1.0
C      1  0.4623490000000  0.5591900000000  0.4835630000000 1.0
C      1  0.4599560000000  0.4994470000000  0.4792950000000 1.0
C      1  0.4996800000000  0.4794690000000  0.4595460000000 1.0
C      1  0.4797040000000  0.4597210000000  0.4992720000000 1.0
C      1  0.5403940000000  0.4994450000000  0.5202340000000 1.0
C      1  0.5403940000000  0.5004320000000  0.4792950000000 1.0
C      1  0.4599560000000  0.5004350000000  0.5202350000000 1.0
C      1  0.5006680000000  0.4794700000000  0.5399840000000 1.0
C      1  0.5006690000000  0.5204090000000  0.4595450000000 1.0
C      1  0.4996820000000  0.5204100000000  0.5399840000000 1.0
C      1  0.5206440000000  0.4597200000000  0.5002590000000 1.0
C      1  0.5206460000000  0.5401580000000  0.4992700000000 1.0
C      1  0.4797060000000  0.5401600000000  0.5002580000000 1.0
C      1  0.4797050000000  0.4994460000000  0.4595460000000 1.0
C      1  0.4599550000000  0.4794710000000  0.4992720000000 1.0
C      1  0.4996800000000  0.4597200000000  0.4792950000000 1.0
C      1  0.5206450000000  0.4994460000000  0.5399840000000 1.0
C      1  0.4797050000000  0.5004350000000  0.5399840000000 1.0
C      1  0.5206450000000  0.5004320000000  0.4595450000000 1.0
C      1  0.5403940000000  0.4794690000000  0.5002580000000 1.0
C      1  0.4599560000000  0.5204110000000  0.5002590000000 1.0
C      1  0.5403950000000  0.5204080000000  0.4992710000000 1.0
C      1  0.5006680000000  0.4597210000000  0.5202350000000 1.0
C      1  0.4996830000000  0.5401590000000  0.5202340000000 1.0
C      1  0.5006700000000  0.5401590000000  0.4792940000000 1.0
C      1  0.5643640000000  0.5251960000000  0.5847310000000 1.0
C      1  0.5254350000000  0.5849070000000  0.5639510000000 1.0
C      1  0.5851450000000  0.5641250000000  0.5250200000000 1.0
C      1  0.4359880000000  0.5251980000000  0.4147980000000 1.0
C      1  0.4359870000000  0.4746860000000  0.5847330000000 1.0
C      1  0.5643610000000  0.4746800000000  0.4147970000000 1.0
C      1  0.4749200000000  0.5849070000000  0.4355770000000 1.0
C      1  0.4749160000000  0.4149740000000  0.5639530000000 1.0
C      1  0.5254290000000  0.4149710000000  0.4355780000000 1.0
C      1  0.4152100000000  0.5641300000000  0.4745080000000 1.0
C      1  0.4152060000000  0.4357560000000  0.5250230000000 1.0
C      1  0.5851400000000  0.4357490000000  0.4745080000000 1.0
C      1  0.5851440000000  0.5251950000000  0.5639510000000 1.0
C      1  0.5643660000000  0.5849050000000  0.5250200000000 1.0
C      1  0.5254350000000  0.5641270000000  0.5847310000000 1.0
C      1  0.4152080000000  0.5251990000000  0.4355780000000 1.0
C      1  0.5851410000000  0.4746790000000  0.4355770000000 1.0
C      1  0.4152070000000  0.4746860000000  0.5639530000000 1.0
C      1  0.4359900000000  0.5849090000000  0.4745070000000 1.0
C      1  0.5643590000000  0.4149700000000  0.4745080000000 1.0
C      1  0.4359850000000  0.4149750000000  0.5250230000000 1.0
C      1  0.4749200000000  0.5641270000000  0.4147970000000 1.0
C      1  0.5254290000000  0.4357510000000  0.4147980000000 1.0
C      1  0.4749160000000  0.4357540000000  0.5847330000000 1.0
C      1  0.4998870000000  0.5833620000000  0.5452920000000 1.0
C      1  0.5835980000000  0.5454650000000  0.4994720000000 1.0
C      1  0.5457040000000  0.4996480000000  0.5831860000000 1.0
C      1  0.5004690000000  0.5833610000000  0.4542360000000 1.0
C      1  0.5004640000000  0.4165190000000  0.5452940000000 1.0
C      1  0.4998800000000  0.4165180000000  0.4542380000000 1.0
C      1  0.4167550000000  0.5454710000000  0.5000560000000 1.0
C      1  0.4167520000000  0.4544150000000  0.4994750000000 1.0
C      1  0.5835950000000  0.4544090000000  0.5000560000000 1.0
C      1  0.4546460000000  0.4996490000000  0.4163440000000 1.0
C      1  0.4546470000000  0.5002340000000  0.5831860000000 1.0
C      1  0.5457030000000  0.5002290000000  0.4163430000000 1.0
C      1  0.5457060000000  0.5833600000000  0.4994720000000 1.0
C      1  0.4998860000000  0.5454690000000  0.5831860000000 1.0
C      1  0.5835970000000  0.4996460000000  0.5452920000000 1.0
C      1  0.4546500000000  0.5833630000000  0.5000560000000 1.0
C      1  0.5457000000000  0.4165170000000  0.5000570000000 1.0
C      1  0.4546440000000  0.4165200000000  0.4994750000000 1.0
C      1  0.5004670000000  0.5454670000000  0.4163430000000 1.0
C      1  0.4998810000000  0.4544110000000  0.4163440000000 1.0
C      1  0.5004650000000  0.4544130000000  0.5831870000000 1.0
C      1  0.4167530000000  0.4996510000000  0.4542370000000 1.0
C      1  0.5835960000000  0.5002280000000  0.4542360000000 1.0
C      1  0.4167540000000  0.5002350000000  0.5452940000000 1.0
C      1  0.4473220000000  0.4470910000000  0.5864870000000 1.0
C      1  0.5530250000000  0.4470850000000  0.4130430000000 1.0
C      1  0.4473240000000  0.5527930000000  0.4130430000000 1.0
C      1  0.5868940000000  0.4470840000000  0.4469130000000 1.0
C      1  0.4473260000000  0.5866630000000  0.4469120000000 1.0
C      1  0.5530240000000  0.4132160000000  0.4469130000000 1.0
C      1  0.4134520000000  0.4470910000000  0.5526180000000 1.0
C      1  0.4134550000000  0.5527940000000  0.4469130000000 1.0
C      1  0.5530300000000  0.5866600000000  0.5526150000000 1.0
C      1  0.4473200000000  0.4132210000000  0.5526180000000 1.0
C      1  0.5530290000000  0.5527910000000  0.5864850000000 1.0
C      1  0.5868990000000  0.5527890000000  0.5526160000000 1.0
C      1  0.4312230000000  0.5688950000000  0.4308110000000 1.0
C      1  0.5691260000000  0.4309830000000  0.4308110000000 1.0
C      1  0.4312190000000  0.4309890000000  0.5687200000000 1.0
C      1  0.5691320000000  0.5688920000000  0.5687170000000 1.0
END
