TITL C-109513-6412-5 17.4337419037919 125000 -448.67264837037 0 0 66 (C2h) n - 1
REM
REM in /rds/project/t2_vol4/rds-t2-cs072/BORA/CARBON/from-Arr/AIRSS/Generating-Clusters/GAP-ML-2020/Higher-Symm/SD-CG/HFTN-CG
REM
REM
REM
REM
REM
REM ./C.cell (b20cbc046b6831c77cfcea5457e17084)
REM AIRSS Version 0.9.1 bugfix July 2018 build 013d7b7c2542+ Fri, 06 Jul 2018 19:26:36 +0100
REM compiler GCC version 9.3.0
REM options -cpp -mtune=generic -march=x86-64 -g -O0
REM seed -485997996 -235298743 1833860031 497846101 1210235650 -1493843159 12969914 -2064159643 1862536313 -1788867238 353422579 -1543868680 -838301856 369264189 -1794191975 -590527242 -1426523180 -669420996 -1894161558 644326548 1291353630 -2098919639 1511318487 -2107640607 1377711799 -1767636075 1267308557 2141089664 2139238841 1650629543 1325052667 1016696965 -717309244
REM
CELL 1.54180   50.00000   50.00000   50.00000   90.00000   90.00000   90.00000
LATT -1
SFAC C  
C      1  0.5347980000000  0.5670500000000  0.4855200000000 1.0
C      1  0.4652590000000  0.5682260000000  0.5152220000000 1.0
C      1  0.5347410000000  0.4301670000000  0.4847780000000 1.0
C      1  0.4652020000000  0.4313420000000  0.5144800000000 1.0
C      1  0.4651910000000  0.5670440000000  0.4855160000000 1.0
C      1  0.5347260000000  0.5682320000000  0.5152270000000 1.0
C      1  0.4652740000000  0.4301600000000  0.4847730000000 1.0
C      1  0.5348090000000  0.4313490000000  0.5144840000000 1.0
C      1  0.4380200000000  0.5318840000000  0.5361380000000 1.0
C      1  0.5505270000000  0.5220020000000  0.4764350000000 1.0
C      1  0.4494730000000  0.4763900000000  0.5235650000000 1.0
C      1  0.5619800000000  0.4665090000000  0.4638620000000 1.0
C      1  0.5619690000000  0.5318960000000  0.5361460000000 1.0
C      1  0.4494720000000  0.5219920000000  0.4764290000000 1.0
C      1  0.5505280000000  0.4764000000000  0.5235710000000 1.0
C      1  0.4380310000000  0.4664970000000  0.4638540000000 1.0
C      1  0.5570440000000  0.4513230000000  0.5135180000000 1.0
C      1  0.4425210000000  0.4495860000000  0.4835190000000 1.0
C      1  0.5574790000000  0.5488060000000  0.5164810000000 1.0
C      1  0.4429560000000  0.5470690000000  0.4864820000000 1.0
C      1  0.4429640000000  0.4513120000000  0.5135100000000 1.0
C      1  0.5574900000000  0.4495970000000  0.4835260000000 1.0
C      1  0.4425100000000  0.5487950000000  0.5164740000000 1.0
C      1  0.5570360000000  0.5470810000000  0.4864900000000 1.0
C      1  0.5145060000000  0.5462510000000  0.4432790000000 1.0
C      1  0.4853630000000  0.5491760000000  0.5594580000000 1.0
C      1  0.5146370000000  0.4492160000000  0.4405420000000 1.0
C      1  0.4854940000000  0.4521420000000  0.5567210000000 1.0
C      1  0.4854920000000  0.5462480000000  0.4432770000000 1.0
C      1  0.5146200000000  0.5491790000000  0.5594600000000 1.0
C      1  0.4853800000000  0.4492130000000  0.4405400000000 1.0
C      1  0.5145080000000  0.4521450000000  0.5567230000000 1.0
C      1  0.5240700000000  0.4832810000000  0.5119180000000 1.0
C      1  0.4854120000000  0.4874840000000  0.4839540000000 1.0
C      1  0.5145880000000  0.5109080000000  0.5160460000000 1.0
C      1  0.4759300000000  0.5151120000000  0.4880820000000 1.0
C      1  0.4759320000000  0.4832760000000  0.5119150000000 1.0
C      1  0.5145920000000  0.4874870000000  0.4839560000000 1.0
C      1  0.4854080000000  0.5109050000000  0.5160440000000 1.0
C      1  0.5240680000000  0.5151160000000  0.4880850000000 1.0
C      1  0.5149620000000  0.5657690000000  0.4652310000000 1.0
C      1  0.4850920000000  0.5668160000000  0.5357600000000 1.0
C      1  0.5149080000000  0.4315770000000  0.4642400000000 1.0
C      1  0.4850380000000  0.4326240000000  0.5347690000000 1.0
C      1  0.4850300000000  0.5657660000000  0.4652290000000 1.0
C      1  0.5148910000000  0.5668190000000  0.5357620000000 1.0
C      1  0.4851090000000  0.4315740000000  0.4642380000000 1.0
C      1  0.5149700000000  0.4326270000000  0.5347710000000 1.0
C      1  0.5235130000000  0.5205530000000  0.4370180000000 1.0
C      1  0.4760720000000  0.5236760000000  0.5658760000000 1.0
C      1  0.5239280000000  0.4747160000000  0.4341240000000 1.0
C      1  0.4764870000000  0.4778390000000  0.5629820000000 1.0
C      1  0.4764900000000  0.5205490000000  0.4370160000000 1.0
C      1  0.5239150000000  0.5236810000000  0.5658790000000 1.0
C      1  0.4760850000000  0.4747110000000  0.4341210000000 1.0
C      1  0.5235100000000  0.4778430000000  0.5629840000000 1.0
C      1  0.4511330000000  0.4833850000000  0.4462350000000 1.0
C      1  0.5477430000000  0.4867010000000  0.5507890000000 1.0
C      1  0.4522570000000  0.5116910000000  0.4492110000000 1.0
C      1  0.5488670000000  0.5150080000000  0.5537650000000 1.0
C      1  0.5488770000000  0.4833940000000  0.4462410000000 1.0
C      1  0.4522530000000  0.4866920000000  0.5507830000000 1.0
C      1  0.5477470000000  0.5117000000000  0.4492170000000 1.0
C      1  0.4511230000000  0.5149980000000  0.5537590000000 1.0
C      1  0.5000040000000  0.4981260000000  0.4318670000000 1.0
C      1  0.4999960000000  0.5002660000000  0.5681330000000 1.0
END
