TITL C-107709-8508-3 -0.0536813537938083 125000 -1267.7077246894 0 0 181 (C2) n - 1
REM
REM in /rds/project/t2_vol4/rds-t2-cs072/BORA/CARBON/from-Arr/AIRSS/Generating-Clusters/GAP-ML-2020/Higher-Symm/SD-CG/HFTN-CG/C160-200
REM
REM
REM
REM
REM
REM ./C.cell (6b4489405718ea1b717e0baf1da4c2d9)
REM AIRSS Version 0.9.1 bugfix July 2018 build 013d7b7c2542+ Fri, 06 Jul 2018 19:26:36 +0100
REM compiler GCC version 9.3.0
REM options -cpp -mtune=generic -march=x86-64 -g -O0
REM seed -1097933922 -214333546 35377448 -1544375364 232106912 -984453514 780871350 833768007 -1639806151 1500615702 846482217 1903596936 -1341669405 -1893798477 -1739213116 1982686070 798679347 -1079042529 39170072 93619627 158612564 1101162916 -112061349 -1732125533 1808161893 -1947592365 -348891178 -960716400 -576597095 651223886 348178076 -366258653 -292196394
REM
CELL 1.54180   50.00000   50.00000   50.00000   90.00000   90.00000   90.00000
LATT -1
SFAC C  
C      1  0.5659070000000  0.4235050000000  0.5785770000000 1.0
C      1  0.5659030000000  0.5766750000000  0.4216140000000 1.0
C      1  0.4384870000000  0.4247090000000  0.4251430000000 1.0
C      1  0.4384830000000  0.5754640000000  0.5750480000000 1.0
C      1  0.4684020000000  0.5112550000000  0.3892320000000 1.0
C      1  0.4684020000000  0.4889190000000  0.6109590000000 1.0
C      1  0.5335960000000  0.5106980000000  0.6124230000000 1.0
C      1  0.5335970000000  0.4894800000000  0.3877680000000 1.0
C      1  0.5763740000000  0.4862250000000  0.4995360000000 1.0
C      1  0.5763730000000  0.5139550000000  0.5006550000000 1.0
C      1  0.4133130000000  0.4858170000000  0.5042300000000 1.0
C      1  0.4133120000000  0.5143540000000  0.4959620000000 1.0
C      1  0.5009450000000  0.5312880000000  0.4630720000000 1.0
C      1  0.5009470000000  0.4688880000000  0.5371190000000 1.0
C      1  0.4946910000000  0.5279270000000  0.5410250000000 1.0
C      1  0.4946920000000  0.4722490000000  0.4591670000000 1.0
C      1  0.4839230000000  0.5712060000000  0.5785100000000 1.0
C      1  0.4839260000000  0.4289700000000  0.4216810000000 1.0
C      1  0.5200000000000  0.5722760000000  0.4196890000000 1.0
C      1  0.5200030000000  0.4279010000000  0.5805030000000 1.0
C      1  0.4928100000000  0.5507280000000  0.5218120000000 1.0
C      1  0.4928130000000  0.4494480000000  0.4783800000000 1.0
C      1  0.5189830000000  0.5499040000000  0.4802910000000 1.0
C      1  0.5189860000000  0.4502730000000  0.5199000000000 1.0
C      1  0.4847150000000  0.6140480000000  0.5317280000000 1.0
C      1  0.4847210000000  0.3861270000000  0.4684640000000 1.0
C      1  0.5213500000000  0.6125940000000  0.4686470000000 1.0
C      1  0.5213560000000  0.3875830000000  0.5315440000000 1.0
C      1  0.4306890000000  0.4775830000000  0.5297850000000 1.0
C      1  0.4306880000000  0.5225900000000  0.4704060000000 1.0
C      1  0.5605510000000  0.4780130000000  0.4746750000000 1.0
C      1  0.5605500000000  0.5221660000000  0.5255170000000 1.0
C      1  0.5003840000000  0.3910000000000  0.5148070000000 1.0
C      1  0.5003780000000  0.6091770000000  0.4853840000000 1.0
C      1  0.5058070000000  0.3899660000000  0.4851280000000 1.0
C      1  0.5058020000000  0.6102100000000  0.5150630000000 1.0
C      1  0.4492340000000  0.5516780000000  0.4258550000000 1.0
C      1  0.4492370000000  0.4484950000000  0.5743370000000 1.0
C      1  0.5530220000000  0.5467870000000  0.5718850000000 1.0
C      1  0.5530240000000  0.4533920000000  0.4283060000000 1.0
C      1  0.3968820000000  0.4648650000000  0.4897250000000 1.0
C      1  0.3968810000000  0.5353050000000  0.5104670000000 1.0
C      1  0.5983090000000  0.4742790000000  0.5145050000000 1.0
C      1  0.5983080000000  0.5259030000000  0.4856860000000 1.0
C      1  0.5425790000000  0.4143700000000  0.5673330000000 1.0
C      1  0.5425750000000  0.5858090000000  0.4328580000000 1.0
C      1  0.4622020000000  0.4150620000000  0.4352750000000 1.0
C      1  0.4621980000000  0.5851130000000  0.5649160000000 1.0
C      1  0.4345180000000  0.4730120000000  0.5777910000000 1.0
C      1  0.4345160000000  0.5271610000000  0.4224000000000 1.0
C      1  0.5651040000000  0.4795050000000  0.4264990000000 1.0
C      1  0.5651030000000  0.5206750000000  0.5736920000000 1.0
C      1  0.4516560000000  0.4975480000000  0.5879350000000 1.0
C      1  0.4516560000000  0.5026260000000  0.4122570000000 1.0
C      1  0.5477100000000  0.5005590000000  0.4118880000000 1.0
C      1  0.5477100000000  0.4996200000000  0.5883030000000 1.0
C      1  0.4732110000000  0.4943200000000  0.5673610000000 1.0
C      1  0.4732100000000  0.5058550000000  0.4328310000000 1.0
C      1  0.5215330000000  0.4987270000000  0.4296670000000 1.0
C      1  0.5215330000000  0.5014500000000  0.5705250000000 1.0
C      1  0.4493500000000  0.5726440000000  0.4453150000000 1.0
C      1  0.4493540000000  0.4275290000000  0.5548770000000 1.0
C      1  0.5537830000000  0.5683230000000  0.5529680000000 1.0
C      1  0.5537860000000  0.4318560000000  0.4472230000000 1.0
C      1  0.5186080000000  0.4557050000000  0.4907860000000 1.0
C      1  0.5186050000000  0.5444720000000  0.5094060000000 1.0
C      1  0.4731850000000  0.4568450000000  0.4977010000000 1.0
C      1  0.4731830000000  0.5433290000000  0.5024900000000 1.0
C      1  0.4196970000000  0.4485220000000  0.4525520000000 1.0
C      1  0.4196950000000  0.5516500000000  0.5476400000000 1.0
C      1  0.5817540000000  0.4558050000000  0.5514300000000 1.0
C      1  0.5817510000000  0.5443750000000  0.4487610000000 1.0
C      1  0.5263220000000  0.5493090000000  0.5831940000000 1.0
C      1  0.5263250000000  0.4508680000000  0.4169970000000 1.0
C      1  0.4766150000000  0.5516950000000  0.4162360000000 1.0
C      1  0.4766180000000  0.4484800000000  0.5839560000000 1.0
C      1  0.5306660000000  0.4155420000000  0.4473210000000 1.0
C      1  0.5306610000000  0.5846360000000  0.5528700000000 1.0
C      1  0.4746680000000  0.4152010000000  0.5526150000000 1.0
C      1  0.4746630000000  0.5849740000000  0.4475770000000 1.0
C      1  0.5748250000000  0.4371220000000  0.5255840000000 1.0
C      1  0.5748210000000  0.5630580000000  0.4746070000000 1.0
C      1  0.4280320000000  0.4326040000000  0.4787740000000 1.0
C      1  0.4280280000000  0.5675680000000  0.5214180000000 1.0
C      1  0.5982470000000  0.4648000000000  0.4609820000000 1.0
C      1  0.5982450000000  0.5353810000000  0.5392090000000 1.0
C      1  0.4001650000000  0.4525770000000  0.5456330000000 1.0
C      1  0.4001620000000  0.5475940000000  0.4545590000000 1.0
C      1  0.4322040000000  0.5486540000000  0.5731010000000 1.0
C      1  0.4322060000000  0.4515180000000  0.4270910000000 1.0
C      1  0.5703010000000  0.5489250000000  0.4235670000000 1.0
C      1  0.5703040000000  0.4512550000000  0.5766250000000 1.0
C      1  0.4351020000000  0.5202230000000  0.5173830000000 1.0
C      1  0.4351030000000  0.4799500000000  0.4828080000000 1.0
C      1  0.5572860000000  0.5201150000000  0.4781140000000 1.0
C      1  0.5572870000000  0.4800650000000  0.5220770000000 1.0
C      1  0.5206770000000  0.5360770000000  0.6085250000000 1.0
C      1  0.5206780000000  0.4641000000000  0.3916660000000 1.0
C      1  0.4821570000000  0.5363250000000  0.3926370000000 1.0
C      1  0.4821590000000  0.4638500000000  0.6075540000000 1.0
C      1  0.5385940000000  0.5018150000000  0.5272470000000 1.0
C      1  0.5385940000000  0.4983630000000  0.4729440000000 1.0
C      1  0.4539830000000  0.5028640000000  0.4738670000000 1.0
C      1  0.4539830000000  0.4973100000000  0.5263240000000 1.0
C      1  0.4353290000000  0.5753530000000  0.4705540000000 1.0
C      1  0.4353330000000  0.4248200000000  0.5296380000000 1.0
C      1  0.5664200000000  0.5699560000000  0.5265370000000 1.0
C      1  0.5664230000000  0.4302240000000  0.4736540000000 1.0
C      1  0.5431990000000  0.5993050000000  0.4597850000000 1.0
C      1  0.5432050000000  0.4008730000000  0.5404060000000 1.0
C      1  0.4625740000000  0.5996370000000  0.5387240000000 1.0
C      1  0.4625790000000  0.4005370000000  0.4614680000000 1.0
C      1  0.4161970000000  0.5278900000000  0.4439120000000 1.0
C      1  0.4161980000000  0.4722820000000  0.5562790000000 1.0
C      1  0.5809940000000  0.5141990000000  0.5487080000000 1.0
C      1  0.5809940000000  0.4859810000000  0.4514830000000 1.0
C      1  0.4104520000000  0.4711230000000  0.4653990000000 1.0
C      1  0.4104500000000  0.5290490000000  0.5347920000000 1.0
C      1  0.5838500000000  0.4819540000000  0.5398210000000 1.0
C      1  0.5838490000000  0.5182270000000  0.4603700000000 1.0
C      1  0.5095450000000  0.4666490000000  0.6131930000000 1.0
C      1  0.5095430000000  0.5335280000000  0.3869980000000 1.0
C      1  0.4923590000000  0.4669570000000  0.3878400000000 1.0
C      1  0.4923580000000  0.5332180000000  0.6123520000000 1.0
C      1  0.4921240000000  0.4250820000000  0.5740250000000 1.0
C      1  0.4921200000000  0.5750930000000  0.4261660000000 1.0
C      1  0.5125130000000  0.4262280000000  0.4266820000000 1.0
C      1  0.5125100000000  0.5739490000000  0.5735100000000 1.0
C      1  0.5102920000000  0.4736040000000  0.4343310000000 1.0
C      1  0.5102910000000  0.5265730000000  0.5658610000000 1.0
C      1  0.4829660000000  0.4689680000000  0.5608910000000 1.0
C      1  0.4829650000000  0.5312070000000  0.4393000000000 1.0
C      1  0.5934300000000  0.5566900000000  0.5215260000000 1.0
C      1  0.5934330000000  0.4434910000000  0.4786650000000 1.0
C      1  0.4076060000000  0.5655330000000  0.4752540000000 1.0
C      1  0.4076090000000  0.4346380000000  0.5249380000000 1.0
C      1  0.4411370000000  0.5483160000000  0.4796010000000 1.0
C      1  0.4411400000000  0.4518570000000  0.5205900000000 1.0
C      1  0.5486490000000  0.5476930000000  0.5154780000000 1.0
C      1  0.5486510000000  0.4524860000000  0.4847140000000 1.0
C      1  0.5494780000000  0.5470980000000  0.4833340000000 1.0
C      1  0.5494800000000  0.4530810000000  0.5168570000000 1.0
C      1  0.4458490000000  0.5456540000000  0.5079150000000 1.0
C      1  0.4458520000000  0.4545190000000  0.4922770000000 1.0
C      1  0.4452580000000  0.4085880000000  0.4837350000000 1.0
C      1  0.4452530000000  0.5915850000000  0.5164570000000 1.0
C      1  0.5599260000000  0.4107030000000  0.5184890000000 1.0
C      1  0.5599210000000  0.5894760000000  0.4817020000000 1.0
C      1  0.4031080000000  0.5616220000000  0.5032820000000 1.0
C      1  0.4031110000000  0.4385500000000  0.4969100000000 1.0
C      1  0.5953340000000  0.5527480000000  0.4932180000000 1.0
C      1  0.5953370000000  0.4474330000000  0.5069740000000 1.0
C      1  0.5224720000000  0.5133210000000  0.4535290000000 1.0
C      1  0.5224720000000  0.4868560000000  0.5466620000000 1.0
C      1  0.4707860000000  0.5115450000000  0.5455100000000 1.0
C      1  0.4707870000000  0.4886300000000  0.4546820000000 1.0
C      1  0.5301760000000  0.4014440000000  0.4737730000000 1.0
C      1  0.5301710000000  0.5987340000000  0.5264180000000 1.0
C      1  0.4757610000000  0.4015120000000  0.5265920000000 1.0
C      1  0.4757560000000  0.5986630000000  0.4735990000000 1.0
C      1  0.4500540000000  0.4691770000000  0.4123670000000 1.0
C      1  0.4500530000000  0.5309960000000  0.5878240000000 1.0
C      1  0.5513500000000  0.4680640000000  0.5907990000000 1.0
C      1  0.5513480000000  0.5321150000000  0.4093920000000 1.0
C      1  0.4877560000000  0.4933630000000  0.3790170000000 1.0
C      1  0.4877560000000  0.5068120000000  0.6211740000000 1.0
C      1  0.5135030000000  0.4932400000000  0.6217970000000 1.0
C      1  0.5135020000000  0.5069370000000  0.3783940000000 1.0
C      1  0.5280340000000  0.5475980000000  0.4031450000000 1.0
C      1  0.5280370000000  0.4525800000000  0.5970460000000 1.0
C      1  0.4742400000000  0.5461960000000  0.5944520000000 1.0
C      1  0.4742420000000  0.4539790000000  0.4057390000000 1.0
C      1  0.5140610000000  0.5154500000000  0.5180380000000 1.0
C      1  0.5140620000000  0.4847270000000  0.4821540000000 1.0
C      1  0.4796120000000  0.5199350000000  0.4854440000000 1.0
C      1  0.4796130000000  0.4802400000000  0.5147480000000 1.0
C      1  0.4511390000000  0.5931930000000  0.4882040000000 1.0
C      1  0.4511440000000  0.4069810000000  0.5119870000000 1.0
C      1  0.5536620000000  0.5916960000000  0.5103610000000 1.0
C      1  0.5536660000000  0.4084830000000  0.4898300000000 1.0
C      1  0.4967080000000  0.5000880000000  0.5000960000000 1.0
END
