TITL C-109518-6282-5 0.0394682237966718 125000 -771.764923152065 0 0 109 (C1) n - 1
REM
REM in /rds/project/t2_vol4/rds-t2-cs072/BORA/CARBON/from-Arr/AIRSS/Generating-Clusters/GAP-ML-2020/Higher-Symm/SD-CG/HFTN-CG
REM
REM
REM
REM
REM
REM ./C.cell (b20cbc046b6831c77cfcea5457e17084)
REM AIRSS Version 0.9.1 bugfix July 2018 build 013d7b7c2542+ Fri, 06 Jul 2018 19:26:36 +0100
REM compiler GCC version 9.3.0
REM options -cpp -mtune=generic -march=x86-64 -g -O0
REM seed 522383387 -1950758906 914527163 1611926365 1794624723 1371485739 1911698244 1699487980 -1028965457 1527757682 193917556 -713469405 -1311815505 -1494951045 -155364333 -1827014207 -1094236783 929779293 1302846728 1145542012 878071681 1655343571 -416969959 1749773510 -86763908 1615649138 -877833624 -419548611 -1478130888 -953257119 1826722886 87717764 2080149483
REM
CELL 1.54180   50.00000   50.00000   50.00000   90.00000   90.00000   90.00000
LATT -1
SFAC C  
C      1  0.4668400000000  0.5274460000000  0.4323430000000 1.0
C      1  0.4114590000000  0.5261310000000  0.5076540000000 1.0
C      1  0.4797980000000  0.5276960000000  0.5788460000000 1.0
C      1  0.5694940000000  0.5277840000000  0.5446900000000 1.0
C      1  0.5608300000000  0.5279930000000  0.4504300000000 1.0
C      1  0.4653080000000  0.4736650000000  0.4248680000000 1.0
C      1  0.4151940000000  0.4701100000000  0.5051240000000 1.0
C      1  0.4822520000000  0.4727690000000  0.5762110000000 1.0
C      1  0.5712520000000  0.4734520000000  0.5448950000000 1.0
C      1  0.5633110000000  0.4719760000000  0.4493950000000 1.0
C      1  0.5831070000000  0.5150480000000  0.5229170000000 1.0
C      1  0.5436980000000  0.5138590000000  0.4318950000000 1.0
C      1  0.4414670000000  0.5146280000000  0.4375200000000 1.0
C      1  0.4194970000000  0.5122110000000  0.5314970000000 1.0
C      1  0.5050390000000  0.5145160000000  0.5856310000000 1.0
C      1  0.5830810000000  0.4871320000000  0.5221040000000 1.0
C      1  0.5432990000000  0.4855140000000  0.4315120000000 1.0
C      1  0.4416430000000  0.4868050000000  0.4359640000000 1.0
C      1  0.4215380000000  0.4843810000000  0.5297610000000 1.0
C      1  0.5064140000000  0.4863110000000  0.5840170000000 1.0
C      1  0.4375130000000  0.5254870000000  0.5506540000000 1.0
C      1  0.5288730000000  0.5284330000000  0.5769590000000 1.0
C      1  0.5825590000000  0.5284490000000  0.4974400000000 1.0
C      1  0.5185610000000  0.5280980000000  0.4279230000000 1.0
C      1  0.4231790000000  0.5276830000000  0.4557490000000 1.0
C      1  0.4410020000000  0.4726940000000  0.5479570000000 1.0
C      1  0.5308540000000  0.4726550000000  0.5756640000000 1.0
C      1  0.5846840000000  0.4732850000000  0.4963220000000 1.0
C      1  0.5175600000000  0.4724450000000  0.4223080000000 1.0
C      1  0.4242120000000  0.4720300000000  0.4546000000000 1.0
C      1  0.4323800000000  0.5544210000000  0.4608450000000 1.0
C      1  0.4443650000000  0.5522160000000  0.5421220000000 1.0
C      1  0.5239380000000  0.5557590000000  0.5683980000000 1.0
C      1  0.5732990000000  0.5552590000000  0.4997220000000 1.0
C      1  0.5177010000000  0.5552460000000  0.4375560000000 1.0
C      1  0.4359790000000  0.4461590000000  0.4586410000000 1.0
C      1  0.4507670000000  0.4476660000000  0.5375930000000 1.0
C      1  0.5246270000000  0.4469760000000  0.5626590000000 1.0
C      1  0.5784640000000  0.4452220000000  0.5008250000000 1.0
C      1  0.5139040000000  0.4453200000000  0.4299360000000 1.0
C      1  0.5530370000000  0.5554580000000  0.4556710000000 1.0
C      1  0.4694580000000  0.5541590000000  0.4420460000000 1.0
C      1  0.4213470000000  0.5533110000000  0.5086160000000 1.0
C      1  0.4844680000000  0.5548020000000  0.5684600000000 1.0
C      1  0.5633740000000  0.5551000000000  0.5391190000000 1.0
C      1  0.5566790000000  0.4451190000000  0.4562540000000 1.0
C      1  0.4641060000000  0.4452810000000  0.4301470000000 1.0
C      1  0.4305110000000  0.4452910000000  0.5047200000000 1.0
C      1  0.4888410000000  0.4472680000000  0.5628490000000 1.0
C      1  0.5635840000000  0.4468070000000  0.5364690000000 1.0
C      1  0.5332340000000  0.5826860000000  0.4970940000000 1.0
C      1  0.4874540000000  0.5792550000000  0.4789070000000 1.0
C      1  0.4634560000000  0.5757400000000  0.4940550000000 1.0
C      1  0.4781430000000  0.5775060000000  0.5183720000000 1.0
C      1  0.5269240000000  0.5829870000000  0.5227400000000 1.0
C      1  0.5347770000000  0.4228010000000  0.4911230000000 1.0
C      1  0.4918400000000  0.4239080000000  0.4654000000000 1.0
C      1  0.4766000000000  0.4304390000000  0.4882160000000 1.0
C      1  0.4914530000000  0.4315590000000  0.5127180000000 1.0
C      1  0.5201130000000  0.4292540000000  0.5143030000000 1.0
C      1  0.5597430000000  0.4347930000000  0.4825560000000 1.0
C      1  0.4886780000000  0.4355300000000  0.4391720000000 1.0
C      1  0.4520930000000  0.4480850000000  0.4841180000000 1.0
C      1  0.4801220000000  0.4488880000000  0.5340630000000 1.0
C      1  0.5337380000000  0.4466550000000  0.5339270000000 1.0
C      1  0.5483030000000  0.5596150000000  0.4850760000000 1.0
C      1  0.4941440000000  0.5582130000000  0.4581810000000 1.0
C      1  0.4425050000000  0.5554710000000  0.4884910000000 1.0
C      1  0.4739420000000  0.5561100000000  0.5392570000000 1.0
C      1  0.5342770000000  0.5598440000000  0.5404000000000 1.0
C      1  0.5789470000000  0.4853100000000  0.4704380000000 1.0
C      1  0.4914220000000  0.4857510000000  0.4206210000000 1.0
C      1  0.4120510000000  0.4831760000000  0.4787430000000 1.0
C      1  0.4578160000000  0.4852550000000  0.5678240000000 1.0
C      1  0.5544750000000  0.4851880000000  0.5652770000000 1.0
C      1  0.5713740000000  0.5135580000000  0.4740130000000 1.0
C      1  0.4926510000000  0.5129180000000  0.4313970000000 1.0
C      1  0.4148850000000  0.5120140000000  0.4805970000000 1.0
C      1  0.4563090000000  0.5137020000000  0.5690680000000 1.0
C      1  0.5485070000000  0.5134090000000  0.5598370000000 1.0
C      1  0.5031260000000  0.5319910000000  0.4771090000000 1.0
C      1  0.4570950000000  0.5272590000000  0.4911490000000 1.0
C      1  0.4911150000000  0.5303920000000  0.5254920000000 1.0
C      1  0.5216540000000  0.5348310000000  0.5225880000000 1.0
C      1  0.5291120000000  0.5345560000000  0.4935050000000 1.0
C      1  0.5062150000000  0.4845940000000  0.4767050000000 1.0
C      1  0.4596980000000  0.4787230000000  0.4862320000000 1.0
C      1  0.4930840000000  0.4786510000000  0.5236300000000 1.0
C      1  0.5241460000000  0.4781140000000  0.5206660000000 1.0
C      1  0.5294150000000  0.4849780000000  0.4927530000000 1.0
C      1  0.5407970000000  0.5699040000000  0.4353380000000 1.0
C      1  0.4460500000000  0.5694640000000  0.4424730000000 1.0
C      1  0.4238770000000  0.5680570000000  0.5317660000000 1.0
C      1  0.5036310000000  0.5706870000000  0.5805330000000 1.0
C      1  0.5796020000000  0.5693410000000  0.5222990000000 1.0
C      1  0.5332250000000  0.4329820000000  0.4462910000000 1.0
C      1  0.4406810000000  0.4311410000000  0.4364550000000 1.0
C      1  0.4332010000000  0.4287880000000  0.5265160000000 1.0
C      1  0.5064310000000  0.4286250000000  0.5742360000000 1.0
C      1  0.5828910000000  0.4310740000000  0.5248980000000 1.0
C      1  0.4447550000000  0.5032200000000  0.4859690000000 1.0
C      1  0.5430050000000  0.5097600000000  0.4889060000000 1.0
C      1  0.5032140000000  0.5088500000000  0.4601330000000 1.0
C      1  0.4954310000000  0.5042200000000  0.5391750000000 1.0
C      1  0.5258650000000  0.5066840000000  0.5348660000000 1.0
C      1  0.5038680000000  0.5847650000000  0.5037000000000 1.0
C      1  0.5196830000000  0.4194790000000  0.4676580000000 1.0
C      1  0.4832330000000  0.5216220000000  0.4979720000000 1.0
C      1  0.4840390000000  0.4871990000000  0.4963930000000 1.0
END
