TITL C-100753-6403-7 -47.033380961914 125000 -790.165717931049 0 0 113 (C1) n - 1
REM
REM in /rds/project/t2_vol4/rds-t2-cs072/BORA/CARBON/from-Arr/AIRSS/Generating-Clusters/GAP-ML-2020/Higher-Symm/SD-CG/HFTN-CG
REM
REM
REM
REM
REM
REM ./C.cell (b20cbc046b6831c77cfcea5457e17084)
REM AIRSS Version 0.9.1 bugfix July 2018 build 013d7b7c2542+ Fri, 06 Jul 2018 19:26:36 +0100
REM compiler GCC version 9.3.0
REM options -cpp -mtune=generic -march=x86-64 -g -O0
REM seed 254805909 1482212039 -2049377761 -1756743113 1531827824 -68332939 -56298310 -1230547337 1729455006 747087054 -1376456581 593434506 -989713159 -1837530759 -1905194025 -348648157 1229135595 1934736549 331921610 1197481613 -1452885275 1261503527 -2105764521 -551470200 561367264 -1715289440 -536871399 -559861227 1472938828 -1886456088 1733520661 632293372 -1929014562
REM
CELL 1.54180   50.00000   50.00000   50.00000   90.00000   90.00000   90.00000
LATT -1
SFAC C  
C      1  0.5304260000000  0.4991980000000  0.4117820000000 1.0
C      1  0.5874730000000  0.5005450000000  0.5303610000000 1.0
C      1  0.4695260000000  0.4994110000000  0.5886410000000 1.0
C      1  0.4116700000000  0.4996150000000  0.4690040000000 1.0
C      1  0.5309380000000  0.4994460000000  0.5890600000000 1.0
C      1  0.5856110000000  0.4995890000000  0.4694590000000 1.0
C      1  0.4694610000000  0.4997970000000  0.4113590000000 1.0
C      1  0.4119780000000  0.4995690000000  0.5308590000000 1.0
C      1  0.4656010000000  0.3968080000000  0.4851550000000 1.0
C      1  0.5148160000000  0.3962690000000  0.4655350000000 1.0
C      1  0.5343970000000  0.3965950000000  0.5148170000000 1.0
C      1  0.4852510000000  0.3968420000000  0.5343330000000 1.0
C      1  0.4657000000000  0.3969000000000  0.5148480000000 1.0
C      1  0.5149360000000  0.3967960000000  0.5343240000000 1.0
C      1  0.5344660000000  0.3960270000000  0.4850420000000 1.0
C      1  0.4851160000000  0.3967290000000  0.4656290000000 1.0
C      1  0.4310500000000  0.4876210000000  0.5503760000000 1.0
C      1  0.4496080000000  0.4877160000000  0.4301990000000 1.0
C      1  0.5674940000000  0.4868290000000  0.4505200000000 1.0
C      1  0.5508670000000  0.4874910000000  0.5703350000000 1.0
C      1  0.4305710000000  0.4876470000000  0.4492940000000 1.0
C      1  0.4498940000000  0.4874600000000  0.5696270000000 1.0
C      1  0.5683640000000  0.4884350000000  0.5498030000000 1.0
C      1  0.5500680000000  0.4866880000000  0.4299530000000 1.0
C      1  0.5361640000000  0.4839990000000  0.5134060000000 1.0
C      1  0.4855490000000  0.4824230000000  0.5366770000000 1.0
C      1  0.4638530000000  0.4825300000000  0.4846610000000 1.0
C      1  0.5159030000000  0.4829440000000  0.4645910000000 1.0
C      1  0.5339060000000  0.4744690000000  0.4858800000000 1.0
C      1  0.4852110000000  0.4825690000000  0.4627720000000 1.0
C      1  0.4641690000000  0.4825770000000  0.5148360000000 1.0
C      1  0.5155430000000  0.4825880000000  0.5370340000000 1.0
C      1  0.4859820000000  0.5847040000000  0.4461180000000 1.0
C      1  0.5546020000000  0.5864540000000  0.4853700000000 1.0
C      1  0.5147370000000  0.5850200000000  0.5538030000000 1.0
C      1  0.4472020000000  0.5842140000000  0.5143910000000 1.0
C      1  0.4854870000000  0.5846520000000  0.5535850000000 1.0
C      1  0.5540050000000  0.5859170000000  0.5150890000000 1.0
C      1  0.5153740000000  0.5851080000000  0.4457700000000 1.0
C      1  0.4473240000000  0.5842510000000  0.4851740000000 1.0
C      1  0.4859140000000  0.5221490000000  0.4161080000000 1.0
C      1  0.5800610000000  0.5220570000000  0.4853130000000 1.0
C      1  0.5148600000000  0.5221470000000  0.5847370000000 1.0
C      1  0.4169870000000  0.5218210000000  0.5144360000000 1.0
C      1  0.4857620000000  0.5218660000000  0.5840540000000 1.0
C      1  0.5829140000000  0.5230840000000  0.5143630000000 1.0
C      1  0.5149420000000  0.5219470000000  0.4164620000000 1.0
C      1  0.4167470000000  0.5219420000000  0.4853760000000 1.0
C      1  0.5147160000000  0.4190020000000  0.5536860000000 1.0
C      1  0.4465580000000  0.4193180000000  0.5144930000000 1.0
C      1  0.4855070000000  0.4190970000000  0.4464320000000 1.0
C      1  0.5541230000000  0.4178330000000  0.4848920000000 1.0
C      1  0.5145840000000  0.4188100000000  0.4463590000000 1.0
C      1  0.4464890000000  0.4192410000000  0.4854180000000 1.0
C      1  0.4856400000000  0.4190930000000  0.5536490000000 1.0
C      1  0.5536490000000  0.4190250000000  0.5141130000000 1.0
C      1  0.5139810000000  0.4758310000000  0.5875060000000 1.0
C      1  0.4133670000000  0.4762270000000  0.5135330000000 1.0
C      1  0.4861210000000  0.4759770000000  0.4123860000000 1.0
C      1  0.5860520000000  0.4759160000000  0.4864880000000 1.0
C      1  0.5133560000000  0.4755620000000  0.4128620000000 1.0
C      1  0.4130450000000  0.4761700000000  0.4862000000000 1.0
C      1  0.4866650000000  0.4759190000000  0.5872860000000 1.0
C      1  0.5869400000000  0.4764870000000  0.5137950000000 1.0
C      1  0.5277480000000  0.4658440000000  0.4370950000000 1.0
C      1  0.5624440000000  0.4669450000000  0.5274300000000 1.0
C      1  0.4727270000000  0.4663500000000  0.5627400000000 1.0
C      1  0.4374510000000  0.4664420000000  0.4721700000000 1.0
C      1  0.5282500000000  0.4661060000000  0.5632680000000 1.0
C      1  0.5620590000000  0.4648880000000  0.4725850000000 1.0
C      1  0.4721820000000  0.4662150000000  0.4367300000000 1.0
C      1  0.4379460000000  0.4666610000000  0.5274340000000 1.0
C      1  0.4654520000000  0.5150410000000  0.5148160000000 1.0
C      1  0.4847980000000  0.5149810000000  0.4630810000000 1.0
C      1  0.5255020000000  0.5280500000000  0.4892280000000 1.0
C      1  0.5158360000000  0.5148630000000  0.5374790000000 1.0
C      1  0.4648720000000  0.5149730000000  0.4845110000000 1.0
C      1  0.4856810000000  0.5150490000000  0.5360820000000 1.0
C      1  0.5345290000000  0.5154590000000  0.5149130000000 1.0
C      1  0.5151050000000  0.5151740000000  0.4651360000000 1.0
C      1  0.5551150000000  0.4377690000000  0.4649930000000 1.0
C      1  0.5339740000000  0.4394620000000  0.5538600000000 1.0
C      1  0.4464450000000  0.4398080000000  0.5336160000000 1.0
C      1  0.4662580000000  0.4395110000000  0.4458170000000 1.0
C      1  0.5535540000000  0.4399370000000  0.5330020000000 1.0
C      1  0.5339490000000  0.4389530000000  0.4456150000000 1.0
C      1  0.4460930000000  0.4396260000000  0.4661470000000 1.0
C      1  0.4665560000000  0.4396250000000  0.5539290000000 1.0
C      1  0.5344650000000  0.6075970000000  0.5151700000000 1.0
C      1  0.4849590000000  0.6069870000000  0.5347350000000 1.0
C      1  0.4659310000000  0.6067930000000  0.4848960000000 1.0
C      1  0.5154330000000  0.6071880000000  0.4651680000000 1.0
C      1  0.5348770000000  0.6080620000000  0.4851780000000 1.0
C      1  0.4855810000000  0.6067890000000  0.4652710000000 1.0
C      1  0.4656700000000  0.6068260000000  0.5148890000000 1.0
C      1  0.5148840000000  0.6073190000000  0.5348780000000 1.0
C      1  0.4426560000000  0.5368000000000  0.4829290000000 1.0
C      1  0.5185620000000  0.5374100000000  0.4414920000000 1.0
C      1  0.5581590000000  0.5386510000000  0.5176520000000 1.0
C      1  0.4837030000000  0.5369700000000  0.5582080000000 1.0
C      1  0.4429500000000  0.5366330000000  0.5166830000000 1.0
C      1  0.5174610000000  0.5375340000000  0.5592480000000 1.0
C      1  0.5564700000000  0.5399670000000  0.4837180000000 1.0
C      1  0.4833380000000  0.5374750000000  0.4414890000000 1.0
C      1  0.5512800000000  0.5627550000000  0.5313150000000 1.0
C      1  0.4700960000000  0.5613980000000  0.5506990000000 1.0
C      1  0.4498770000000  0.5613850000000  0.4692640000000 1.0
C      1  0.5320090000000  0.5625000000000  0.4476360000000 1.0
C      1  0.5530790000000  0.5640240000000  0.4683170000000 1.0
C      1  0.4698410000000  0.5617730000000  0.4486140000000 1.0
C      1  0.4500370000000  0.5612600000000  0.5302050000000 1.0
C      1  0.5310090000000  0.5622880000000  0.5519650000000 1.0
C      1  0.5055290000000  0.5486170000000  0.4968520000000 1.0
END
