TITL C-109500-6627-4 1.92981112748539 125000 -557.855311762599 0 0 80 (C1) n - 1
REM
REM in /rds/project/t2_vol4/rds-t2-cs072/BORA/CARBON/from-Arr/AIRSS/Generating-Clusters/GAP-ML-2020/Higher-Symm/SD-CG/HFTN-CG
REM
REM
REM
REM
REM
REM ./C.cell (b20cbc046b6831c77cfcea5457e17084)
REM AIRSS Version 0.9.1 bugfix July 2018 build 013d7b7c2542+ Fri, 06 Jul 2018 19:26:36 +0100
REM compiler GCC version 9.3.0
REM options -cpp -mtune=generic -march=x86-64 -g -O0
REM seed 175628879 1850845021 1730333279 -1434480483 1023700781 -1219316074 -1087647424 -1996914195 -1643293279 1213835365 5376066 1003570180 -974126590 1018194299 1389094653 1361950950 -527911206 1119043951 -280497428 -271607596 -2089082378 -1847416744 276633625 1316249986 1586215341 -1567902318 675176371 2022269874 2056190422 181481242 1595548113 -1451754104 702049885
REM
CELL 1.54180   50.00000   50.00000   50.00000   90.00000   90.00000   90.00000
LATT -1
SFAC C  
C      1  0.5076190000000  0.5565790000000  0.5565400000000 1.0
C      1  0.5623410000000  0.4813250000000  0.4642650000000 1.0
C      1  0.4934540000000  0.4304230000000  0.5364310000000 1.0
C      1  0.4845130000000  0.5498530000000  0.4397670000000 1.0
C      1  0.5317140000000  0.4665880000000  0.4312340000000 1.0
C      1  0.5407800000000  0.4592420000000  0.4991880000000 1.0
C      1  0.5652240000000  0.4993650000000  0.4861290000000 1.0
C      1  0.4702790000000  0.4441940000000  0.4805400000000 1.0
C      1  0.4499240000000  0.5455430000000  0.4623200000000 1.0
C      1  0.4942560000000  0.4803250000000  0.5136320000000 1.0
C      1  0.4989150000000  0.4363720000000  0.4854150000000 1.0
C      1  0.4736390000000  0.4732010000000  0.4717880000000 1.0
C      1  0.4406400000000  0.4443910000000  0.4767260000000 1.0
C      1  0.5635690000000  0.5275710000000  0.4793850000000 1.0
C      1  0.4317560000000  0.4704750000000  0.4687190000000 1.0
C      1  0.5051950000000  0.4613170000000  0.5702160000000 1.0
C      1  0.5037350000000  0.5076730000000  0.4097840000000 1.0
C      1  0.5038280000000  0.5089270000000  0.5804080000000 1.0
C      1  0.5410470000000  0.4376990000000  0.5439180000000 1.0
C      1  0.5312880000000  0.5549830000000  0.4527680000000 1.0
C      1  0.5516370000000  0.4868560000000  0.5114100000000 1.0
C      1  0.4764940000000  0.4621300000000  0.5654330000000 1.0
C      1  0.4267760000000  0.4985170000000  0.5364540000000 1.0
C      1  0.5619130000000  0.4543280000000  0.5504990000000 1.0
C      1  0.4677800000000  0.4441700000000  0.5441030000000 1.0
C      1  0.4335560000000  0.5389320000000  0.4847320000000 1.0
C      1  0.5140780000000  0.4390670000000  0.5553290000000 1.0
C      1  0.4290230000000  0.4751410000000  0.5199460000000 1.0
C      1  0.5117830000000  0.5470850000000  0.4339760000000 1.0
C      1  0.4664450000000  0.4877620000000  0.5666980000000 1.0
C      1  0.5021460000000  0.4664850000000  0.4239560000000 1.0
C      1  0.4453120000000  0.4505250000000  0.5260780000000 1.0
C      1  0.5227080000000  0.5677250000000  0.4758020000000 1.0
C      1  0.4938560000000  0.5649450000000  0.4867770000000 1.0
C      1  0.4783640000000  0.5148590000000  0.4877940000000 1.0
C      1  0.4625680000000  0.5017430000000  0.4341950000000 1.0
C      1  0.4391410000000  0.5437040000000  0.5139310000000 1.0
C      1  0.5078390000000  0.4251090000000  0.5120570000000 1.0
C      1  0.5424450000000  0.5250420000000  0.5669320000000 1.0
C      1  0.4746650000000  0.5623510000000  0.4643010000000 1.0
C      1  0.4639860000000  0.5263720000000  0.5508000000000 1.0
C      1  0.5039040000000  0.4814920000000  0.4692100000000 1.0
C      1  0.4885930000000  0.5367600000000  0.5037920000000 1.0
C      1  0.4987550000000  0.5773740000000  0.5148560000000 1.0
C      1  0.4945130000000  0.4441400000000  0.4381180000000 1.0
C      1  0.4187690000000  0.5139940000000  0.4927300000000 1.0
C      1  0.5048640000000  0.5087760000000  0.4756370000000 1.0
C      1  0.5163770000000  0.5334080000000  0.5735680000000 1.0
C      1  0.5506120000000  0.4878480000000  0.4384940000000 1.0
C      1  0.5349110000000  0.4466880000000  0.4515840000000 1.0
C      1  0.5104130000000  0.4337200000000  0.4579430000000 1.0
C      1  0.5110460000000  0.4655940000000  0.4929250000000 1.0
C      1  0.5458610000000  0.5151930000000  0.4345250000000 1.0
C      1  0.4529230000000  0.4825500000000  0.4532080000000 1.0
C      1  0.5443760000000  0.4961880000000  0.5646020000000 1.0
C      1  0.5068890000000  0.4967700000000  0.5321990000000 1.0
C      1  0.5202350000000  0.4850920000000  0.5772760000000 1.0
C      1  0.5555430000000  0.5326810000000  0.5241540000000 1.0
C      1  0.5304430000000  0.5090780000000  0.5184010000000 1.0
C      1  0.5413750000000  0.5683170000000  0.4970830000000 1.0
C      1  0.5348440000000  0.4349660000000  0.5164620000000 1.0
C      1  0.4855180000000  0.4906000000000  0.4195060000000 1.0
C      1  0.5520500000000  0.5450130000000  0.5483560000000 1.0
C      1  0.4714840000000  0.4899480000000  0.4989820000000 1.0
C      1  0.4618130000000  0.5307060000000  0.4392460000000 1.0
C      1  0.4653210000000  0.5449330000000  0.5287150000000 1.0
C      1  0.4864760000000  0.5640770000000  0.5373100000000 1.0
C      1  0.5159620000000  0.5232830000000  0.4982890000000 1.0
C      1  0.5523050000000  0.5348240000000  0.4541590000000 1.0
C      1  0.4871620000000  0.5085270000000  0.5574230000000 1.0
C      1  0.5216820000000  0.5236260000000  0.4211300000000 1.0
C      1  0.4459970000000  0.5046270000000  0.5560670000000 1.0
C      1  0.4497280000000  0.4384930000000  0.5012170000000 1.0
C      1  0.5266050000000  0.5773260000000  0.5196580000000 1.0
C      1  0.5519460000000  0.4561570000000  0.4719750000000 1.0
C      1  0.5324390000000  0.5655730000000  0.5448130000000 1.0
C      1  0.4221030000000  0.4848060000000  0.4921050000000 1.0
C      1  0.5595490000000  0.5461270000000  0.5001400000000 1.0
C      1  0.5585480000000  0.4804320000000  0.5434000000000 1.0
C      1  0.4218370000000  0.5214020000000  0.5203630000000 1.0
END
