TITL C-101407-5243-6 -3.80822619909411 125000 -193.900128299584 0 0 30 (C1) n - 1
REM
REM in /rds/project/t2_vol4/rds-t2-cs072/BORA/CARBON/from-Arr/AIRSS/Generating-Clusters/GAP-ML-2020/Higher-Symm/SD-CG/HFTN-CG
REM
REM
REM
REM
REM
REM ./C.cell (b20cbc046b6831c77cfcea5457e17084)
REM AIRSS Version 0.9.1 bugfix July 2018 build 013d7b7c2542+ Fri, 06 Jul 2018 19:26:36 +0100
REM compiler GCC version 9.3.0
REM options -cpp -mtune=generic -march=x86-64 -g -O0
REM seed -2018302889 -662347834 621942670 1266352999 657927173 -929155942 -1713986793 -1050639855 977633561 685155086 859499275 -754315872 -1275109043 -1677203000 180545903 -1764267665 -1128017725 97056468 94775916 548388158 944152986 1869766584 -1421048166 2114768052 -1980267692 1105587862 -1128826259 1589507278 -2056519386 275919926 1061181345 -1089489255 671845459
REM
CELL 1.54180   50.00000   50.00000   50.00000   90.00000   90.00000   90.00000
LATT -1
SFAC C  
C      1  0.5492480000000  0.4710030000000  0.5278770000000 1.0
C      1  0.5341520000000  0.4810440000000  0.4709920000000 1.0
C      1  0.5355750000000  0.5396700000000  0.5035790000000 1.0
C      1  0.4604180000000  0.5117460000000  0.5299320000000 1.0
C      1  0.4530520000000  0.5182960000000  0.4639520000000 1.0
C      1  0.4512780000000  0.4588300000000  0.5122960000000 1.0
C      1  0.5114920000000  0.4875140000000  0.4293340000000 1.0
C      1  0.5100900000000  0.5669330000000  0.5364320000000 1.0
C      1  0.5142420000000  0.4353300000000  0.5365510000000 1.0
C      1  0.4892580000000  0.5011440000000  0.4312790000000 1.0
C      1  0.4893660000000  0.4302600000000  0.5296110000000 1.0
C      1  0.4832930000000  0.5620030000000  0.5394630000000 1.0
C      1  0.4731080000000  0.5399170000000  0.5262470000000 1.0
C      1  0.4772680000000  0.4515340000000  0.5158970000000 1.0
C      1  0.4794800000000  0.5130540000000  0.4549730000000 1.0
C      1  0.5245930000000  0.4598500000000  0.5273640000000 1.0
C      1  0.5309220000000  0.5592210000000  0.5237560000000 1.0
C      1  0.5317700000000  0.4784160000000  0.4428610000000 1.0
C      1  0.5561800000000  0.5189300000000  0.5018630000000 1.0
C      1  0.5570800000000  0.4912310000000  0.5124450000000 1.0
C      1  0.5542700000000  0.4966710000000  0.4847260000000 1.0
C      1  0.4340340000000  0.4771130000000  0.5116540000000 1.0
C      1  0.4404490000000  0.5045040000000  0.5099940000000 1.0
C      1  0.4392160000000  0.5172540000000  0.4851130000000 1.0
C      1  0.5006070000000  0.5112510000000  0.4756540000000 1.0
C      1  0.4993530000000  0.4752880000000  0.5108780000000 1.0
C      1  0.4898340000000  0.5248340000000  0.5072880000000 1.0
C      1  0.5111530000000  0.5325070000000  0.4910410000000 1.0
C      1  0.4855030000000  0.4999950000000  0.5215620000000 1.0
C      1  0.5091200000000  0.4846570000000  0.4853890000000 1.0
END
