TITL C-105241-9107-1 -98.0516928694565 125000 -717.472561804771 0 0 102 (C1) n - 1
REM
REM in /rds/project/t2_vol4/rds-t2-cs072/BORA/CARBON/from-Arr/AIRSS/Generating-Clusters/GAP-ML-2020/Higher-Symm/SD-CG/HFTN-CG
REM
REM
REM
REM
REM
REM ./C.cell (b20cbc046b6831c77cfcea5457e17084)
REM AIRSS Version 0.9.1 bugfix July 2018 build 013d7b7c2542+ Fri, 06 Jul 2018 19:26:36 +0100
REM compiler GCC version 9.3.0
REM options -cpp -mtune=generic -march=x86-64 -g -O0
REM seed -321218981 1312848431 843750899 -1375294660 1509647355 -1683408597 1097969608 151161149 1798284967 -405205295 -1416767731 160651763 651726497 36058094 1511911901 572771057 1522307179 -313914118 -262849284 839807947 -609230410 825112155 -1566438617 -2044618446 -335028428 -1080437625 -1108731907 1583194026 -788040151 -215883400 364125769 -960356746 404006105
REM
CELL 1.54180   50.00000   50.00000   50.00000   90.00000   90.00000   90.00000
LATT -1
SFAC C  
C      1  0.5582100000000  0.4775850000000  0.4609900000000 1.0
C      1  0.5390920000000  0.4562130000000  0.4735590000000 1.0
C      1  0.5146360000000  0.4408140000000  0.4618110000000 1.0
C      1  0.4841710000000  0.4483080000000  0.4686990000000 1.0
C      1  0.4349300000000  0.4653650000000  0.4521100000000 1.0
C      1  0.4253240000000  0.4926100000000  0.4520230000000 1.0
C      1  0.4395420000000  0.5459440000000  0.4508050000000 1.0
C      1  0.4618220000000  0.5647470000000  0.4509960000000 1.0
C      1  0.5169330000000  0.5705340000000  0.4518290000000 1.0
C      1  0.5427170000000  0.5577420000000  0.4518150000000 1.0
C      1  0.5562670000000  0.5083680000000  0.4667220000000 1.0
C      1  0.4438610000000  0.5618260000000  0.5203110000000 1.0
C      1  0.4894820000000  0.5846650000000  0.5182220000000 1.0
C      1  0.5399340000000  0.5811700000000  0.5183750000000 1.0
C      1  0.5780970000000  0.5468750000000  0.5172790000000 1.0
C      1  0.5919050000000  0.4991710000000  0.5207300000000 1.0
C      1  0.5770230000000  0.4506930000000  0.5231970000000 1.0
C      1  0.5388000000000  0.4182110000000  0.5231480000000 1.0
C      1  0.4888800000000  0.4106740000000  0.5210320000000 1.0
C      1  0.4436990000000  0.4305930000000  0.5180930000000 1.0
C      1  0.4125950000000  0.4710050000000  0.5190570000000 1.0
C      1  0.4136410000000  0.5214120000000  0.5182160000000 1.0
C      1  0.5070600000000  0.4509610000000  0.5369370000000 1.0
C      1  0.4772950000000  0.4509160000000  0.5487470000000 1.0
C      1  0.4552360000000  0.4703100000000  0.5376620000000 1.0
C      1  0.4387110000000  0.4953140000000  0.5519380000000 1.0
C      1  0.4390160000000  0.5254800000000  0.5545150000000 1.0
C      1  0.4841930000000  0.5472700000000  0.5441480000000 1.0
C      1  0.5137510000000  0.5550650000000  0.5487860000000 1.0
C      1  0.5373290000000  0.5394160000000  0.5367240000000 1.0
C      1  0.5534940000000  0.5160540000000  0.5485880000000 1.0
C      1  0.5496540000000  0.4867130000000  0.5372170000000 1.0
C      1  0.5356300000000  0.4604410000000  0.5486740000000 1.0
C      1  0.4424960000000  0.5637760000000  0.4921370000000 1.0
C      1  0.4884980000000  0.5855660000000  0.4895290000000 1.0
C      1  0.5394370000000  0.5809800000000  0.4901190000000 1.0
C      1  0.5780600000000  0.5465380000000  0.4883610000000 1.0
C      1  0.5930490000000  0.4974730000000  0.4920360000000 1.0
C      1  0.5793010000000  0.4487650000000  0.4949370000000 1.0
C      1  0.5403730000000  0.4154670000000  0.4949700000000 1.0
C      1  0.4902700000000  0.4091970000000  0.4925040000000 1.0
C      1  0.4437150000000  0.4304920000000  0.4893060000000 1.0
C      1  0.4133010000000  0.4719410000000  0.4907930000000 1.0
C      1  0.4133460000000  0.5227730000000  0.4895270000000 1.0
C      1  0.5575420000000  0.5632390000000  0.4756040000000 1.0
C      1  0.5820800000000  0.5200150000000  0.4779840000000 1.0
C      1  0.5823880000000  0.4729730000000  0.4795240000000 1.0
C      1  0.5575640000000  0.4347320000000  0.4837560000000 1.0
C      1  0.5158390000000  0.4161540000000  0.4796790000000 1.0
C      1  0.4696200000000  0.4238430000000  0.4790530000000 1.0
C      1  0.4289470000000  0.4520360000000  0.4764590000000 1.0
C      1  0.4131610000000  0.4971880000000  0.4769360000000 1.0
C      1  0.4268260000000  0.5450870000000  0.4764030000000 1.0
C      1  0.4645000000000  0.5752630000000  0.4772600000000 1.0
C      1  0.5140170000000  0.5834910000000  0.4767030000000 1.0
C      1  0.5324790000000  0.5371160000000  0.4330660000000 1.0
C      1  0.5455600000000  0.5130780000000  0.4387600000000 1.0
C      1  0.5463620000000  0.4844780000000  0.4328020000000 1.0
C      1  0.5276460000000  0.4681170000000  0.4212600000000 1.0
C      1  0.5083800000000  0.4528240000000  0.4336500000000 1.0
C      1  0.4805900000000  0.4583500000000  0.4404790000000 1.0
C      1  0.4577410000000  0.4733170000000  0.4346350000000 1.0
C      1  0.4479780000000  0.5012010000000  0.4343190000000 1.0
C      1  0.4552530000000  0.5278190000000  0.4330450000000 1.0
C      1  0.4777980000000  0.5471120000000  0.4323610000000 1.0
C      1  0.5056480000000  0.5502430000000  0.4327310000000 1.0
C      1  0.5081490000000  0.5450110000000  0.5787250000000 1.0
C      1  0.5267160000000  0.5297630000000  0.5903790000000 1.0
C      1  0.5458060000000  0.5128780000000  0.5783810000000 1.0
C      1  0.5452170000000  0.4870330000000  0.5871420000000 1.0
C      1  0.5318710000000  0.4648750000000  0.5784020000000 1.0
C      1  0.5084960000000  0.4535610000000  0.5868460000000 1.0
C      1  0.4827370000000  0.4570090000000  0.5785270000000 1.0
C      1  0.4676410000000  0.4770370000000  0.5911540000000 1.0
C      1  0.4531730000000  0.4965040000000  0.5806060000000 1.0
C      1  0.4566870000000  0.5260180000000  0.5776200000000 1.0
C      1  0.4796910000000  0.5415090000000  0.5735410000000 1.0
C      1  0.5047650000000  0.4638880000000  0.5104130000000 1.0
C      1  0.4828220000000  0.4669370000000  0.4946610000000 1.0
C      1  0.4633430000000  0.4804070000000  0.5091940000000 1.0
C      1  0.4651320000000  0.5165360000000  0.4829920000000 1.0
C      1  0.4644040000000  0.5077170000000  0.5087830000000 1.0
C      1  0.4869090000000  0.5185500000000  0.5273970000000 1.0
C      1  0.5019820000000  0.5306520000000  0.5027760000000 1.0
C      1  0.5282230000000  0.5322030000000  0.5071700000000 1.0
C      1  0.5408650000000  0.5117530000000  0.4939620000000 1.0
C      1  0.5385360000000  0.4902470000000  0.5102600000000 1.0
C      1  0.5276570000000  0.4694920000000  0.4975090000000 1.0
C      1  0.4692900000000  0.5687730000000  0.5307880000000 1.0
C      1  0.5147750000000  0.5797920000000  0.5316810000000 1.0
C      1  0.5568270000000  0.5611240000000  0.5291410000000 1.0
C      1  0.5799510000000  0.5223230000000  0.5324620000000 1.0
C      1  0.5785240000000  0.4772220000000  0.5325690000000 1.0
C      1  0.5537350000000  0.4392750000000  0.5359280000000 1.0
C      1  0.5123850000000  0.4211320000000  0.5325580000000 1.0
C      1  0.4677420000000  0.4257300000000  0.5330150000000 1.0
C      1  0.4316580000000  0.4530240000000  0.5300800000000 1.0
C      1  0.4154200000000  0.4959470000000  0.5319250000000 1.0
C      1  0.4290510000000  0.5406910000000  0.5331190000000 1.0
C      1  0.4927100000000  0.5192020000000  0.4774970000000 1.0
C      1  0.5045010000000  0.4991480000000  0.4635150000000 1.0
C      1  0.4994250000000  0.5005990000000  0.5464260000000 1.0
END
