TITL C-109985-9515-6 -0.0260887311046728 125000 -197.430132313835 0 0 30 (D3d) n - 1
REM
REM in /rds/project/t2_vol4/rds-t2-cs072/BORA/CARBON/from-Arr/AIRSS/Generating-Clusters/GAP-ML-2020/Higher-Symm/SD-CG/HFTN-CG
REM
REM
REM
REM
REM
REM ./C.cell (b20cbc046b6831c77cfcea5457e17084)
REM AIRSS Version 0.9.1 bugfix July 2018 build 013d7b7c2542+ Fri, 06 Jul 2018 19:26:36 +0100
REM compiler GCC version 9.3.0
REM options -cpp -mtune=generic -march=x86-64 -g -O0
REM seed -1478298775 -1624104087 -960404972 -353170374 -2132422225 -534075577 -1997999663 1901523847 -1067578798 1645410050 -690635098 1218063595 -1770911186 -1667859925 -145465303 -1524824305 -650134970 1180173471 -871891463 2012175740 -1153968491 -198487049 1238339703 -141234217 307750388 -913668783 1170383188 -1290565963 -2074384703 -32907554 -1862105102 -479111813 -1892155064
REM
CELL 1.54180   50.00000   50.00000   50.00000   90.00000   90.00000   90.00000
LATT -1
SFAC C  
C      1  0.5323950000000  0.5348600000000  0.4563970000000 1.0
C      1  0.4865190000000  0.5455840000000  0.5436610000000 1.0
C      1  0.4532730000000  0.5110180000000  0.4568600000000 1.0
C      1  0.4676050000000  0.4651400000000  0.5436030000000 1.0
C      1  0.5134810000000  0.4544160000000  0.4563390000000 1.0
C      1  0.5467270000000  0.4889820000000  0.5431400000000 1.0
C      1  0.4546440000000  0.5138040000000  0.5437970000000 1.0
C      1  0.4648570000000  0.4675230000000  0.4566860000000 1.0
C      1  0.5110640000000  0.4534250000000  0.5432930000000 1.0
C      1  0.5453560000000  0.4861960000000  0.4562030000000 1.0
C      1  0.5351430000000  0.5324770000000  0.5433140000000 1.0
C      1  0.4889360000000  0.5465750000000  0.4567070000000 1.0
C      1  0.5527340000000  0.5138510000000  0.5484980000000 1.0
C      1  0.5138000000000  0.5524850000000  0.4512180000000 1.0
C      1  0.4620210000000  0.5383030000000  0.5491450000000 1.0
C      1  0.4472660000000  0.4861490000000  0.4515020000000 1.0
C      1  0.4862000000000  0.4475150000000  0.5487820000000 1.0
C      1  0.5379790000000  0.4616970000000  0.4508550000000 1.0
C      1  0.4809480000000  0.5190850000000  0.4943330000000 1.0
C      1  0.4740150000000  0.4930550000000  0.5059880000000 1.0
C      1  0.4929530000000  0.4740100000000  0.4941530000000 1.0
C      1  0.5190520000000  0.4809150000000  0.5056670000000 1.0
C      1  0.5259850000000  0.5069450000000  0.4940120000000 1.0
C      1  0.5070470000000  0.5259900000000  0.5058470000000 1.0
C      1  0.4624830000000  0.4898830000000  0.5313160000000 1.0
C      1  0.4896370000000  0.4623800000000  0.4688880000000 1.0
C      1  0.5277630000000  0.4722870000000  0.5308500000000 1.0
C      1  0.5375170000000  0.5101170000000  0.4686840000000 1.0
C      1  0.5103630000000  0.5376200000000  0.5311120000000 1.0
C      1  0.4722370000000  0.5277130000000  0.4691500000000 1.0
END
