TITL C-101434-5749-10 -0.0129859833211346 125000 -447.18122659447 0 0 65 (C1) n - 1
REM
REM in /rds/project/t2_vol4/rds-t2-cs072/BORA/CARBON/from-Arr/AIRSS/Generating-Clusters/GAP-ML-2020/Higher-Symm/SD-CG/HFTN-CG
REM
REM
REM
REM
REM
REM ./C.cell (b20cbc046b6831c77cfcea5457e17084)
REM AIRSS Version 0.9.1 bugfix July 2018 build 013d7b7c2542+ Fri, 06 Jul 2018 19:26:36 +0100
REM compiler GCC version 9.3.0
REM options -cpp -mtune=generic -march=x86-64 -g -O0
REM seed 981385591 -121810896 -2111776887 -1935585036 1639091145 -1878434126 662797439 -2078346081 1718012967 -1364349965 1320939670 -1759095331 -34203205 -40436241 -620439351 -1753043365 1526413290 -1368772818 -1560799141 637273179 2059584859 -1693544289 -1597829912 -672719702 21488154 1195758662 -1158683120 -1296390453 -343837452 -1496508308 983207162 -562871308 567179278
REM
CELL 1.54180   50.00000   50.00000   50.00000   90.00000   90.00000   90.00000
LATT -1
SFAC C  
C      1  0.5302400000000  0.5527410000000  0.5293530000000 1.0
C      1  0.4459020000000  0.5245500000000  0.4362290000000 1.0
C      1  0.4789970000000  0.5243790000000  0.5742150000000 1.0
C      1  0.5709230000000  0.4713920000000  0.4965040000000 1.0
C      1  0.5213570000000  0.5627250000000  0.4809010000000 1.0
C      1  0.4920070000000  0.5344950000000  0.4548750000000 1.0
C      1  0.4408450000000  0.4880950000000  0.5252630000000 1.0
C      1  0.4615160000000  0.5369470000000  0.5302170000000 1.0
C      1  0.5019040000000  0.4829610000000  0.4420280000000 1.0
C      1  0.4842420000000  0.5462950000000  0.5075370000000 1.0
C      1  0.4285290000000  0.5006540000000  0.5036100000000 1.0
C      1  0.5174920000000  0.5308860000000  0.4434000000000 1.0
C      1  0.5583420000000  0.5360150000000  0.4657820000000 1.0
C      1  0.5227440000000  0.5028880000000  0.4391600000000 1.0
C      1  0.5762200000000  0.4984580000000  0.4878010000000 1.0
C      1  0.4890080000000  0.5207020000000  0.4847800000000 1.0
C      1  0.5021110000000  0.4346980000000  0.5131600000000 1.0
C      1  0.5527810000000  0.4544970000000  0.4823620000000 1.0
C      1  0.4279130000000  0.5302850000000  0.5028800000000 1.0
C      1  0.4936150000000  0.4996690000000  0.5786410000000 1.0
C      1  0.5580830000000  0.4893260000000  0.5411040000000 1.0
C      1  0.5627650000000  0.5435040000000  0.4928200000000 1.0
C      1  0.4988900000000  0.4462270000000  0.5396690000000 1.0
C      1  0.5186970000000  0.5180190000000  0.4920290000000 1.0
C      1  0.4662740000000  0.4554250000000  0.4506750000000 1.0
C      1  0.5645710000000  0.5161730000000  0.5332840000000 1.0
C      1  0.5300910000000  0.4961380000000  0.4991700000000 1.0
C      1  0.5401060000000  0.5589480000000  0.5024930000000 1.0
C      1  0.5643110000000  0.4681570000000  0.5239850000000 1.0
C      1  0.4523910000000  0.4616590000000  0.5270090000000 1.0
C      1  0.4897430000000  0.4825280000000  0.5065600000000 1.0
C      1  0.4812980000000  0.4360240000000  0.4940000000000 1.0
C      1  0.5340570000000  0.5480990000000  0.4579670000000 1.0
C      1  0.4884480000000  0.4451560000000  0.4665440000000 1.0
C      1  0.5410200000000  0.4642950000000  0.4593060000000 1.0
C      1  0.4340830000000  0.5433800000000  0.4794080000000 1.0
C      1  0.5146740000000  0.4736450000000  0.4950380000000 1.0
C      1  0.5014130000000  0.5503500000000  0.5317460000000 1.0
C      1  0.5107430000000  0.4634270000000  0.4623280000000 1.0
C      1  0.5485700000000  0.5365070000000  0.5410830000000 1.0
C      1  0.4871900000000  0.4910760000000  0.5341230000000 1.0
C      1  0.4924030000000  0.5644100000000  0.4840360000000 1.0
C      1  0.5739730000000  0.5208060000000  0.5063850000000 1.0
C      1  0.4552750000000  0.5014920000000  0.4313320000000 1.0
C      1  0.4403980000000  0.4486700000000  0.4562470000000 1.0
C      1  0.4713020000000  0.4796250000000  0.5730560000000 1.0
C      1  0.4456230000000  0.4890440000000  0.4847930000000 1.0
C      1  0.4744030000000  0.4963990000000  0.4874940000000 1.0
C      1  0.5300000000000  0.4451260000000  0.5033210000000 1.0
C      1  0.4343120000000  0.5438390000000  0.5266270000000 1.0
C      1  0.5326460000000  0.4821390000000  0.5538050000000 1.0
C      1  0.4770680000000  0.5574670000000  0.4601530000000 1.0
C      1  0.4825630000000  0.5422110000000  0.5513790000000 1.0
C      1  0.4501960000000  0.5446210000000  0.4579120000000 1.0
C      1  0.5247710000000  0.4555150000000  0.5473600000000 1.0
C      1  0.5469680000000  0.4906240000000  0.4488770000000 1.0
C      1  0.5649540000000  0.5079550000000  0.4626630000000 1.0
C      1  0.4584270000000  0.5050850000000  0.5675260000000 1.0
C      1  0.4754050000000  0.4635510000000  0.5469830000000 1.0
C      1  0.4604530000000  0.5066510000000  0.5380520000000 1.0
C      1  0.5093670000000  0.4974000000000  0.5546280000000 1.0
C      1  0.5439410000000  0.4484480000000  0.5275980000000 1.0
C      1  0.4739020000000  0.4807130000000  0.4367300000000 1.0
C      1  0.4420970000000  0.4602590000000  0.4809070000000 1.0
C      1  0.4554450000000  0.4465490000000  0.5030970000000 1.0
END
