TITL C-100762-6435-3 44.8793702349348 125000 -58.3518096393555 0 0 9 (D(inf)h) n - 1
REM
REM in /rds/project/t2_vol4/rds-t2-cs072/BORA/CARBON/from-Arr/AIRSS/Generating-Clusters/GAP-ML-2020/Higher-Symm/SD-CG/HFTN-CG
REM
REM
REM
REM
REM
REM ./C.cell (b20cbc046b6831c77cfcea5457e17084)
REM AIRSS Version 0.9.1 bugfix July 2018 build 013d7b7c2542+ Fri, 06 Jul 2018 19:26:36 +0100
REM compiler GCC version 9.3.0
REM options -cpp -mtune=generic -march=x86-64 -g -O0
REM seed -169890027 1297848405 -1506810248 266234100 1882734051 -438445796 642561903 -1822159837 416771307 670268305 -1397038241 349509569 -849922039 1813831259 -622004039 -1435260609 -1385654494 -1589685157 -1787223704 -2055427086 -1839698493 841598880 1232976355 1122082389 779714725 1017897330 1529208211 -225969339 763567027 1807275487 1089501355 -755308596 571014335
REM
CELL 1.54180   50.00000   50.00000   50.00000   90.00000   90.00000   90.00000
LATT -1
SFAC C  
C      1  0.4997440000000  0.5004590000000  0.5000000000000 1.0
C      1  0.4997440000000  0.5004590000000  0.4230960000000 1.0
C      1  0.4997440000000  0.5004590000000  0.5256270000000 1.0
C      1  0.4997440000000  0.5004590000000  0.4743730000000 1.0
C      1  0.4997440000000  0.5004590000000  0.5769040000000 1.0
C      1  0.4997440000000  0.5004590000000  0.6025120000000 1.0
C      1  0.4997440000000  0.5004590000000  0.3974880000000 1.0
C      1  0.4997440000000  0.5004590000000  0.4490260000000 1.0
C      1  0.4997440000000  0.5004590000000  0.5509740000000 1.0
END
