TITL C-102484-7249-1 0.0413097482905186 125000 -518.431305786968 0 0 75 (C1) n - 1
REM
REM in /rds/project/t2_vol4/rds-t2-cs072/BORA/CARBON/from-Arr/AIRSS/Generating-Clusters/GAP-ML-2020/Higher-Symm/SD-CG/HFTN-CG
REM
REM
REM
REM
REM
REM ./C.cell (b20cbc046b6831c77cfcea5457e17084)
REM AIRSS Version 0.9.1 bugfix July 2018 build 013d7b7c2542+ Fri, 06 Jul 2018 19:26:36 +0100
REM compiler GCC version 9.3.0
REM options -cpp -mtune=generic -march=x86-64 -g -O0
REM seed -1020778387 -108813105 296076318 -1160836340 -1965308495 -20100625 988195243 864735736 2138972511 -325070886 235675606 -1126519636 -1907572951 -1203060082 399901349 1944573110 1361491864 348112292 -140819214 1209166052 -172615698 1354419935 -1029625495 -241558779 -1855679046 -891646160 483873046 -2032872842 1218619264 635403522 -1176063674 1223198606 -1387381687
REM
CELL 1.54180   50.00000   50.00000   50.00000   90.00000   90.00000   90.00000
LATT -1
SFAC C  
C      1  0.4381670000000  0.4535940000000  0.4721330000000 1.0
C      1  0.4433310000000  0.4366530000000  0.5190070000000 1.0
C      1  0.4414950000000  0.4761280000000  0.5482220000000 1.0
C      1  0.4402790000000  0.5272150000000  0.5520260000000 1.0
C      1  0.4227920000000  0.5421450000000  0.5149620000000 1.0
C      1  0.4448110000000  0.5445620000000  0.4708150000000 1.0
C      1  0.4378770000000  0.4992700000000  0.4465600000000 1.0
C      1  0.5300850000000  0.5301400000000  0.5554940000000 1.0
C      1  0.5311100000000  0.5582730000000  0.5118570000000 1.0
C      1  0.5358150000000  0.5406980000000  0.4636630000000 1.0
C      1  0.5278860000000  0.4971740000000  0.4388980000000 1.0
C      1  0.5288120000000  0.4520920000000  0.4632570000000 1.0
C      1  0.5382500000000  0.4484410000000  0.5128000000000 1.0
C      1  0.5326020000000  0.4782050000000  0.5540400000000 1.0
C      1  0.5438050000000  0.4716760000000  0.4451160000000 1.0
C      1  0.5509490000000  0.4470480000000  0.4854860000000 1.0
C      1  0.5531490000000  0.4626180000000  0.5355410000000 1.0
C      1  0.5469980000000  0.5047860000000  0.5581030000000 1.0
C      1  0.5460850000000  0.5471080000000  0.5359840000000 1.0
C      1  0.5509190000000  0.5517780000000  0.4881330000000 1.0
C      1  0.5490590000000  0.5189500000000  0.4471800000000 1.0
C      1  0.5707700000000  0.5347080000000  0.4985230000000 1.0
C      1  0.5709200000000  0.5060750000000  0.4583390000000 1.0
C      1  0.5687800000000  0.4774750000000  0.4552710000000 1.0
C      1  0.5721570000000  0.4641000000000  0.4807910000000 1.0
C      1  0.5723370000000  0.4812540000000  0.5267440000000 1.0
C      1  0.5681100000000  0.5063810000000  0.5402190000000 1.0
C      1  0.5675120000000  0.5319220000000  0.5269110000000 1.0
C      1  0.5086490000000  0.4988980000000  0.4653160000000 1.0
C      1  0.5098030000000  0.4722520000000  0.4795980000000 1.0
C      1  0.5250990000000  0.4768450000000  0.5047710000000 1.0
C      1  0.5134230000000  0.4878990000000  0.5294780000000 1.0
C      1  0.5115240000000  0.5170520000000  0.5314140000000 1.0
C      1  0.5120570000000  0.5320880000000  0.5064340000000 1.0
C      1  0.5232470000000  0.5184100000000  0.4826350000000 1.0
C      1  0.4819430000000  0.4963830000000  0.4183370000000 1.0
C      1  0.4834960000000  0.4333820000000  0.4513070000000 1.0
C      1  0.4942080000000  0.4212340000000  0.5213280000000 1.0
C      1  0.4881990000000  0.4675930000000  0.5757980000000 1.0
C      1  0.4856540000000  0.5382730000000  0.5753850000000 1.0
C      1  0.4863590000000  0.5813390000000  0.5149640000000 1.0
C      1  0.4908430000000  0.5617970000000  0.4466320000000 1.0
C      1  0.5193440000000  0.4272070000000  0.5188230000000 1.0
C      1  0.5142240000000  0.4679380000000  0.5747900000000 1.0
C      1  0.5114640000000  0.5399640000000  0.5753490000000 1.0
C      1  0.5124440000000  0.5806880000000  0.5154970000000 1.0
C      1  0.5163490000000  0.5572620000000  0.4492710000000 1.0
C      1  0.5079400000000  0.4967310000000  0.4171710000000 1.0
C      1  0.5094550000000  0.4335670000000  0.4510620000000 1.0
C      1  0.4680150000000  0.5608460000000  0.5101800000000 1.0
C      1  0.4716020000000  0.5469460000000  0.4601650000000 1.0
C      1  0.4646670000000  0.4977470000000  0.4398500000000 1.0
C      1  0.4661140000000  0.4506560000000  0.4643580000000 1.0
C      1  0.4722970000000  0.4386990000000  0.5172600000000 1.0
C      1  0.4699640000000  0.4762810000000  0.5562300000000 1.0
C      1  0.4682240000000  0.5285370000000  0.5563610000000 1.0
C      1  0.4825830000000  0.4854110000000  0.5308020000000 1.0
C      1  0.4805230000000  0.5161570000000  0.5312660000000 1.0
C      1  0.4810360000000  0.5333860000000  0.5063170000000 1.0
C      1  0.4740270000000  0.5249660000000  0.4791210000000 1.0
C      1  0.4784480000000  0.4990860000000  0.4668990000000 1.0
C      1  0.4792820000000  0.4716060000000  0.4812710000000 1.0
C      1  0.4738770000000  0.4670240000000  0.5094610000000 1.0
C      1  0.4286540000000  0.5220320000000  0.4632780000000 1.0
C      1  0.4291160000000  0.4808300000000  0.4676560000000 1.0
C      1  0.4308050000000  0.4406350000000  0.4947000000000 1.0
C      1  0.4319080000000  0.4524560000000  0.5393560000000 1.0
C      1  0.4326790000000  0.5023200000000  0.5375980000000 1.0
C      1  0.4236640000000  0.5470550000000  0.5424580000000 1.0
C      1  0.4415160000000  0.5555110000000  0.4979710000000 1.0
C      1  0.5805750000000  0.4836330000000  0.4997070000000 1.0
C      1  0.5764550000000  0.5095350000000  0.4862030000000 1.0
C      1  0.4210060000000  0.5118870000000  0.5121970000000 1.0
C      1  0.5409460000000  0.4973100000000  0.4913050000000 1.0
C      1  0.4201820000000  0.5033120000000  0.4847580000000 1.0
END
