TITL C-105240-314-1 -38.2041489678411 125000 -591.411996893255 0 0 87 (C1) n - 1
REM
REM in /rds/project/t2_vol4/rds-t2-cs072/BORA/CARBON/from-Arr/AIRSS/Generating-Clusters/GAP-ML-2020/Higher-Symm/SD-CG/HFTN-CG
REM
REM
REM
REM
REM
REM ./C.cell (b20cbc046b6831c77cfcea5457e17084)
REM AIRSS Version 0.9.1 bugfix July 2018 build 013d7b7c2542+ Fri, 06 Jul 2018 19:26:36 +0100
REM compiler GCC version 9.3.0
REM options -cpp -mtune=generic -march=x86-64 -g -O0
REM seed -484639885 -1913521080 1426260820 1881771859 -181569031 -1454473186 -974144018 -588325205 -2065237949 -1416904071 1454133088 991814027 -1589425001 -53611276 2135851480 -2093860309 -313337137 1704848099 -1670994094 686906516 -293848620 -879048676 1586887159 -137267746 -529184693 1078212564 1842227443 450370706 -1574926646 467564620 -1758802085 -2114980359 -1173608560
REM
CELL 1.54180   50.00000   50.00000   50.00000   90.00000   90.00000   90.00000
LATT -1
SFAC C  
C      1  0.4446950000000  0.4742940000000  0.4368440000000 1.0
C      1  0.4573150000000  0.5466720000000  0.4290440000000 1.0
C      1  0.4843770000000  0.5605100000000  0.4348190000000 1.0
C      1  0.5505930000000  0.5402490000000  0.4337290000000 1.0
C      1  0.5598680000000  0.4848510000000  0.4324020000000 1.0
C      1  0.5192170000000  0.4514980000000  0.4461910000000 1.0
C      1  0.4658910000000  0.4533950000000  0.4349730000000 1.0
C      1  0.5336260000000  0.4917320000000  0.4225030000000 1.0
C      1  0.5134570000000  0.4706890000000  0.4247200000000 1.0
C      1  0.4849710000000  0.4726600000000  0.4237510000000 1.0
C      1  0.4660130000000  0.4954600000000  0.4306370000000 1.0
C      1  0.4708340000000  0.5227080000000  0.4188710000000 1.0
C      1  0.4966980000000  0.5327500000000  0.4318520000000 1.0
C      1  0.5278660000000  0.5205100000000  0.4330870000000 1.0
C      1  0.5331250000000  0.5118880000000  0.4640420000000 1.0
C      1  0.5270190000000  0.4847660000000  0.4762210000000 1.0
C      1  0.5061040000000  0.4642060000000  0.4708800000000 1.0
C      1  0.4828240000000  0.4837150000000  0.4766930000000 1.0
C      1  0.4688180000000  0.5042580000000  0.4609430000000 1.0
C      1  0.4857360000000  0.5283150000000  0.4604010000000 1.0
C      1  0.5107300000000  0.5269720000000  0.4740950000000 1.0
C      1  0.4598190000000  0.5152090000000  0.5073460000000 1.0
C      1  0.4755170000000  0.5394950000000  0.5018460000000 1.0
C      1  0.5021520000000  0.5407440000000  0.5131520000000 1.0
C      1  0.5407650000000  0.5114240000000  0.5137990000000 1.0
C      1  0.5443110000000  0.4812510000000  0.5181250000000 1.0
C      1  0.5178370000000  0.4654660000000  0.5205590000000 1.0
C      1  0.4706110000000  0.4871760000000  0.5132920000000 1.0
C      1  0.4692820000000  0.5489820000000  0.4757050000000 1.0
C      1  0.5185760000000  0.5503790000000  0.4898840000000 1.0
C      1  0.5531880000000  0.5175250000000  0.4857530000000 1.0
C      1  0.5506470000000  0.4737230000000  0.4902220000000 1.0
C      1  0.5157020000000  0.4512980000000  0.4947280000000 1.0
C      1  0.4613070000000  0.4704330000000  0.4912860000000 1.0
C      1  0.4458420000000  0.5116530000000  0.4808390000000 1.0
C      1  0.4155800000000  0.4751390000000  0.5304840000000 1.0
C      1  0.4300610000000  0.5474530000000  0.5229370000000 1.0
C      1  0.4961040000000  0.5839580000000  0.5300150000000 1.0
C      1  0.5653790000000  0.5526540000000  0.5301670000000 1.0
C      1  0.5850640000000  0.4806250000000  0.5288960000000 1.0
C      1  0.5383770000000  0.4226400000000  0.5299580000000 1.0
C      1  0.4658420000000  0.4227330000000  0.5294630000000 1.0
C      1  0.4747750000000  0.5409430000000  0.5512790000000 1.0
C      1  0.5225610000000  0.5428220000000  0.5541780000000 1.0
C      1  0.5529560000000  0.5074470000000  0.5579590000000 1.0
C      1  0.5420360000000  0.4619740000000  0.5608610000000 1.0
C      1  0.4981970000000  0.4420860000000  0.5617370000000 1.0
C      1  0.4545030000000  0.4602730000000  0.5633720000000 1.0
C      1  0.4440760000000  0.5057060000000  0.5571120000000 1.0
C      1  0.4991990000000  0.5556310000000  0.5395790000000 1.0
C      1  0.5477280000000  0.5310830000000  0.5401650000000 1.0
C      1  0.5599420000000  0.4810410000000  0.5451570000000 1.0
C      1  0.5236310000000  0.4443080000000  0.5442450000000 1.0
C      1  0.4707550000000  0.4373670000000  0.5527690000000 1.0
C      1  0.4338410000000  0.4788800000000  0.5519280000000 1.0
C      1  0.4502530000000  0.5283830000000  0.5363180000000 1.0
C      1  0.5406910000000  0.4398940000000  0.4571030000000 1.0
C      1  0.4659190000000  0.4365840000000  0.4564590000000 1.0
C      1  0.4266780000000  0.4731160000000  0.4563520000000 1.0
C      1  0.4362160000000  0.5500190000000  0.4456680000000 1.0
C      1  0.4832740000000  0.5709280000000  0.4619510000000 1.0
C      1  0.5588610000000  0.5505220000000  0.4554570000000 1.0
C      1  0.5755840000000  0.4876000000000  0.4520390000000 1.0
C      1  0.5682580000000  0.5607980000000  0.5062790000000 1.0
C      1  0.5903750000000  0.4850380000000  0.5043220000000 1.0
C      1  0.5465130000000  0.4219090000000  0.5059900000000 1.0
C      1  0.4643360000000  0.4217170000000  0.5041140000000 1.0
C      1  0.4138700000000  0.4763240000000  0.5051780000000 1.0
C      1  0.4264730000000  0.5515650000000  0.4985030000000 1.0
C      1  0.4965790000000  0.5879660000000  0.5048690000000 1.0
C      1  0.4320850000000  0.4830080000000  0.4827130000000 1.0
C      1  0.4392430000000  0.5414140000000  0.4733700000000 1.0
C      1  0.5028390000000  0.5757230000000  0.4814040000000 1.0
C      1  0.5528540000000  0.5491950000000  0.4843990000000 1.0
C      1  0.5736480000000  0.4924040000000  0.4814440000000 1.0
C      1  0.5431350000000  0.4423620000000  0.4858210000000 1.0
C      1  0.4623260000000  0.4395750000000  0.4833310000000 1.0
C      1  0.4649990000000  0.5037940000000  0.5758140000000 1.0
C      1  0.4835810000000  0.5255020000000  0.5727080000000 1.0
C      1  0.5130170000000  0.5259930000000  0.5737490000000 1.0
C      1  0.5324810000000  0.5043060000000  0.5768620000000 1.0
C      1  0.5257370000000  0.4760850000000  0.5786870000000 1.0
C      1  0.4989030000000  0.4639480000000  0.5795420000000 1.0
C      1  0.4721940000000  0.4759120000000  0.5792950000000 1.0
C      1  0.5116640000000  0.5117330000000  0.5152130000000 1.0
C      1  0.4975510000000  0.4875740000000  0.5237000000000 1.0
C      1  0.5051020000000  0.5020010000000  0.4890490000000 1.0
END
