TITL C-102465-7223-7 224.248596124326 125000 -534.490426914646 0 0 78 (C3) n - 1
REM
REM in /rds/project/t2_vol4/rds-t2-cs072/BORA/CARBON/from-Arr/AIRSS/Generating-Clusters/GAP-ML-2020/Higher-Symm/SD-CG/HFTN-CG
REM
REM
REM
REM
REM
REM ./C.cell (b20cbc046b6831c77cfcea5457e17084)
REM AIRSS Version 0.9.1 bugfix July 2018 build 013d7b7c2542+ Fri, 06 Jul 2018 19:26:36 +0100
REM compiler GCC version 9.3.0
REM options -cpp -mtune=generic -march=x86-64 -g -O0
REM seed 426321960 585755227 1688754622 704371869 1808857509 -1658016025 -349408886 -1510266679 -707888312 -55477599 -753902919 2056832505 874939730 404125741 -1377965281 1047262494 -181436078 1975950326 1594467051 1253907304 -250872532 -1561002870 -458889257 -898232784 70806572 322095562 -1652089700 -2097793556 -570424272 828487859 1235782325 -908377482 391633257
REM
CELL 1.54180   50.00000   50.00000   50.00000   90.00000   90.00000   90.00000
LATT -1
SFAC C  
C      1  0.4833660000000  0.5758460000000  0.5142780000000 1.0
C      1  0.4833590000000  0.4497130000000  0.5585440000000 1.0
C      1  0.4833620000000  0.4744440000000  0.4271770000000 1.0
C      1  0.4833660000000  0.5758450000000  0.4857160000000 1.0
C      1  0.4833600000000  0.4497090000000  0.4414590000000 1.0
C      1  0.4833600000000  0.4744490000000  0.5728240000000 1.0
C      1  0.4938250000000  0.5491660000000  0.4456570000000 1.0
C      1  0.4938230000000  0.5224800000000  0.5697500000000 1.0
C      1  0.4938190000000  0.4283560000000  0.4845930000000 1.0
C      1  0.4938240000000  0.5491690000000  0.5543390000000 1.0
C      1  0.4938240000000  0.5224750000000  0.4302490000000 1.0
C      1  0.4938180000000  0.4283570000000  0.5154110000000 1.0
C      1  0.4480120000000  0.5159020000000  0.5556460000000 1.0
C      1  0.4480090000000  0.4438620000000  0.4859450000000 1.0
C      1  0.4480140000000  0.5402440000000  0.4584070000000 1.0
C      1  0.4480130000000  0.5158980000000  0.4443520000000 1.0
C      1  0.4480090000000  0.4438630000000  0.5140570000000 1.0
C      1  0.4480130000000  0.5402470000000  0.5415890000000 1.0
C      1  0.5448420000000  0.5241760000000  0.5706510000000 1.0
C      1  0.5448380000000  0.4267230000000  0.4856150000000 1.0
C      1  0.5448450000000  0.5490930000000  0.4437360000000 1.0
C      1  0.5448440000000  0.5241720000000  0.4293480000000 1.0
C      1  0.5448380000000  0.4267240000000  0.5143910000000 1.0
C      1  0.5448430000000  0.5490970000000  0.5562620000000 1.0
C      1  0.4994270000000  0.5511890000000  0.4754140000000 1.0
C      1  0.4994240000000  0.4956980000000  0.5566240000000 1.0
C      1  0.4994220000000  0.4531140000000  0.4679620000000 1.0
C      1  0.4994270000000  0.5511900000000  0.5245830000000 1.0
C      1  0.4994250000000  0.4956940000000  0.4433770000000 1.0
C      1  0.4994220000000  0.4531160000000  0.5320400000000 1.0
C      1  0.5633680000000  0.5248770000000  0.5143870000000 1.0
C      1  0.5633660000000  0.4750980000000  0.5143550000000 1.0
C      1  0.5633680000000  0.5000150000000  0.4712610000000 1.0
C      1  0.5633690000000  0.5248760000000  0.4856130000000 1.0
C      1  0.5633660000000  0.4750970000000  0.4856480000000 1.0
C      1  0.5633670000000  0.5000170000000  0.5287410000000 1.0
C      1  0.4671970000000  0.4280490000000  0.4451110000000 1.0
C      1  0.4672040000000  0.5835130000000  0.4651310000000 1.0
C      1  0.4671980000000  0.4884430000000  0.5897570000000 1.0
C      1  0.4671960000000  0.4280530000000  0.5548930000000 1.0
C      1  0.4672040000000  0.5835150000000  0.5348620000000 1.0
C      1  0.4672000000000  0.4884370000000  0.4102430000000 1.0
C      1  0.4863370000000  0.5258660000000  0.4855210000000 1.0
C      1  0.4863350000000  0.4996080000000  0.5296390000000 1.0
C      1  0.4863340000000  0.4745290000000  0.4848400000000 1.0
C      1  0.4863370000000  0.5258670000000  0.5144770000000 1.0
C      1  0.4863360000000  0.4996060000000  0.4703610000000 1.0
C      1  0.4863340000000  0.4745300000000  0.5151610000000 1.0
C      1  0.4537950000000  0.4998690000000  0.4691610000000 1.0
C      1  0.4537960000000  0.5267760000000  0.5153030000000 1.0
C      1  0.4537930000000  0.4733620000000  0.5155340000000 1.0
C      1  0.4537940000000  0.4998710000000  0.5308380000000 1.0
C      1  0.4537960000000  0.5267750000000  0.4846940000000 1.0
C      1  0.4537930000000  0.4733610000000  0.4844660000000 1.0
C      1  0.5267790000000  0.4842440000000  0.5549160000000 1.0
C      1  0.5267790000000  0.4603170000000  0.4588990000000 1.0
C      1  0.5267840000000  0.5554340000000  0.4861860000000 1.0
C      1  0.5267800000000  0.4842410000000  0.4450850000000 1.0
C      1  0.5267780000000  0.4603200000000  0.5411040000000 1.0
C      1  0.5267830000000  0.5554350000000  0.5138110000000 1.0
C      1  0.5486030000000  0.5012380000000  0.5541410000000 1.0
C      1  0.5486010000000  0.4524900000000  0.4740040000000 1.0
C      1  0.5486060000000  0.5462650000000  0.4718560000000 1.0
C      1  0.5486040000000  0.5012340000000  0.4458600000000 1.0
C      1  0.5486010000000  0.4524920000000  0.5260000000000 1.0
C      1  0.5486050000000  0.5462660000000  0.5281420000000 1.0
C      1  0.5192570000000  0.5310510000000  0.4171490000000 1.0
C      1  0.5192560000000  0.5562240000000  0.5683180000000 1.0
C      1  0.5192500000000  0.4127210000000  0.5145340000000 1.0
C      1  0.5192550000000  0.5310570000000  0.5828500000000 1.0
C      1  0.5192580000000  0.5562200000000  0.4316790000000 1.0
C      1  0.5192500000000  0.4127200000000  0.4854720000000 1.0
C      1  0.4651990000000  0.4247500000000  0.5276590000000 1.0
C      1  0.4652040000000  0.5136740000000  0.4210000000000 1.0
C      1  0.4652050000000  0.5615810000000  0.5513400000000 1.0
C      1  0.4651990000000  0.4247490000000  0.4723450000000 1.0
C      1  0.4652020000000  0.5136790000000  0.5789980000000 1.0
C      1  0.4652060000000  0.5615780000000  0.4486560000000 1.0
END
