TITL C-105248-9207-5 -1.43648773528317 125000 -234.997079268146 0 0 35 (C1) n - 1
REM
REM in /rds/project/t2_vol4/rds-t2-cs072/BORA/CARBON/from-Arr/AIRSS/Generating-Clusters/GAP-ML-2020/Higher-Symm/SD-CG/HFTN-CG
REM
REM
REM
REM
REM
REM ./C.cell (b20cbc046b6831c77cfcea5457e17084)
REM AIRSS Version 0.9.1 bugfix July 2018 build 013d7b7c2542+ Fri, 06 Jul 2018 19:26:36 +0100
REM compiler GCC version 9.3.0
REM options -cpp -mtune=generic -march=x86-64 -g -O0
REM seed 129732538 -927665074 1747697912 1744528744 -880400435 -1977474788 -1703623882 251587535 -1280468916 404617748 504298802 -1743289218 1143622155 -720659863 519025488 -120532970 314846114 -822739352 1736219973 -373575251 128879264 209275810 1876476000 728442630 -56624921 -195881213 -1737560860 -1551698341 -2074917484 -1479191806 -1843269406 -106637088 -1358026632
REM
CELL 1.54180   50.00000   50.00000   50.00000   90.00000   90.00000   90.00000
LATT -1
SFAC C  
C      1  0.4462520000000  0.5109780000000  0.5209540000000 1.0
C      1  0.4698210000000  0.5413330000000  0.4721400000000 1.0
C      1  0.5188820000000  0.5247210000000  0.4594400000000 1.0
C      1  0.4629760000000  0.4668980000000  0.5063820000000 1.0
C      1  0.4635280000000  0.5311230000000  0.5337250000000 1.0
C      1  0.4813970000000  0.5163200000000  0.5506530000000 1.0
C      1  0.4906490000000  0.4713430000000  0.5638670000000 1.0
C      1  0.4711040000000  0.5591940000000  0.4938440000000 1.0
C      1  0.4684890000000  0.5534680000000  0.5182640000000 1.0
C      1  0.4348630000000  0.5164450000000  0.4969620000000 1.0
C      1  0.4511990000000  0.5186050000000  0.4751850000000 1.0
C      1  0.5595520000000  0.5067480000000  0.4756090000000 1.0
C      1  0.5132410000000  0.4840750000000  0.5556950000000 1.0
C      1  0.5368040000000  0.4646110000000  0.5136760000000 1.0
C      1  0.5370150000000  0.5588380000000  0.5216990000000 1.0
C      1  0.5324300000000  0.4847710000000  0.5341440000000 1.0
C      1  0.4836030000000  0.4518040000000  0.4730060000000 1.0
C      1  0.4725910000000  0.4882340000000  0.5508830000000 1.0
C      1  0.4862000000000  0.4496460000000  0.5032570000000 1.0
C      1  0.5355880000000  0.5348560000000  0.5098890000000 1.0
C      1  0.5097760000000  0.5144270000000  0.5525250000000 1.0
C      1  0.5584940000000  0.4708470000000  0.4951900000000 1.0
C      1  0.5124650000000  0.4975030000000  0.4485580000000 1.0
C      1  0.5520190000000  0.4793080000000  0.4676700000000 1.0
C      1  0.4622610000000  0.4704840000000  0.4766840000000 1.0
C      1  0.4849970000000  0.5041780000000  0.4478260000000 1.0
C      1  0.4909320000000  0.5324290000000  0.4555450000000 1.0
C      1  0.5718430000000  0.4953070000000  0.4983390000000 1.0
C      1  0.4624700000000  0.4953100000000  0.4625730000000 1.0
C      1  0.4564150000000  0.4843790000000  0.5276670000000 1.0
C      1  0.5391460000000  0.5271980000000  0.4789040000000 1.0
C      1  0.5263660000000  0.4746180000000  0.4573150000000 1.0
C      1  0.5115570000000  0.4536220000000  0.4708340000000 1.0
C      1  0.5300140000000  0.5144760000000  0.5309270000000 1.0
C      1  0.5150610000000  0.4519010000000  0.5001680000000 1.0
END
