TITL C-101415-5363-2 -0.0793435948423546 125000 -987.607774575583 0 0 140 (C1) n - 1
REM
REM in /rds/project/t2_vol4/rds-t2-cs072/BORA/CARBON/from-Arr/AIRSS/Generating-Clusters/GAP-ML-2020/Higher-Symm/SD-CG/HFTN-CG
REM
REM
REM
REM
REM
REM ./C.cell (b20cbc046b6831c77cfcea5457e17084)
REM AIRSS Version 0.9.1 bugfix July 2018 build 013d7b7c2542+ Fri, 06 Jul 2018 19:26:36 +0100
REM compiler GCC version 9.3.0
REM options -cpp -mtune=generic -march=x86-64 -g -O0
REM seed 1827554958 -1172284153 -873733166 2031252742 -1509151136 -1160868473 -396977119 -777829773 -1520896973 -1674613206 233325062 -614777422 -2123451387 566800105 1607994188 -264047007 805961013 610648869 294475546 -1049195099 1250304537 317725786 -763952888 904653609 -1040308109 -681534539 -1192097038 1330115095 1601170897 820166996 1731809191 -2125698931 781877863
REM
CELL 1.54180   50.00000   50.00000   50.00000   90.00000   90.00000   90.00000
LATT -1
SFAC C  
C      1  0.5378880000000  0.5031830000000  0.4652360000000 1.0
C      1  0.4622210000000  0.5024280000000  0.5355440000000 1.0
C      1  0.5042340000000  0.5365720000000  0.5499530000000 1.0
C      1  0.4964580000000  0.5380750000000  0.4484430000000 1.0
C      1  0.5597320000000  0.4672120000000  0.5888560000000 1.0
C      1  0.4405920000000  0.4676410000000  0.4114000000000 1.0
C      1  0.5730560000000  0.5518010000000  0.4953190000000 1.0
C      1  0.4246990000000  0.5519510000000  0.5056400000000 1.0
C      1  0.5001780000000  0.4456970000000  0.4265340000000 1.0
C      1  0.4997000000000  0.4445080000000  0.5742080000000 1.0
C      1  0.4856490000000  0.5576990000000  0.4662830000000 1.0
C      1  0.5189900000000  0.5514920000000  0.5270500000000 1.0
C      1  0.4743410000000  0.4425290000000  0.4422500000000 1.0
C      1  0.5256500000000  0.4409290000000  0.5584890000000 1.0
C      1  0.4693600000000  0.4867670000000  0.5901300000000 1.0
C      1  0.5307110000000  0.4872480000000  0.4103540000000 1.0
C      1  0.4483550000000  0.4453310000000  0.4287680000000 1.0
C      1  0.5518740000000  0.4447640000000  0.5717220000000 1.0
C      1  0.4263160000000  0.5176270000000  0.5647700000000 1.0
C      1  0.5732550000000  0.5181420000000  0.4359590000000 1.0
C      1  0.4458940000000  0.4803290000000  0.4959990000000 1.0
C      1  0.5540480000000  0.4793560000000  0.5050210000000 1.0
C      1  0.5765000000000  0.5573080000000  0.5231150000000 1.0
C      1  0.4238230000000  0.5582480000000  0.4776900000000 1.0
C      1  0.4685920000000  0.5149660000000  0.5927640000000 1.0
C      1  0.5314010000000  0.5153570000000  0.4074310000000 1.0
C      1  0.4104820000000  0.4944710000000  0.4476490000000 1.0
C      1  0.5903330000000  0.4937920000000  0.5528090000000 1.0
C      1  0.5577270000000  0.4210730000000  0.5255030000000 1.0
C      1  0.4424790000000  0.4218810000000  0.4748270000000 1.0
C      1  0.4182600000000  0.4730140000000  0.4307040000000 1.0
C      1  0.5824840000000  0.4723370000000  0.5697450000000 1.0
C      1  0.5164000000000  0.5999650000000  0.5327210000000 1.0
C      1  0.4829720000000  0.6020110000000  0.4643530000000 1.0
C      1  0.4877570000000  0.4599280000000  0.4934990000000 1.0
C      1  0.5119160000000  0.4589540000000  0.5067490000000 1.0
C      1  0.5624830000000  0.4993570000000  0.4829080000000 1.0
C      1  0.4370690000000  0.4993160000000  0.5183620000000 1.0
C      1  0.5942240000000  0.4878600000000  0.5240750000000 1.0
C      1  0.4057230000000  0.4882440000000  0.4761330000000 1.0
C      1  0.5068720000000  0.5300400000000  0.4069030000000 1.0
C      1  0.4930960000000  0.5296700000000  0.5921860000000 1.0
C      1  0.4257060000000  0.4887380000000  0.5634880000000 1.0
C      1  0.5741200000000  0.4893220000000  0.4374320000000 1.0
C      1  0.5143590000000  0.4030970000000  0.5250920000000 1.0
C      1  0.4856600000000  0.4037610000000  0.4749100000000 1.0
C      1  0.5808990000000  0.5332670000000  0.4583990000000 1.0
C      1  0.4178650000000  0.5326780000000  0.5425690000000 1.0
C      1  0.4814730000000  0.4892740000000  0.4027580000000 1.0
C      1  0.5185020000000  0.4888840000000  0.5975510000000 1.0
C      1  0.5310420000000  0.5259940000000  0.5175990000000 1.0
C      1  0.4722530000000  0.5289450000000  0.4882240000000 1.0
C      1  0.4459590000000  0.4752980000000  0.5791970000000 1.0
C      1  0.5540080000000  0.4758630000000  0.4215300000000 1.0
C      1  0.4413120000000  0.4272620000000  0.5243940000000 1.0
C      1  0.5586370000000  0.4273180000000  0.4758210000000 1.0
C      1  0.5586380000000  0.5383620000000  0.5618000000000 1.0
C      1  0.4424500000000  0.5385460000000  0.4395810000000 1.0
C      1  0.5070470000000  0.5980310000000  0.4470390000000 1.0
C      1  0.4927200000000  0.5952750000000  0.5491160000000 1.0
C      1  0.5575110000000  0.5626710000000  0.5453050000000 1.0
C      1  0.4434290000000  0.5632640000000  0.4553580000000 1.0
C      1  0.4688950000000  0.5864650000000  0.5343740000000 1.0
C      1  0.5302260000000  0.5891350000000  0.4624700000000 1.0
C      1  0.4698300000000  0.4730950000000  0.5392650000000 1.0
C      1  0.5297670000000  0.4740360000000  0.4613800000000 1.0
C      1  0.5407460000000  0.5109670000000  0.5395070000000 1.0
C      1  0.4611890000000  0.5147740000000  0.4651320000000 1.0
C      1  0.5176880000000  0.5163900000000  0.5905260000000 1.0
C      1  0.4822960000000  0.5166420000000  0.4099210000000 1.0
C      1  0.5800770000000  0.4627070000000  0.5095140000000 1.0
C      1  0.4198840000000  0.4632100000000  0.4909000000000 1.0
C      1  0.4470060000000  0.4124400000000  0.5008200000000 1.0
C      1  0.5529980000000  0.4122290000000  0.4992690000000 1.0
C      1  0.4561750000000  0.4553720000000  0.5627760000000 1.0
C      1  0.5436180000000  0.4561540000000  0.4379910000000 1.0
C      1  0.4605850000000  0.5540450000000  0.5693710000000 1.0
C      1  0.5394870000000  0.5549960000000  0.4295200000000 1.0
C      1  0.4073790000000  0.5351460000000  0.4687950000000 1.0
C      1  0.5935660000000  0.5346690000000  0.5318450000000 1.0
C      1  0.4169660000000  0.5234680000000  0.4450320000000 1.0
C      1  0.5842350000000  0.5231460000000  0.5558360000000 1.0
C      1  0.4913780000000  0.5105880000000  0.5373100000000 1.0
C      1  0.5098070000000  0.5129370000000  0.4628530000000 1.0
C      1  0.4583030000000  0.4872230000000  0.4699700000000 1.0
C      1  0.5422280000000  0.4841620000000  0.5321330000000 1.0
C      1  0.4483670000000  0.5302890000000  0.5788790000000 1.0
C      1  0.5514830000000  0.5307420000000  0.4212590000000 1.0
C      1  0.4661300000000  0.4197950000000  0.5413040000000 1.0
C      1  0.5338660000000  0.4201450000000  0.4588500000000 1.0
C      1  0.5305470000000  0.5755450000000  0.5441500000000 1.0
C      1  0.4693520000000  0.5783160000000  0.4518620000000 1.0
C      1  0.5775210000000  0.4784670000000  0.4644580000000 1.0
C      1  0.4222060000000  0.4780870000000  0.5364210000000 1.0
C      1  0.4289230000000  0.5577990000000  0.5337450000000 1.0
C      1  0.5689900000000  0.5581020000000  0.4671640000000 1.0
C      1  0.4746180000000  0.4343680000000  0.5651320000000 1.0
C      1  0.5251980000000  0.4352210000000  0.4354520000000 1.0
C      1  0.5036210000000  0.4751120000000  0.4187720000000 1.0
C      1  0.4963660000000  0.4743460000000  0.5816500000000 1.0
C      1  0.5124820000000  0.6058890000000  0.5058920000000 1.0
C      1  0.4865210000000  0.6037310000000  0.4919830000000 1.0
C      1  0.4971270000000  0.4816320000000  0.5497720000000 1.0
C      1  0.5028500000000  0.4831830000000  0.4506040000000 1.0
C      1  0.4703280000000  0.5263870000000  0.4361800000000 1.0
C      1  0.5304210000000  0.5258580000000  0.5649900000000 1.0
C      1  0.4900710000000  0.5522810000000  0.5727200000000 1.0
C      1  0.5099740000000  0.5533320000000  0.4252820000000 1.0
C      1  0.5240640000000  0.5855950000000  0.4898120000000 1.0
C      1  0.4713050000000  0.5839880000000  0.5064740000000 1.0
C      1  0.4180020000000  0.5224160000000  0.5133710000000 1.0
C      1  0.5808590000000  0.5226720000000  0.4875810000000 1.0
C      1  0.4577420000000  0.4791480000000  0.3939770000000 1.0
C      1  0.5424720000000  0.4789850000000  0.6061640000000 1.0
C      1  0.5768730000000  0.4531750000000  0.4788520000000 1.0
C      1  0.4231000000000  0.4530020000000  0.5216550000000 1.0
C      1  0.4805010000000  0.4688430000000  0.4643430000000 1.0
C      1  0.5191300000000  0.4666720000000  0.5361910000000 1.0
C      1  0.5113570000000  0.5596720000000  0.5006300000000 1.0
C      1  0.4823410000000  0.5561620000000  0.4943930000000 1.0
C      1  0.4235410000000  0.4423500000000  0.4710170000000 1.0
C      1  0.5766370000000  0.4415860000000  0.5294120000000 1.0
C      1  0.4034450000000  0.5142090000000  0.4885100000000 1.0
C      1  0.5962950000000  0.5139320000000  0.5117990000000 1.0
C      1  0.4938640000000  0.5784310000000  0.4306710000000 1.0
C      1  0.5065290000000  0.5761660000000  0.5656020000000 1.0
C      1  0.5327820000000  0.4650890000000  0.4898200000000 1.0
C      1  0.4669230000000  0.4652170000000  0.5106330000000 1.0
C      1  0.4729520000000  0.4000880000000  0.5003530000000 1.0
C      1  0.5270490000000  0.3998350000000  0.4995780000000 1.0
C      1  0.5758900000000  0.4476110000000  0.5562330000000 1.0
C      1  0.4244670000000  0.4482940000000  0.4442490000000 1.0
C      1  0.4507530000000  0.5693860000000  0.5476820000000 1.0
C      1  0.5484930000000  0.5704510000000  0.4516850000000 1.0
C      1  0.5331600000000  0.4179230000000  0.5409170000000 1.0
C      1  0.4669490000000  0.4191500000000  0.4594830000000 1.0
C      1  0.4852060000000  0.4039340000000  0.5254560000000 1.0
C      1  0.5148030000000  0.4041800000000  0.4745430000000 1.0
C      1  0.5077340000000  0.5105020000000  0.5124070000000 1.0
C      1  0.4961080000000  0.5137840000000  0.4882630000000 1.0
END
