TITL C-109997-9470-2 0.0987471903710013 125000 -523.844482370613 0 0 75 (C3) n - 1
REM
REM in /rds/project/t2_vol4/rds-t2-cs072/BORA/CARBON/from-Arr/AIRSS/Generating-Clusters/GAP-ML-2020/Higher-Symm/SD-CG/HFTN-CG
REM
REM
REM
REM
REM
REM ./C.cell (b20cbc046b6831c77cfcea5457e17084)
REM AIRSS Version 0.9.1 bugfix July 2018 build 013d7b7c2542+ Fri, 06 Jul 2018 19:26:36 +0100
REM compiler GCC version 9.3.0
REM options -cpp -mtune=generic -march=x86-64 -g -O0
REM seed -1404305254 1410781730 960905565 106179136 -371552134 345850332 -71336293 1186427460 1413862286 1072601217 -1767219638 1903989574 -2081323900 -1002886368 912010190 1693280280 2055453716 -825431878 674720058 1603836401 -529160407 785533437 -1107585715 318121794 549085286 -1350105338 952217783 -262835377 1001863577 -930952584 2031936283 1485309672 -860256638
REM
CELL 1.54180   50.00000   50.00000   50.00000   90.00000   90.00000   90.00000
LATT -1
SFAC C  
C      1  0.4749810000000  0.5668310000000  0.4967530000000 1.0
C      1  0.5704170000000  0.4884220000000  0.4968030000000 1.0
C      1  0.4548200000000  0.4450060000000  0.4938930000000 1.0
C      1  0.5156240000000  0.4787000000000  0.4980180000000 1.0
C      1  0.4737600000000  0.4972100000000  0.4976690000000 1.0
C      1  0.5107110000000  0.5242020000000  0.4988690000000 1.0
C      1  0.4381500000000  0.4675500000000  0.4819330000000 1.0
C      1  0.5029370000000  0.5705460000000  0.4851840000000 1.0
C      1  0.5597660000000  0.4629120000000  0.4839580000000 1.0
C      1  0.4528140000000  0.4496420000000  0.5226190000000 1.0
C      1  0.4797610000000  0.5649320000000  0.5254630000000 1.0
C      1  0.5661460000000  0.4839160000000  0.5253020000000 1.0
C      1  0.5434610000000  0.4555360000000  0.4608430000000 1.0
C      1  0.4400980000000  0.4864020000000  0.4596760000000 1.0
C      1  0.5184800000000  0.5604690000000  0.4625680000000 1.0
C      1  0.5069540000000  0.4641770000000  0.4270340000000 1.0
C      1  0.4661010000000  0.5152270000000  0.4273730000000 1.0
C      1  0.5307280000000  0.5250630000000  0.4287020000000 1.0
C      1  0.4250320000000  0.5111390000000  0.4959360000000 1.0
C      1  0.5471330000000  0.5594840000000  0.4990610000000 1.0
C      1  0.5279910000000  0.4295610000000  0.4960510000000 1.0
C      1  0.5329260000000  0.4533620000000  0.5484170000000 1.0
C      1  0.4427500000000  0.4925770000000  0.5476520000000 1.0
C      1  0.5217730000000  0.5510480000000  0.5502340000000 1.0
C      1  0.4268300000000  0.4828510000000  0.5032700000000 1.0
C      1  0.5216690000000  0.5717180000000  0.5067540000000 1.0
C      1  0.5512450000000  0.4451280000000  0.5046630000000 1.0
C      1  0.5191340000000  0.4299870000000  0.5486200000000 1.0
C      1  0.4293890000000  0.5161730000000  0.5488300000000 1.0
C      1  0.5488770000000  0.5507700000000  0.5516270000000 1.0
C      1  0.4972190000000  0.4333620000000  0.4620760000000 1.0
C      1  0.4439800000000  0.5374260000000  0.4632900000000 1.0
C      1  0.5607100000000  0.5314660000000  0.4652030000000 1.0
C      1  0.5406980000000  0.4986750000000  0.4297800000000 1.0
C      1  0.4791060000000  0.4686790000000  0.4280880000000 1.0
C      1  0.4839030000000  0.5370230000000  0.4295800000000 1.0
C      1  0.5066240000000  0.5167200000000  0.4704680000000 1.0
C      1  0.5114200000000  0.4872770000000  0.4699450000000 1.0
C      1  0.4835240000000  0.4978550000000  0.4696760000000 1.0
C      1  0.4832590000000  0.5215890000000  0.5427260000000 1.0
C      1  0.5267090000000  0.5017390000000  0.5430750000000 1.0
C      1  0.4878060000000  0.4740440000000  0.5418270000000 1.0
C      1  0.4808920000000  0.4315800000000  0.4863520000000 1.0
C      1  0.4503900000000  0.5513250000000  0.4882860000000 1.0
C      1  0.5693400000000  0.5178290000000  0.4896700000000 1.0
C      1  0.4571670000000  0.5387910000000  0.4383280000000 1.0
C      1  0.5555130000000  0.5205220000000  0.4396670000000 1.0
C      1  0.4905480000000  0.4444970000000  0.4369680000000 1.0
C      1  0.5253330000000  0.4350430000000  0.4688430000000 1.0
C      1  0.4313350000000  0.5119520000000  0.4687870000000 1.0
C      1  0.5449140000000  0.5548730000000  0.4716520000000 1.0
C      1  0.5541640000000  0.4584320000000  0.5295880000000 1.0
C      1  0.4366890000000  0.4725360000000  0.5278300000000 1.0
C      1  0.5076050000000  0.5672100000000  0.5310160000000 1.0
C      1  0.4961130000000  0.4286280000000  0.5339440000000 1.0
C      1  0.4398340000000  0.5374430000000  0.5352030000000 1.0
C      1  0.5621980000000  0.5317380000000  0.5372200000000 1.0
C      1  0.4343680000000  0.5364470000000  0.5072790000000 1.0
C      1  0.5642980000000  0.5382490000000  0.5095820000000 1.0
C      1  0.5009340000000  0.4248310000000  0.5061410000000 1.0
C      1  0.4713940000000  0.4953390000000  0.5545680000000 1.0
C      1  0.5097990000000  0.5245690000000  0.5558390000000 1.0
C      1  0.5159240000000  0.4766870000000  0.5549600000000 1.0
C      1  0.5086560000000  0.4859060000000  0.5834830000000 1.0
C      1  0.4827730000000  0.4957120000000  0.5832330000000 1.0
C      1  0.5041990000000  0.5132200000000  0.5839680000000 1.0
C      1  0.5290330000000  0.4753590000000  0.4431330000000 1.0
C      1  0.4646240000000  0.4898000000000  0.4423080000000 1.0
C      1  0.5093160000000  0.5383520000000  0.4440870000000 1.0
C      1  0.5221600000000  0.5024850000000  0.5124900000000 1.0
C      1  0.4909780000000  0.4790130000000  0.5114630000000 1.0
C      1  0.4862310000000  0.5177590000000  0.5121780000000 1.0
C      1  0.4662350000000  0.5457770000000  0.5411910000000 1.0
C      1  0.5561790000000  0.5044590000000  0.5419090000000 1.0
C      1  0.4754510000000  0.4472420000000  0.5393230000000 1.0
END
