TITL C-102461-7465-6 0.033988966223604 125000 -396.844741406696 0 0 58 (C1) n - 1
REM
REM in /rds/project/t2_vol4/rds-t2-cs072/BORA/CARBON/from-Arr/AIRSS/Generating-Clusters/GAP-ML-2020/Higher-Symm/SD-CG/HFTN-CG
REM
REM
REM
REM
REM
REM ./C.cell (b20cbc046b6831c77cfcea5457e17084)
REM AIRSS Version 0.9.1 bugfix July 2018 build 013d7b7c2542+ Fri, 06 Jul 2018 19:26:36 +0100
REM compiler GCC version 9.3.0
REM options -cpp -mtune=generic -march=x86-64 -g -O0
REM seed 1211296042 1511727704 -2036726731 -968253734 -1744436608 854695161 2011733162 -110577744 1348493634 -282407647 737720299 -1679438293 296011021 -1651080766 -12780259 -300272344 -334552547 161313123 253918270 -777928523 1420863615 1698183258 -1905393915 1979351235 -1258089388 191576251 -373529764 -1756011087 -350119450 2034103822 2031643094 -1676685164 -460749326
REM
CELL 1.54180   50.00000   50.00000   50.00000   90.00000   90.00000   90.00000
LATT -1
SFAC C  
C      1  0.5477500000000  0.4582730000000  0.5189990000000 1.0
C      1  0.5072040000000  0.4574770000000  0.4520260000000 1.0
C      1  0.4782140000000  0.4932410000000  0.4957700000000 1.0
C      1  0.5033390000000  0.4449060000000  0.4774250000000 1.0
C      1  0.5301050000000  0.4976090000000  0.4361530000000 1.0
C      1  0.4272780000000  0.4900560000000  0.5468800000000 1.0
C      1  0.5662860000000  0.4794770000000  0.5119390000000 1.0
C      1  0.4748190000000  0.4447770000000  0.5145540000000 1.0
C      1  0.5672600000000  0.4990400000000  0.5337910000000 1.0
C      1  0.4798940000000  0.5617430000000  0.5405730000000 1.0
C      1  0.5074890000000  0.5229160000000  0.4696610000000 1.0
C      1  0.5197050000000  0.4546510000000  0.5025000000000 1.0
C      1  0.5395720000000  0.4635830000000  0.5451760000000 1.0
C      1  0.5289720000000  0.5059290000000  0.5097540000000 1.0
C      1  0.4755370000000  0.4944600000000  0.5494960000000 1.0
C      1  0.5225460000000  0.4836860000000  0.4922680000000 1.0
C      1  0.5113810000000  0.4601560000000  0.5485200000000 1.0
C      1  0.4847320000000  0.4723890000000  0.4399130000000 1.0
C      1  0.5586110000000  0.5134040000000  0.4757790000000 1.0
C      1  0.4835990000000  0.5045840000000  0.5201820000000 1.0
C      1  0.4512300000000  0.4779170000000  0.5438140000000 1.0
C      1  0.4949380000000  0.4986380000000  0.4290470000000 1.0
C      1  0.4292140000000  0.4954770000000  0.4996730000000 1.0
C      1  0.4481600000000  0.5301690000000  0.5355070000000 1.0
C      1  0.5148420000000  0.5297530000000  0.5489080000000 1.0
C      1  0.5655120000000  0.5269490000000  0.5250880000000 1.0
C      1  0.5469090000000  0.4902480000000  0.5532650000000 1.0
C      1  0.5327830000000  0.4724750000000  0.4485660000000 1.0
C      1  0.4887300000000  0.5412590000000  0.5566770000000 1.0
C      1  0.5271970000000  0.5710800000000  0.4422940000000 1.0
C      1  0.4589240000000  0.4737230000000  0.4526100000000 1.0
C      1  0.4762980000000  0.4425350000000  0.4858970000000 1.0
C      1  0.4536260000000  0.5350820000000  0.4760190000000 1.0
C      1  0.4381630000000  0.4672800000000  0.4976950000000 1.0
C      1  0.5369660000000  0.5492440000000  0.4487260000000 1.0
C      1  0.5677700000000  0.4874170000000  0.4838290000000 1.0
C      1  0.5452360000000  0.4770620000000  0.4725830000000 1.0
C      1  0.5510170000000  0.5237930000000  0.5007110000000 1.0
C      1  0.4715350000000  0.5468850000000  0.4942700000000 1.0
C      1  0.5167790000000  0.4987630000000  0.4125210000000 1.0
C      1  0.5008330000000  0.4487010000000  0.5244770000000 1.0
C      1  0.4516510000000  0.4590300000000  0.5215940000000 1.0
C      1  0.4999640000000  0.4949840000000  0.4785740000000 1.0
C      1  0.4472360000000  0.4996200000000  0.4539530000000 1.0
C      1  0.4892460000000  0.5226780000000  0.4447750000000 1.0
C      1  0.5221130000000  0.5030200000000  0.5604980000000 1.0
C      1  0.5008640000000  0.4842380000000  0.5597030000000 1.0
C      1  0.4997040000000  0.5384460000000  0.4937050000000 1.0
C      1  0.4323500000000  0.5074470000000  0.5261790000000 1.0
C      1  0.4677950000000  0.5220730000000  0.5564490000000 1.0
C      1  0.5070840000000  0.5216610000000  0.5185790000000 1.0
C      1  0.4625150000000  0.5515310000000  0.5214980000000 1.0
C      1  0.5381760000000  0.5447640000000  0.5478160000000 1.0
C      1  0.4537670000000  0.4570550000000  0.4752390000000 1.0
C      1  0.4628390000000  0.5242310000000  0.4509380000000 1.0
C      1  0.5624750000000  0.5499190000000  0.5419760000000 1.0
C      1  0.4355240000000  0.5110320000000  0.4779360000000 1.0
C      1  0.5357460000000  0.5214640000000  0.4570530000000 1.0
END
