TITL C-109986-9742-11 0.0950230030067983 125000 -931.511008469347 0 0 129 (Cs) n - 1
REM
REM in /rds/project/t2_vol4/rds-t2-cs072/BORA/CARBON/from-Arr/AIRSS/Generating-Clusters/GAP-ML-2020/Higher-Symm/SD-CG/HFTN-CG
REM
REM
REM
REM
REM
REM ./C.cell (b20cbc046b6831c77cfcea5457e17084)
REM AIRSS Version 0.9.1 bugfix July 2018 build 013d7b7c2542+ Fri, 06 Jul 2018 19:26:36 +0100
REM compiler GCC version 9.3.0
REM options -cpp -mtune=generic -march=x86-64 -g -O0
REM seed -858530155 -486920416 2129857614 424822875 -1642706157 -1228792729 503762374 -1573898567 -1877242954 -1071215499 503155455 -1888052041 -2050065754 1808900515 -1400109946 1109687140 -1972276064 -128091142 -534383261 1601772642 -2717146 259334590 1393881673 52973259 -2076664158 -1885021204 330496303 183269097 -1906930227 938034210 276554650 1421108455 700562946
REM
CELL 1.54180   50.00000   50.00000   50.00000   90.00000   90.00000   90.00000
LATT -1
SFAC C  
C      1  0.5189900000000  0.4469270000000  0.5150970000000 1.0
C      1  0.4821710000000  0.5518580000000  0.5151180000000 1.0
C      1  0.5189870000000  0.4469290000000  0.4850760000000 1.0
C      1  0.4821680000000  0.5518590000000  0.4850760000000 1.0
C      1  0.4569560000000  0.5346830000000  0.4847110000000 1.0
C      1  0.5444450000000  0.4641850000000  0.4847960000000 1.0
C      1  0.4569590000000  0.5346810000000  0.5154870000000 1.0
C      1  0.5444490000000  0.4641840000000  0.5153740000000 1.0
C      1  0.5754480000000  0.4990710000000  0.5681940000000 1.0
C      1  0.4252050000000  0.5012150000000  0.5682860000000 1.0
C      1  0.5754330000000  0.4990790000000  0.4319730000000 1.0
C      1  0.4251890000000  0.5012230000000  0.4319160000000 1.0
C      1  0.4895600000000  0.5262030000000  0.4088800000000 1.0
C      1  0.5109450000000  0.4745600000000  0.4102310000000 1.0
C      1  0.4895810000000  0.5261920000000  0.5913100000000 1.0
C      1  0.5109660000000  0.4745490000000  0.5899470000000 1.0
C      1  0.4829410000000  0.4760960000000  0.5878940000000 1.0
C      1  0.5175620000000  0.5246290000000  0.5883180000000 1.0
C      1  0.4829210000000  0.4761070000000  0.4122910000000 1.0
C      1  0.5175420000000  0.5246400000000  0.4118650000000 1.0
C      1  0.5304450000000  0.5375720000000  0.4844720000000 1.0
C      1  0.4698200000000  0.4610100000000  0.4845570000000 1.0
C      1  0.5304480000000  0.5375700000000  0.5157090000000 1.0
C      1  0.4698240000000  0.4610080000000  0.5156290000000 1.0
C      1  0.4539470000000  0.4870730000000  0.4849780000000 1.0
C      1  0.5481230000000  0.5128700000000  0.4848770000000 1.0
C      1  0.4539500000000  0.4870710000000  0.5152140000000 1.0
C      1  0.5481270000000  0.5128680000000  0.5152980000000 1.0
C      1  0.4473250000000  0.4562250000000  0.5566130000000 1.0
C      1  0.5529760000000  0.5439710000000  0.5566330000000 1.0
C      1  0.4473120000000  0.4562320000000  0.4435780000000 1.0
C      1  0.5529630000000  0.5439780000000  0.4435450000000 1.0
C      1  0.5911590000000  0.4751380000000  0.5268850000000 1.0
C      1  0.4097860000000  0.5248590000000  0.5269110000000 1.0
C      1  0.5911530000000  0.4751410000000  0.4732750000000 1.0
C      1  0.4097800000000  0.5248630000000  0.4732970000000 1.0
C      1  0.5357730000000  0.4894170000000  0.5266520000000 1.0
C      1  0.4656210000000  0.5099770000000  0.5277230000000 1.0
C      1  0.5357670000000  0.4894200000000  0.4735230000000 1.0
C      1  0.4656150000000  0.5099800000000  0.4724700000000 1.0
C      1  0.4921980000000  0.5112000000000  0.5356640000000 1.0
C      1  0.5076340000000  0.4885540000000  0.5290160000000 1.0
C      1  0.4921900000000  0.5112040000000  0.4645230000000 1.0
C      1  0.5076280000000  0.4885580000000  0.4711650000000 1.0
C      1  0.4809920000000  0.5818690000000  0.5162390000000 1.0
C      1  0.5190850000000  0.4170980000000  0.5160520000000 1.0
C      1  0.4809880000000  0.5818710000000  0.4839600000000 1.0
C      1  0.5190820000000  0.4171000000000  0.4841170000000 1.0
C      1  0.4900080000000  0.4395790000000  0.5536440000000 1.0
C      1  0.5105580000000  0.5607930000000  0.5539300000000 1.0
C      1  0.4899960000000  0.4395850000000  0.4465350000000 1.0
C      1  0.5105450000000  0.5607990000000  0.4462590000000 1.0
C      1  0.4150280000000  0.5244160000000  0.4461460000000 1.0
C      1  0.5856550000000  0.4757740000000  0.4461990000000 1.0
C      1  0.4150410000000  0.5244090000000  0.5540610000000 1.0
C      1  0.5856670000000  0.4757680000000  0.5539630000000 1.0
C      1  0.5780060000000  0.5225640000000  0.5257110000000 1.0
C      1  0.4212520000000  0.4770280000000  0.5260480000000 1.0
C      1  0.5780000000000  0.5225670000000  0.4744570000000 1.0
C      1  0.4212460000000  0.4770310000000  0.4741510000000 1.0
C      1  0.5282150000000  0.4977900000000  0.5911770000000 1.0
C      1  0.4721700000000  0.5027420000000  0.5923320000000 1.0
C      1  0.5281940000000  0.4978010000000  0.4090000000000 1.0
C      1  0.4721490000000  0.5027540000000  0.4078590000000 1.0
C      1  0.4831000000000  0.5671090000000  0.4384310000000 1.0
C      1  0.5174040000000  0.4332430000000  0.4388190000000 1.0
C      1  0.4831140000000  0.5671010000000  0.5617650000000 1.0
C      1  0.5174180000000  0.4332360000000  0.5613530000000 1.0
C      1  0.4264560000000  0.4500650000000  0.5140400000000 1.0
C      1  0.5734910000000  0.5500560000000  0.5139740000000 1.0
C      1  0.4264530000000  0.4500670000000  0.4861540000000 1.0
C      1  0.5734880000000  0.5500580000000  0.4862000000000 1.0
C      1  0.4270270000000  0.4761050000000  0.4454400000000 1.0
C      1  0.5732360000000  0.5241090000000  0.4454650000000 1.0
C      1  0.4270390000000  0.4760980000000  0.5547580000000 1.0
C      1  0.5732480000000  0.5241020000000  0.5547050000000 1.0
C      1  0.5265650000000  0.5767770000000  0.5340580000000 1.0
C      1  0.4735300000000  0.4233260000000  0.5342290000000 1.0
C      1  0.5265580000000  0.5767810000000  0.4661290000000 1.0
C      1  0.4735220000000  0.4233300000000  0.4659520000000 1.0
C      1  0.4475420000000  0.5405050000000  0.4194090000000 1.0
C      1  0.5530890000000  0.4597800000000  0.4194850000000 1.0
C      1  0.4475600000000  0.5404950000000  0.5807910000000 1.0
C      1  0.5531080000000  0.4597700000000  0.5806810000000 1.0
C      1  0.5627980000000  0.4362510000000  0.5385980000000 1.0
C      1  0.4375340000000  0.5643460000000  0.5390230000000 1.0
C      1  0.5627890000000  0.4362560000000  0.4615630000000 1.0
C      1  0.4375250000000  0.5643510000000  0.4611830000000 1.0
C      1  0.4461280000000  0.5122160000000  0.5850480000000 1.0
C      1  0.5543770000000  0.4881050000000  0.5844960000000 1.0
C      1  0.4461090000000  0.5122270000000  0.4151490000000 1.0
C      1  0.5543580000000  0.4881160000000  0.4156740000000 1.0
C      1  0.5260430000000  0.4516960000000  0.5808010000000 1.0
C      1  0.4745210000000  0.5488240000000  0.5815000000000 1.0
C      1  0.5260240000000  0.4517060000000  0.4193710000000 1.0
C      1  0.4745020000000  0.5488340000000  0.4186960000000 1.0
C      1  0.5098860000000  0.5887570000000  0.5146450000000 1.0
C      1  0.4900750000000  0.4113960000000  0.5145970000000 1.0
C      1  0.5098830000000  0.5887590000000  0.4855480000000 1.0
C      1  0.4900720000000  0.4113980000000  0.4855780000000 1.0
C      1  0.4276790000000  0.5473220000000  0.5157290000000 1.0
C      1  0.5735030000000  0.4527500000000  0.5156410000000 1.0
C      1  0.4276750000000  0.5473240000000  0.4844770000000 1.0
C      1  0.5735000000000  0.4527520000000  0.4845200000000 1.0
C      1  0.5041190000000  0.5375840000000  0.4703750000000 1.0
C      1  0.4964250000000  0.4611540000000  0.4711810000000 1.0
C      1  0.5041260000000  0.5375810000000  0.5298120000000 1.0
C      1  0.4964310000000  0.4611500000000  0.5289990000000 1.0
C      1  0.4296030000000  0.5485650000000  0.4393020000000 1.0
C      1  0.5710260000000  0.4515770000000  0.4393840000000 1.0
C      1  0.4296160000000  0.5485570000000  0.5609040000000 1.0
C      1  0.5710400000000  0.4515690000000  0.5607780000000 1.0
C      1  0.4061530000000  0.4995310000000  0.4861290000000 1.0
C      1  0.5944510000000  0.5005330000000  0.4861410000000 1.0
C      1  0.4061560000000  0.4995290000000  0.5140760000000 1.0
C      1  0.5944540000000  0.5005310000000  0.5140210000000 1.0
C      1  0.5491680000000  0.5575630000000  0.4698030000000 1.0
C      1  0.4506960000000  0.4421970000000  0.4695310000000 1.0
C      1  0.5491750000000  0.5575600000000  0.5303770000000 1.0
C      1  0.4507030000000  0.4421940000000  0.5306570000000 1.0
C      1  0.5288410000000  0.5452240000000  0.4289780000000 1.0
C      1  0.4717960000000  0.4556130000000  0.4296300000000 1.0
C      1  0.5288570000000  0.5452150000000  0.5712040000000 1.0
C      1  0.4718120000000  0.4556040000000  0.5705550000000 1.0
C      1  0.5352070000000  0.4235460000000  0.4599310000000 1.0
C      1  0.4650170000000  0.5766220000000  0.4594690000000 1.0
C      1  0.5352170000000  0.4235420000000  0.5402360000000 1.0
C      1  0.4650260000000  0.5766170000000  0.5407320000000 1.0
C      1  0.5075370000000  0.4926650000000  0.5000910000000 1.0
END
