TITL C-103929-5003-4 695.845046980629 125000 -1339.83465902883 0 0 192 (C1) n - 1
REM
REM in /rds/project/t2_vol4/rds-t2-cs072/BORA/CARBON/from-Arr/AIRSS/Generating-Clusters/GAP-ML-2020/Higher-Symm/SD-CG/HFTN-CG/C160-200
REM
REM
REM
REM
REM
REM ./C.cell (6b4489405718ea1b717e0baf1da4c2d9)
REM AIRSS Version 0.9.1 bugfix July 2018 build 013d7b7c2542+ Fri, 06 Jul 2018 19:26:36 +0100
REM compiler GCC version 9.3.0
REM options -cpp -mtune=generic -march=x86-64 -g -O0
REM seed -1212626313 688797365 -1615665729 266511584 1172106614 -808067556 -731882004 -693458274 -69061512 -107364587 1232014109 -2130463596 1690431085 896151773 -977489410 -317969610 -204706772 -19463102 1762051747 502072129 1392221874 1843858469 -625544251 -1641477838 -1185158221 421930517 -1611394883 -308517690 -1536818370 169269562 -1375737970 865382929 -1868489169
REM
CELL 1.54180   50.00000   50.00000   50.00000   90.00000   90.00000   90.00000
LATT -1
SFAC C  
C      1  0.5008180000000  0.4407330000000  0.5798160000000 1.0
C      1  0.4276570000000  0.4382400000000  0.5247290000000 1.0
C      1  0.4544800000000  0.4486100000000  0.4315870000000 1.0
C      1  0.5504310000000  0.4459700000000  0.4288940000000 1.0
C      1  0.5851400000000  0.4450850000000  0.5268520000000 1.0
C      1  0.4980490000000  0.5543420000000  0.5811610000000 1.0
C      1  0.4079460000000  0.5668900000000  0.5284490000000 1.0
C      1  0.4541370000000  0.5599280000000  0.4358450000000 1.0
C      1  0.5461320000000  0.5606890000000  0.4352980000000 1.0
C      1  0.5699240000000  0.5559450000000  0.5258790000000 1.0
C      1  0.5045150000000  0.5448960000000  0.3971240000000 1.0
C      1  0.5990020000000  0.5419320000000  0.4710840000000 1.0
C      1  0.5589590000000  0.5436610000000  0.5843890000000 1.0
C      1  0.4328860000000  0.5444390000000  0.5805270000000 1.0
C      1  0.4018730000000  0.5475300000000  0.4604830000000 1.0
C      1  0.5031900000000  0.4585630000000  0.3924490000000 1.0
C      1  0.6046410000000  0.4579650000000  0.4698170000000 1.0
C      1  0.5587740000000  0.4563560000000  0.5880590000000 1.0
C      1  0.4405650000000  0.4507800000000  0.5837300000000 1.0
C      1  0.4051260000000  0.4638630000000  0.4696780000000 1.0
C      1  0.4272330000000  0.4442660000000  0.4415140000000 1.0
C      1  0.5359010000000  0.4394610000000  0.4045860000000 1.0
C      1  0.6025740000000  0.4394070000000  0.5046840000000 1.0
C      1  0.5247240000000  0.4392010000000  0.5945450000000 1.0
C      1  0.4224970000000  0.4331780000000  0.5520900000000 1.0
C      1  0.4262630000000  0.5639010000000  0.4360940000000 1.0
C      1  0.5370230000000  0.5635200000000  0.4088760000000 1.0
C      1  0.5917810000000  0.5575120000000  0.5080320000000 1.0
C      1  0.5240200000000  0.5612560000000  0.5925400000000 1.0
C      1  0.4116570000000  0.5691970000000  0.5564850000000 1.0
C      1  0.4276130000000  0.5093970000000  0.5500730000000 1.0
C      1  0.4453740000000  0.5103890000000  0.4387360000000 1.0
C      1  0.5393440000000  0.5092970000000  0.4319200000000 1.0
C      1  0.5602850000000  0.5107630000000  0.5023440000000 1.0
C      1  0.5185590000000  0.5099660000000  0.5564140000000 1.0
C      1  0.4169920000000  0.4804310000000  0.5482770000000 1.0
C      1  0.4509870000000  0.4884720000000  0.4559560000000 1.0
C      1  0.5193440000000  0.4882000000000  0.4432540000000 1.0
C      1  0.5788000000000  0.4919110000000  0.5121840000000 1.0
C      1  0.5149380000000  0.4889230000000  0.5779630000000 1.0
C      1  0.4408050000000  0.4210050000000  0.4814620000000 1.0
C      1  0.4994020000000  0.4193770000000  0.4297760000000 1.0
C      1  0.5679320000000  0.4192590000000  0.4738160000000 1.0
C      1  0.5455830000000  0.4171380000000  0.5521190000000 1.0
C      1  0.4673100000000  0.4143250000000  0.5556300000000 1.0
C      1  0.4338770000000  0.5859500000000  0.4823870000000 1.0
C      1  0.4978060000000  0.5837820000000  0.4350240000000 1.0
C      1  0.5605010000000  0.5815550000000  0.4781440000000 1.0
C      1  0.5403110000000  0.5851170000000  0.5527240000000 1.0
C      1  0.4601380000000  0.5838580000000  0.5572230000000 1.0
C      1  0.3981660000000  0.5245010000000  0.5506900000000 1.0
C      1  0.4205940000000  0.5153410000000  0.4209970000000 1.0
C      1  0.5490840000000  0.5137910000000  0.4025340000000 1.0
C      1  0.6171710000000  0.5151940000000  0.5164560000000 1.0
C      1  0.5168220000000  0.5192400000000  0.6090710000000 1.0
C      1  0.3898240000000  0.4949410000000  0.5452400000000 1.0
C      1  0.4177720000000  0.4840820000000  0.4203540000000 1.0
C      1  0.5505310000000  0.4828390000000  0.3968260000000 1.0
C      1  0.6092830000000  0.4856250000000  0.5142980000000 1.0
C      1  0.5179830000000  0.4879220000000  0.6083250000000 1.0
C      1  0.3835570000000  0.4974150000000  0.5057970000000 1.0
C      1  0.4608060000000  0.4870720000000  0.3956880000000 1.0
C      1  0.5865620000000  0.4839700000000  0.4301600000000 1.0
C      1  0.5944800000000  0.4832350000000  0.5614270000000 1.0
C      1  0.4699210000000  0.4870010000000  0.6065010000000 1.0
C      1  0.3866470000000  0.5259300000000  0.5036650000000 1.0
C      1  0.4606070000000  0.5160060000000  0.3937140000000 1.0
C      1  0.5901720000000  0.5124150000000  0.4268030000000 1.0
C      1  0.5950290000000  0.5121990000000  0.5610630000000 1.0
C      1  0.4678810000000  0.5147080000000  0.5993350000000 1.0
C      1  0.5290140000000  0.4040470000000  0.4995010000000 1.0
C      1  0.5116620000000  0.4185230000000  0.5201480000000 1.0
C      1  0.4835850000000  0.4188690000000  0.5090150000000 1.0
C      1  0.4851580000000  0.4044230000000  0.4821320000000 1.0
C      1  0.5130680000000  0.4135150000000  0.4739860000000 1.0
C      1  0.5219710000000  0.5739320000000  0.5053400000000 1.0
C      1  0.5019140000000  0.5764090000000  0.5276790000000 1.0
C      1  0.4769000000000  0.5888910000000  0.5152570000000 1.0
C      1  0.4773820000000  0.5754490000000  0.4885810000000 1.0
C      1  0.5063940000000  0.5735370000000  0.4811110000000 1.0
C      1  0.5104860000000  0.6179610000000  0.5243680000000 1.0
C      1  0.4852980000000  0.6166270000000  0.5105140000000 1.0
C      1  0.4832720000000  0.6175310000000  0.4820810000000 1.0
C      1  0.5109040000000  0.6141840000000  0.4762770000000 1.0
C      1  0.5271740000000  0.6140850000000  0.5015440000000 1.0
C      1  0.5064660000000  0.3801390000000  0.5347870000000 1.0
C      1  0.4786020000000  0.3799040000000  0.5237660000000 1.0
C      1  0.4850910000000  0.3760580000000  0.4950060000000 1.0
C      1  0.5057040000000  0.3581650000000  0.4945530000000 1.0
C      1  0.5206720000000  0.3759000000000  0.5090260000000 1.0
C      1  0.5368840000000  0.5376000000000  0.6029150000000 1.0
C      1  0.4053260000000  0.5441960000000  0.5703670000000 1.0
C      1  0.4095620000000  0.5396420000000  0.4341800000000 1.0
C      1  0.5325990000000  0.5379110000000  0.3945170000000 1.0
C      1  0.6091140000000  0.5358050000000  0.4984840000000 1.0
C      1  0.5361370000000  0.4639620000000  0.6045770000000 1.0
C      1  0.4181460000000  0.4575530000000  0.5669430000000 1.0
C      1  0.4090600000000  0.4672400000000  0.4406500000000 1.0
C      1  0.5316090000000  0.4639700000000  0.3895280000000 1.0
C      1  0.6150320000000  0.4642510000000  0.4957390000000 1.0
C      1  0.4556610000000  0.5289250000000  0.4787140000000 1.0
C      1  0.5090480000000  0.5284430000000  0.4580430000000 1.0
C      1  0.5464620000000  0.5020450000000  0.4779660000000 1.0
C      1  0.5103520000000  0.4944710000000  0.5313470000000 1.0
C      1  0.4660950000000  0.5150350000000  0.5272780000000 1.0
C      1  0.4573680000000  0.4982120000000  0.4813950000000 1.0
C      1  0.5147940000000  0.5018960000000  0.4705350000000 1.0
C      1  0.5517100000000  0.4633380000000  0.4949240000000 1.0
C      1  0.5196840000000  0.4681200000000  0.5400820000000 1.0
C      1  0.4678440000000  0.4690380000000  0.5285370000000 1.0
C      1  0.4524090000000  0.5879760000000  0.5291940000000 1.0
C      1  0.4627370000000  0.5938420000000  0.4707570000000 1.0
C      1  0.5168840000000  0.5907240000000  0.4576930000000 1.0
C      1  0.5466630000000  0.5911050000000  0.5035130000000 1.0
C      1  0.5115190000000  0.5949290000000  0.5483440000000 1.0
C      1  0.4635960000000  0.4054900000000  0.5266710000000 1.0
C      1  0.4634320000000  0.4130110000000  0.4645210000000 1.0
C      1  0.5230140000000  0.4111880000000  0.4469170000000 1.0
C      1  0.5568110000000  0.4116130000000  0.5010360000000 1.0
C      1  0.5158560000000  0.4062500000000  0.5472500000000 1.0
C      1  0.5928400000000  0.4319940000000  0.4788430000000 1.0
C      1  0.5467740000000  0.4307060000000  0.5778450000000 1.0
C      1  0.4448500000000  0.4252610000000  0.5686760000000 1.0
C      1  0.4219980000000  0.4385760000000  0.4686030000000 1.0
C      1  0.5083250000000  0.4323280000000  0.4062620000000 1.0
C      1  0.5842270000000  0.5660190000000  0.4818060000000 1.0
C      1  0.5461190000000  0.5695050000000  0.5759550000000 1.0
C      1  0.4376780000000  0.5712340000000  0.5692520000000 1.0
C      1  0.4182830000000  0.5730170000000  0.4621530000000 1.0
C      1  0.5091770000000  0.5706630000000  0.4118390000000 1.0
C      1  0.4325740000000  0.4887810000000  0.5027710000000 1.0
C      1  0.4909710000000  0.4877760000000  0.4327060000000 1.0
C      1  0.5565920000000  0.4748560000000  0.4692270000000 1.0
C      1  0.5497000000000  0.4784320000000  0.5438910000000 1.0
C      1  0.4744610000000  0.4787090000000  0.5591420000000 1.0
C      1  0.4319130000000  0.5322330000000  0.4957350000000 1.0
C      1  0.4855990000000  0.5203150000000  0.4365920000000 1.0
C      1  0.5563600000000  0.5196740000000  0.4568920000000 1.0
C      1  0.5475980000000  0.5118170000000  0.5474000000000 1.0
C      1  0.4722930000000  0.5125980000000  0.5572380000000 1.0
C      1  0.4053290000000  0.5326090000000  0.4837770000000 1.0
C      1  0.4839650000000  0.5284890000000  0.4063570000000 1.0
C      1  0.5856740000000  0.5256740000000  0.4520620000000 1.0
C      1  0.5688490000000  0.5227220000000  0.5676660000000 1.0
C      1  0.4485880000000  0.5200310000000  0.5754830000000 1.0
C      1  0.4052180000000  0.4834960000000  0.4903490000000 1.0
C      1  0.4869150000000  0.4789520000000  0.4031490000000 1.0
C      1  0.5856800000000  0.4742920000000  0.4567850000000 1.0
C      1  0.5687410000000  0.4723960000000  0.5677460000000 1.0
C      1  0.4595090000000  0.4709140000000  0.5852070000000 1.0
C      1  0.6049540000000  0.4695710000000  0.5400870000000 1.0
C      1  0.4926840000000  0.4788790000000  0.6180530000000 1.0
C      1  0.3689630000000  0.4892080000000  0.5282980000000 1.0
C      1  0.4421070000000  0.4721860000000  0.4100250000000 1.0
C      1  0.5673580000000  0.4693620000000  0.4158700000000 1.0
C      1  0.6116550000000  0.5229560000000  0.5425010000000 1.0
C      1  0.4910160000000  0.5309790000000  0.6020430000000 1.0
C      1  0.3924890000000  0.5413980000000  0.5268080000000 1.0
C      1  0.4355050000000  0.5247080000000  0.3982550000000 1.0
C      1  0.5762210000000  0.5227950000000  0.4059180000000 1.0
C      1  0.4702910000000  0.5822940000000  0.4433030000000 1.0
C      1  0.5446590000000  0.5813420000000  0.4546950000000 1.0
C      1  0.5562240000000  0.5809670000000  0.5296860000000 1.0
C      1  0.4880130000000  0.5817340000000  0.5664360000000 1.0
C      1  0.4291570000000  0.5816010000000  0.5127160000000 1.0
C      1  0.4711430000000  0.4232120000000  0.4386900000000 1.0
C      1  0.5514830000000  0.4216290000000  0.4480820000000 1.0
C      1  0.5640270000000  0.4217350000000  0.5286640000000 1.0
C      1  0.4938710000000  0.4177190000000  0.5646840000000 1.0
C      1  0.4403490000000  0.4177620000000  0.5101020000000 1.0
C      1  0.5133750000000  0.4479580000000  0.4716460000000 1.0
C      1  0.5265010000000  0.4546770000000  0.4957050000000 1.0
C      1  0.5120500000000  0.4488000000000  0.5186990000000 1.0
C      1  0.4827080000000  0.4496670000000  0.5085080000000 1.0
C      1  0.4865210000000  0.4613820000000  0.4775510000000 1.0
C      1  0.5049650000000  0.5431120000000  0.4825990000000 1.0
C      1  0.5226460000000  0.5424870000000  0.5093680000000 1.0
C      1  0.5010280000000  0.5461740000000  0.5311740000000 1.0
C      1  0.4760960000000  0.5399380000000  0.5193260000000 1.0
C      1  0.4763350000000  0.5452340000000  0.4918310000000 1.0
C      1  0.5016030000000  0.4671230000000  0.5648710000000 1.0
C      1  0.4367340000000  0.4679700000000  0.5242210000000 1.0
C      1  0.4715890000000  0.4693330000000  0.4495660000000 1.0
C      1  0.5332290000000  0.4629350000000  0.4509230000000 1.0
C      1  0.5649710000000  0.4685640000000  0.5193440000000 1.0
C      1  0.4991420000000  0.5320050000000  0.5576250000000 1.0
C      1  0.4369040000000  0.5137000000000  0.5200180000000 1.0
C      1  0.4597130000000  0.5325000000000  0.4482560000000 1.0
C      1  0.5352920000000  0.5350700000000  0.4454070000000 1.0
C      1  0.5497660000000  0.5304190000000  0.5207550000000 1.0
C      1  0.4883320000000  0.4900510000000  0.4868790000000 1.0
C      1  0.4847730000000  0.4935240000000  0.5167520000000 1.0
END
