TITL C-102472-7317-9 -442.214869224291 125000 -1215.30063722388 0 0 180 (Td) n - 1
REM
REM in /rds/project/t2_vol4/rds-t2-cs072/BORA/CARBON/from-Arr/AIRSS/Generating-Clusters/GAP-ML-2020/Higher-Symm/SD-CG/HFTN-CG
REM
REM
REM
REM
REM
REM ./C.cell (b20cbc046b6831c77cfcea5457e17084)
REM AIRSS Version 0.9.1 bugfix July 2018 build 013d7b7c2542+ Fri, 06 Jul 2018 19:26:36 +0100
REM compiler GCC version 9.3.0
REM options -cpp -mtune=generic -march=x86-64 -g -O0
REM seed -1969212244 -1875558395 -236749685 -357854962 -39026759 422268552 1782010480 -413416562 -252160006 989817903 993491380 -41092196 -1160823008 -503688310 1634041163 -20556449 958793481 -902505065 -74354420 540148122 1223530152 -379296365 1391325731 1826655271 1025570530 -1855697412 718377321 631894649 -107854068 1997449724 594837183 -1034793801 -1545595850
REM
CELL 1.54180   50.00000   50.00000   50.00000   90.00000   90.00000   90.00000
LATT -1
SFAC C  
C      1  0.4398030000000  0.3977140000000  0.5094270000000 1.0
C      1  0.3977250000000  0.5093880000000  0.4397780000000 1.0
C      1  0.5094330000000  0.4397720000000  0.3977330000000 1.0
C      1  0.5602360000000  0.3977340000000  0.4906000000000 1.0
C      1  0.5601950000000  0.6022890000000  0.5094060000000 1.0
C      1  0.4397650000000  0.6022630000000  0.4905670000000 1.0
C      1  0.6022710000000  0.5094440000000  0.5602200000000 1.0
C      1  0.6022810000000  0.4905960000000  0.4397910000000 1.0
C      1  0.3977220000000  0.4905720000000  0.5602120000000 1.0
C      1  0.4905900000000  0.4397960000000  0.6022830000000 1.0
C      1  0.4905770000000  0.5602000000000  0.3977160000000 1.0
C      1  0.5093990000000  0.5602310000000  0.6022690000000 1.0
C      1  0.5094390000000  0.3977180000000  0.4397980000000 1.0
C      1  0.4397880000000  0.5093910000000  0.3977200000000 1.0
C      1  0.3977350000000  0.4397660000000  0.5094190000000 1.0
C      1  0.4906010000000  0.3977310000000  0.5602290000000 1.0
C      1  0.5093940000000  0.6022860000000  0.5602030000000 1.0
C      1  0.4905670000000  0.6022660000000  0.4397700000000 1.0
C      1  0.5602090000000  0.5094410000000  0.6022780000000 1.0
C      1  0.4397810000000  0.4905850000000  0.6022740000000 1.0
C      1  0.5602230000000  0.4905820000000  0.3977280000000 1.0
C      1  0.6022880000000  0.4398030000000  0.4905970000000 1.0
C      1  0.3977130000000  0.5601950000000  0.4905700000000 1.0
C      1  0.6022640000000  0.5602370000000  0.5094140000000 1.0
C      1  0.5221220000000  0.4570250000000  0.4996970000000 1.0
C      1  0.4570200000000  0.4996850000000  0.5221110000000 1.0
C      1  0.4996880000000  0.5221080000000  0.4570180000000 1.0
C      1  0.4778950000000  0.4570170000000  0.5003140000000 1.0
C      1  0.4778780000000  0.5429750000000  0.4996840000000 1.0
C      1  0.5221050000000  0.5429830000000  0.5003050000000 1.0
C      1  0.5429800000000  0.4996960000000  0.4778890000000 1.0
C      1  0.5429780000000  0.5003210000000  0.5221160000000 1.0
C      1  0.4570220000000  0.5002980000000  0.4778840000000 1.0
C      1  0.5003030000000  0.5221190000000  0.5429760000000 1.0
C      1  0.5003160000000  0.4778810000000  0.4570240000000 1.0
C      1  0.4996930000000  0.4778920000000  0.5429820000000 1.0
C      1  0.4996980000000  0.4570240000000  0.5221190000000 1.0
C      1  0.5221160000000  0.4996890000000  0.4570220000000 1.0
C      1  0.4570170000000  0.5221050000000  0.4996850000000 1.0
C      1  0.5003190000000  0.4570180000000  0.4778920000000 1.0
C      1  0.4996830000000  0.5429760000000  0.4778810000000 1.0
C      1  0.5003000000000  0.5429820000000  0.5221080000000 1.0
C      1  0.4778840000000  0.4996920000000  0.5429780000000 1.0
C      1  0.5221110000000  0.5003200000000  0.5429800000000 1.0
C      1  0.4778890000000  0.5002990000000  0.4570200000000 1.0
C      1  0.5429750000000  0.5221220000000  0.5003090000000 1.0
C      1  0.4570250000000  0.4778780000000  0.5003100000000 1.0
C      1  0.5429830000000  0.4778950000000  0.4996960000000 1.0
C      1  0.5367890000000  0.4025000000000  0.5050100000000 1.0
C      1  0.4024890000000  0.5049820000000  0.5367640000000 1.0
C      1  0.5049930000000  0.5367580000000  0.4024880000000 1.0
C      1  0.4632490000000  0.4024840000000  0.4950160000000 1.0
C      1  0.4632110000000  0.5975020000000  0.5049800000000 1.0
C      1  0.5367520000000  0.5975140000000  0.4949930000000 1.0
C      1  0.5975090000000  0.5050090000000  0.4632340000000 1.0
C      1  0.5975070000000  0.4950280000000  0.5367760000000 1.0
C      1  0.4024950000000  0.4949810000000  0.4632250000000 1.0
C      1  0.4949920000000  0.5367820000000  0.5975030000000 1.0
C      1  0.4950170000000  0.4632150000000  0.4024970000000 1.0
C      1  0.5049980000000  0.4632440000000  0.5975130000000 1.0
C      1  0.5050120000000  0.4024980000000  0.5367840000000 1.0
C      1  0.5367740000000  0.5049890000000  0.4024930000000 1.0
C      1  0.4024850000000  0.5367520000000  0.5049850000000 1.0
C      1  0.4950250000000  0.4024860000000  0.4632430000000 1.0
C      1  0.5049780000000  0.5975040000000  0.4632170000000 1.0
C      1  0.4949840000000  0.5975120000000  0.5367570000000 1.0
C      1  0.4632240000000  0.5050010000000  0.5975050000000 1.0
C      1  0.5367660000000  0.4950250000000  0.5975100000000 1.0
C      1  0.4632360000000  0.4949840000000  0.4024910000000 1.0
C      1  0.5975010000000  0.5367890000000  0.4950050000000 1.0
C      1  0.4024990000000  0.4632100000000  0.4950040000000 1.0
C      1  0.5975150000000  0.4632490000000  0.5050050000000 1.0
C      1  0.4262350000000  0.4999810000000  0.5207010000000 1.0
C      1  0.4999920000000  0.5206950000000  0.4262340000000 1.0
C      1  0.5207190000000  0.4262400000000  0.5000030000000 1.0
C      1  0.5737650000000  0.5000040000000  0.4792990000000 1.0
C      1  0.5737630000000  0.5000240000000  0.5207090000000 1.0
C      1  0.4262370000000  0.4999900000000  0.4792910000000 1.0
C      1  0.5000000000000  0.5207150000000  0.5737610000000 1.0
C      1  0.5000150000000  0.4792850000000  0.4262390000000 1.0
C      1  0.4999930000000  0.4793050000000  0.5737660000000 1.0
C      1  0.4793090000000  0.4262320000000  0.5000160000000 1.0
C      1  0.4792810000000  0.5737600000000  0.4999820000000 1.0
C      1  0.5206910000000  0.5737680000000  0.4999990000000 1.0
C      1  0.5207090000000  0.4999870000000  0.4262370000000 1.0
C      1  0.4262320000000  0.5206910000000  0.4999860000000 1.0
C      1  0.5000060000000  0.4262390000000  0.5207150000000 1.0
C      1  0.4792910000000  0.4999980000000  0.5737620000000 1.0
C      1  0.5207010000000  0.5000210000000  0.5737650000000 1.0
C      1  0.4792990000000  0.4999930000000  0.4262350000000 1.0
C      1  0.5737600000000  0.5207190000000  0.5000080000000 1.0
C      1  0.4262400000000  0.4792810000000  0.5000060000000 1.0
C      1  0.5737680000000  0.4793090000000  0.4999990000000 1.0
C      1  0.5000230000000  0.4262340000000  0.4793050000000 1.0
C      1  0.4999790000000  0.5737610000000  0.4792850000000 1.0
C      1  0.4999920000000  0.5737660000000  0.5206950000000 1.0
C      1  0.5192300000000  0.4016990000000  0.5598970000000 1.0
C      1  0.4016750000000  0.5598660000000  0.5192000000000 1.0
C      1  0.5598840000000  0.5192120000000  0.4016880000000 1.0
C      1  0.4808080000000  0.4016760000000  0.4401300000000 1.0
C      1  0.4807640000000  0.5983170000000  0.5598690000000 1.0
C      1  0.5191980000000  0.5983080000000  0.4401050000000 1.0
C      1  0.5983020000000  0.5598990000000  0.4807830000000 1.0
C      1  0.5983230000000  0.4401390000000  0.5192270000000 1.0
C      1  0.4017000000000  0.4400960000000  0.4807890000000 1.0
C      1  0.4401080000000  0.5192150000000  0.5983070000000 1.0
C      1  0.4401260000000  0.4807610000000  0.4016870000000 1.0
C      1  0.5598810000000  0.4808110000000  0.5983180000000 1.0
C      1  0.5599010000000  0.4017020000000  0.5192300000000 1.0
C      1  0.5192070000000  0.5598730000000  0.4016810000000 1.0
C      1  0.4016800000000  0.5192030000000  0.5598750000000 1.0
C      1  0.4401370000000  0.4016740000000  0.4807970000000 1.0
C      1  0.5598640000000  0.5983220000000  0.4807760000000 1.0
C      1  0.4400980000000  0.5983040000000  0.5191980000000 1.0
C      1  0.4807700000000  0.5598920000000  0.5983040000000 1.0
C      1  0.5192200000000  0.4401340000000  0.5983210000000 1.0
C      1  0.4808030000000  0.4401000000000  0.4016950000000 1.0
C      1  0.5983120000000  0.5192250000000  0.4401200000000 1.0
C      1  0.4016940000000  0.4807590000000  0.4401150000000 1.0
C      1  0.5983130000000  0.4808130000000  0.5598900000000 1.0
C      1  0.4434850000000  0.4074260000000  0.5362820000000 1.0
C      1  0.4074270000000  0.5362460000000  0.4434600000000 1.0
C      1  0.5362870000000  0.4434640000000  0.4074410000000 1.0
C      1  0.5565500000000  0.4074370000000  0.4637440000000 1.0
C      1  0.5565100000000  0.5925840000000  0.5362620000000 1.0
C      1  0.4434540000000  0.5925530000000  0.4637130000000 1.0
C      1  0.5925590000000  0.5362970000000  0.5565300000000 1.0
C      1  0.5925780000000  0.4637390000000  0.4434790000000 1.0
C      1  0.4074350000000  0.4637180000000  0.5565300000000 1.0
C      1  0.4637350000000  0.4434760000000  0.5925740000000 1.0
C      1  0.4637220000000  0.5565110000000  0.4074220000000 1.0
C      1  0.5362560000000  0.5565500000000  0.5925630000000 1.0
C      1  0.5362920000000  0.4074310000000  0.4434840000000 1.0
C      1  0.4434680000000  0.5362480000000  0.4074240000000 1.0
C      1  0.4074400000000  0.4434570000000  0.5362740000000 1.0
C      1  0.4637440000000  0.4074330000000  0.5565410000000 1.0
C      1  0.5362510000000  0.5925830000000  0.5565200000000 1.0
C      1  0.4637130000000  0.5925540000000  0.4434550000000 1.0
C      1  0.5565180000000  0.5362950000000  0.5925670000000 1.0
C      1  0.4434720000000  0.4637290000000  0.5925710000000 1.0
C      1  0.5565420000000  0.4637270000000  0.4074390000000 1.0
C      1  0.5925810000000  0.4434830000000  0.4637400000000 1.0
C      1  0.4074220000000  0.5565080000000  0.4637160000000 1.0
C      1  0.5925560000000  0.5565530000000  0.5362690000000 1.0
C      1  0.4353960000000  0.4153490000000  0.4557430000000 1.0
C      1  0.4153800000000  0.4557090000000  0.4353790000000 1.0
C      1  0.4557510000000  0.4353580000000  0.4153740000000 1.0
C      1  0.5646370000000  0.4153860000000  0.5442800000000 1.0
C      1  0.5646080000000  0.5846390000000  0.4557260000000 1.0
C      1  0.4353590000000  0.5846260000000  0.5442510000000 1.0
C      1  0.5846380000000  0.4557590000000  0.5646330000000 1.0
C      1  0.5846270000000  0.5442740000000  0.4353760000000 1.0
C      1  0.4153560000000  0.5442580000000  0.5646120000000 1.0
C      1  0.5442740000000  0.4353970000000  0.5846430000000 1.0
C      1  0.5442580000000  0.5646190000000  0.4153620000000 1.0
C      1  0.4557170000000  0.5646250000000  0.5846210000000 1.0
C      1  0.4557540000000  0.4153500000000  0.4353870000000 1.0
C      1  0.4353910000000  0.4557100000000  0.4153700000000 1.0
C      1  0.4153820000000  0.4353560000000  0.4557390000000 1.0
C      1  0.5442790000000  0.4153850000000  0.5646360000000 1.0
C      1  0.4557150000000  0.5846320000000  0.5646090000000 1.0
C      1  0.5442530000000  0.5846320000000  0.4353690000000 1.0
C      1  0.5646270000000  0.4557580000000  0.5846420000000 1.0
C      1  0.4353650000000  0.5442650000000  0.5846230000000 1.0
C      1  0.5646180000000  0.5442670000000  0.4153650000000 1.0
C      1  0.5846430000000  0.4354000000000  0.5442790000000 1.0
C      1  0.4153530000000  0.5646120000000  0.5442530000000 1.0
C      1  0.5846220000000  0.5646330000000  0.4557300000000 1.0
C      1  0.5651750000000  0.4348460000000  0.4571030000000 1.0
C      1  0.4348290000000  0.5651430000000  0.4570790000000 1.0
C      1  0.4348430000000  0.4570860000000  0.5651630000000 1.0
C      1  0.5429250000000  0.4348390000000  0.4348500000000 1.0
C      1  0.4348490000000  0.4348330000000  0.5429150000000 1.0
C      1  0.4571020000000  0.4348420000000  0.5651660000000 1.0
C      1  0.4570810000000  0.5651440000000  0.4348280000000 1.0
C      1  0.5651460000000  0.5651790000000  0.5429040000000 1.0
C      1  0.5651720000000  0.4570950000000  0.4348490000000 1.0
C      1  0.4348350000000  0.5428870000000  0.4348310000000 1.0
C      1  0.5428940000000  0.5651780000000  0.5651550000000 1.0
C      1  0.5651490000000  0.5429300000000  0.5651580000000 1.0
END
