TITL C-109528-6449-7 -15.2740097292305 125000 -254.78784693246 0 0 39 (Cs) n - 1
REM
REM in /rds/project/t2_vol4/rds-t2-cs072/BORA/CARBON/from-Arr/AIRSS/Generating-Clusters/GAP-ML-2020/Higher-Symm/SD-CG/HFTN-CG
REM
REM
REM
REM
REM
REM ./C.cell (b20cbc046b6831c77cfcea5457e17084)
REM AIRSS Version 0.9.1 bugfix July 2018 build 013d7b7c2542+ Fri, 06 Jul 2018 19:26:36 +0100
REM compiler GCC version 9.3.0
REM options -cpp -mtune=generic -march=x86-64 -g -O0
REM seed 1778209558 1648781646 -714284756 -1778529009 1149200952 950968089 -1008702647 -1523168424 37822504 -323460783 351665027 603923620 2063742025 1866798533 -1792058073 -966376747 979929915 -1414203994 1542304220 -2073473374 -418145657 -995290014 -1885870657 1511705903 1856464939 1099524662 -117436900 894812265 2129008224 -759929067 -1269938974 325573816 191555358
REM
CELL 1.54180   50.00000   50.00000   50.00000   90.00000   90.00000   90.00000
LATT -1
SFAC C  
C      1  0.4958830000000  0.5046170000000  0.4612360000000 1.0
C      1  0.4958660000000  0.5386960000000  0.4894730000000 1.0
C      1  0.4962460000000  0.5357640000000  0.5195980000000 1.0
C      1  0.4959680000000  0.5093890000000  0.5363080000000 1.0
C      1  0.5032850000000  0.4821230000000  0.5230720000000 1.0
C      1  0.4959910000000  0.4640450000000  0.4987380000000 1.0
C      1  0.4962770000000  0.4755630000000  0.4697170000000 1.0
C      1  0.5245470000000  0.4677590000000  0.4586260000000 1.0
C      1  0.5242820000000  0.5123240000000  0.4513820000000 1.0
C      1  0.5242650000000  0.5469630000000  0.4800840000000 1.0
C      1  0.5245060000000  0.5481290000000  0.5252190000000 1.0
C      1  0.5241750000000  0.5117750000000  0.5519710000000 1.0
C      1  0.5253800000000  0.4689320000000  0.5390050000000 1.0
C      1  0.5242070000000  0.4482290000000  0.4993180000000 1.0
C      1  0.5364820000000  0.5580640000000  0.5023460000000 1.0
C      1  0.5356870000000  0.5363380000000  0.5476300000000 1.0
C      1  0.5351680000000  0.4873060000000  0.5569050000000 1.0
C      1  0.5351890000000  0.4479350000000  0.5242830000000 1.0
C      1  0.5357320000000  0.4479360000000  0.4743820000000 1.0
C      1  0.5365170000000  0.4883940000000  0.4446190000000 1.0
C      1  0.5358660000000  0.5366850000000  0.4572420000000 1.0
C      1  0.4574890000000  0.5367580000000  0.4571050000000 1.0
C      1  0.4559030000000  0.5586830000000  0.5025560000000 1.0
C      1  0.4579220000000  0.5356020000000  0.5470040000000 1.0
C      1  0.4574390000000  0.4864560000000  0.5578740000000 1.0
C      1  0.4574590000000  0.4470940000000  0.5252600000000 1.0
C      1  0.4579660000000  0.4486410000000  0.4749500000000 1.0
C      1  0.4559390000000  0.4880230000000  0.4440090000000 1.0
C      1  0.4692520000000  0.4489670000000  0.5003290000000 1.0
C      1  0.4679760000000  0.4683280000000  0.4590830000000 1.0
C      1  0.4676190000000  0.5121310000000  0.4502600000000 1.0
C      1  0.4676000000000  0.5480680000000  0.4800360000000 1.0
C      1  0.4679360000000  0.5475400000000  0.5247160000000 1.0
C      1  0.4692210000000  0.5106120000000  0.5514070000000 1.0
C      1  0.4599900000000  0.4658720000000  0.5426580000000 1.0
C      1  0.4679800000000  0.5015270000000  0.4996320000000 1.0
C      1  0.5415680000000  0.5014150000000  0.4998120000000 1.0
C      1  0.4930310000000  0.5106790000000  0.4886020000000 1.0
C      1  0.5171360000000  0.4987800000000  0.5029770000000 1.0
END
