TITL C-100742-6471-3 -0.204081774578425 125000 -1053.08857564357 0 0 152 (Th) n - 1
REM
REM in /rds/project/t2_vol4/rds-t2-cs072/BORA/CARBON/from-Arr/AIRSS/Generating-Clusters/GAP-ML-2020/Higher-Symm/SD-CG/HFTN-CG
REM
REM
REM
REM
REM
REM ./C.cell (b20cbc046b6831c77cfcea5457e17084)
REM AIRSS Version 0.9.1 bugfix July 2018 build 013d7b7c2542+ Fri, 06 Jul 2018 19:26:36 +0100
REM compiler GCC version 9.3.0
REM options -cpp -mtune=generic -march=x86-64 -g -O0
REM seed -1878561879 1663628105 -138848107 1627877373 -452634031 1197820973 2066630069 793180988 -1021104448 1151335142 -873243385 1597085627 -865200325 539536787 -1344409566 -1064178718 689155438 -36667435 1045151630 230394281 1671445530 2123447732 657546797 -1144580248 -1323182448 1373858596 603696154 1377323953 945973918 1959650009 -1381296330 -166233443 -1083320287
REM
CELL 1.54180   50.00000   50.00000   50.00000   90.00000   90.00000   90.00000
LATT -1
SFAC C  
C      1  0.5574540000000  0.5391730000000  0.5819910000000 1.0
C      1  0.5389580000000  0.5819870000000  0.5576720000000 1.0
C      1  0.5817730000000  0.5576680000000  0.5391760000000 1.0
C      1  0.4425540000000  0.4612670000000  0.5819910000000 1.0
C      1  0.5574550000000  0.4612630000000  0.4184570000000 1.0
C      1  0.4425570000000  0.5391710000000  0.4184540000000 1.0
C      1  0.4610500000000  0.4184520000000  0.5576740000000 1.0
C      1  0.5389580000000  0.4184490000000  0.4427760000000 1.0
C      1  0.4610530000000  0.5819850000000  0.4427720000000 1.0
C      1  0.4182360000000  0.4427710000000  0.5391770000000 1.0
C      1  0.5817720000000  0.4427680000000  0.4612720000000 1.0
C      1  0.4182380000000  0.5576680000000  0.4612680000000 1.0
C      1  0.5574550000000  0.5391700000000  0.4184560000000 1.0
C      1  0.5389600000000  0.5819850000000  0.4427730000000 1.0
C      1  0.5817730000000  0.5576660000000  0.4612700000000 1.0
C      1  0.4425560000000  0.4612640000000  0.4184560000000 1.0
C      1  0.5574530000000  0.4612660000000  0.5819920000000 1.0
C      1  0.4425550000000  0.5391740000000  0.5819900000000 1.0
C      1  0.4610510000000  0.4184500000000  0.4427750000000 1.0
C      1  0.5389570000000  0.4184520000000  0.5576750000000 1.0
C      1  0.4610520000000  0.5819870000000  0.5576710000000 1.0
C      1  0.4182370000000  0.4427690000000  0.4612700000000 1.0
C      1  0.5817720000000  0.4427690000000  0.5391790000000 1.0
C      1  0.4182370000000  0.5576690000000  0.5391750000000 1.0
C      1  0.5683950000000  0.4859430000000  0.5745040000000 1.0
C      1  0.4857290000000  0.5744990000000  0.5686130000000 1.0
C      1  0.5742850000000  0.5686090000000  0.4859470000000 1.0
C      1  0.4316130000000  0.5144960000000  0.5745020000000 1.0
C      1  0.5683970000000  0.5144920000000  0.4259440000000 1.0
C      1  0.4316140000000  0.4859420000000  0.4259440000000 1.0
C      1  0.5142790000000  0.4259400000000  0.5686160000000 1.0
C      1  0.4857290000000  0.4259380000000  0.4318330000000 1.0
C      1  0.5142820000000  0.5744960000000  0.4318310000000 1.0
C      1  0.4257250000000  0.4318280000000  0.4859480000000 1.0
C      1  0.5742830000000  0.4318270000000  0.5145010000000 1.0
C      1  0.4257260000000  0.5686110000000  0.5144970000000 1.0
C      1  0.5683970000000  0.4859410000000  0.4259450000000 1.0
C      1  0.4857300000000  0.5744970000000  0.4318310000000 1.0
C      1  0.5742850000000  0.5686090000000  0.5144990000000 1.0
C      1  0.4316150000000  0.5144940000000  0.4259430000000 1.0
C      1  0.5683950000000  0.5144950000000  0.5745030000000 1.0
C      1  0.4316130000000  0.4859440000000  0.5745020000000 1.0
C      1  0.5142810000000  0.4259380000000  0.4318340000000 1.0
C      1  0.4857280000000  0.4259400000000  0.5686160000000 1.0
C      1  0.5142810000000  0.5744990000000  0.5686130000000 1.0
C      1  0.4257250000000  0.4318280000000  0.5145000000000 1.0
C      1  0.5742840000000  0.4318260000000  0.4859490000000 1.0
C      1  0.4257260000000  0.5686100000000  0.4859450000000 1.0
C      1  0.4560270000000  0.4331700000000  0.4850770000000 1.0
C      1  0.4329560000000  0.4850710000000  0.4562450000000 1.0
C      1  0.4848580000000  0.4562390000000  0.4331750000000 1.0
C      1  0.5439840000000  0.5672670000000  0.4850750000000 1.0
C      1  0.4560270000000  0.5672680000000  0.5153690000000 1.0
C      1  0.5439820000000  0.4331690000000  0.5153720000000 1.0
C      1  0.5670550000000  0.5153640000000  0.4562460000000 1.0
C      1  0.4329560000000  0.5153670000000  0.5442000000000 1.0
C      1  0.5670530000000  0.4850710000000  0.5442020000000 1.0
C      1  0.5151530000000  0.5441950000000  0.4331740000000 1.0
C      1  0.4848570000000  0.5441980000000  0.5672710000000 1.0
C      1  0.5151510000000  0.4562420000000  0.5672730000000 1.0
C      1  0.4560260000000  0.4331700000000  0.5153710000000 1.0
C      1  0.4329550000000  0.4850730000000  0.5442010000000 1.0
C      1  0.4848560000000  0.4562420000000  0.5672730000000 1.0
C      1  0.5439830000000  0.5672670000000  0.5153700000000 1.0
C      1  0.4560280000000  0.5672680000000  0.4850740000000 1.0
C      1  0.5439820000000  0.4331690000000  0.4850780000000 1.0
C      1  0.5670540000000  0.5153660000000  0.5442020000000 1.0
C      1  0.4329560000000  0.5153660000000  0.4562440000000 1.0
C      1  0.5670540000000  0.4850700000000  0.4562460000000 1.0
C      1  0.5151520000000  0.5441970000000  0.5672720000000 1.0
C      1  0.4848590000000  0.5441950000000  0.4331730000000 1.0
C      1  0.5151520000000  0.4562390000000  0.4331750000000 1.0
C      1  0.5150290000000  0.4854710000000  0.6036770000000 1.0
C      1  0.4852570000000  0.6036720000000  0.5152460000000 1.0
C      1  0.6034590000000  0.5152420000000  0.4854750000000 1.0
C      1  0.4849790000000  0.5149700000000  0.6036760000000 1.0
C      1  0.5150310000000  0.5149650000000  0.3967700000000 1.0
C      1  0.4849810000000  0.4854680000000  0.3967700000000 1.0
C      1  0.5147530000000  0.3967650000000  0.5152500000000 1.0
C      1  0.4852550000000  0.3967650000000  0.4852000000000 1.0
C      1  0.5147550000000  0.6036710000000  0.4851960000000 1.0
C      1  0.3965510000000  0.4851940000000  0.4854730000000 1.0
C      1  0.6034580000000  0.4851930000000  0.5149740000000 1.0
C      1  0.3965510000000  0.5152450000000  0.5149710000000 1.0
C      1  0.5150310000000  0.4854670000000  0.3967700000000 1.0
C      1  0.4852570000000  0.6036720000000  0.4851960000000 1.0
C      1  0.6034580000000  0.5152430000000  0.5149730000000 1.0
C      1  0.4849810000000  0.5149660000000  0.3967690000000 1.0
C      1  0.5150290000000  0.5149690000000  0.6036770000000 1.0
C      1  0.4849790000000  0.4854710000000  0.6036770000000 1.0
C      1  0.5147530000000  0.3967650000000  0.4852000000000 1.0
C      1  0.4852550000000  0.3967650000000  0.5152500000000 1.0
C      1  0.5147550000000  0.6036720000000  0.5152470000000 1.0
C      1  0.3965510000000  0.4851950000000  0.5149720000000 1.0
C      1  0.6034580000000  0.4851920000000  0.4854760000000 1.0
C      1  0.3965520000000  0.5152440000000  0.4854730000000 1.0
C      1  0.5294030000000  0.4612280000000  0.5148420000000 1.0
C      1  0.4610140000000  0.5148370000000  0.5296210000000 1.0
C      1  0.5146240000000  0.5296160000000  0.4612320000000 1.0
C      1  0.4706060000000  0.5392090000000  0.5148400000000 1.0
C      1  0.5294040000000  0.5392080000000  0.4856050000000 1.0
C      1  0.4706060000000  0.4612280000000  0.4856060000000 1.0
C      1  0.5389950000000  0.4856010000000  0.5296230000000 1.0
C      1  0.4610150000000  0.4856000000000  0.4708240000000 1.0
C      1  0.5389960000000  0.5148360000000  0.4708250000000 1.0
C      1  0.4853870000000  0.4708190000000  0.4612330000000 1.0
C      1  0.5146220000000  0.4708200000000  0.5392140000000 1.0
C      1  0.4853870000000  0.5296180000000  0.5392130000000 1.0
C      1  0.5294030000000  0.4612270000000  0.4856060000000 1.0
C      1  0.4610150000000  0.5148360000000  0.4708240000000 1.0
C      1  0.5146230000000  0.5296180000000  0.5392130000000 1.0
C      1  0.4706070000000  0.5392090000000  0.4856040000000 1.0
C      1  0.5294040000000  0.5392090000000  0.5148410000000 1.0
C      1  0.4706060000000  0.4612290000000  0.5148420000000 1.0
C      1  0.5389960000000  0.4856000000000  0.4708250000000 1.0
C      1  0.4610140000000  0.4856010000000  0.5296220000000 1.0
C      1  0.5389950000000  0.5148370000000  0.5296220000000 1.0
C      1  0.4853860000000  0.4708210000000  0.5392140000000 1.0
C      1  0.5146230000000  0.4708190000000  0.4612340000000 1.0
C      1  0.4853880000000  0.5296170000000  0.4612320000000 1.0
C      1  0.5899140000000  0.4697240000000  0.4656720000000 1.0
C      1  0.4695100000000  0.4656670000000  0.5901330000000 1.0
C      1  0.4654530000000  0.5901270000000  0.4697280000000 1.0
C      1  0.4100960000000  0.5307120000000  0.4656690000000 1.0
C      1  0.5899140000000  0.5307120000000  0.5347770000000 1.0
C      1  0.4100950000000  0.4697270000000  0.5347760000000 1.0
C      1  0.5304980000000  0.5347730000000  0.5901320000000 1.0
C      1  0.4695130000000  0.5347700000000  0.4103130000000 1.0
C      1  0.5304990000000  0.4656630000000  0.4103150000000 1.0
C      1  0.5345580000000  0.4103090000000  0.4697320000000 1.0
C      1  0.4654510000000  0.4103100000000  0.5307180000000 1.0
C      1  0.5345580000000  0.5901280000000  0.5307150000000 1.0
C      1  0.5899130000000  0.4697250000000  0.5347780000000 1.0
C      1  0.4695120000000  0.4656640000000  0.4103150000000 1.0
C      1  0.4654520000000  0.5901280000000  0.5307150000000 1.0
C      1  0.4100960000000  0.5307130000000  0.5347750000000 1.0
C      1  0.5899150000000  0.5307100000000  0.4656710000000 1.0
C      1  0.4100960000000  0.4697250000000  0.4656700000000 1.0
C      1  0.5304990000000  0.5347700000000  0.4103140000000 1.0
C      1  0.4695110000000  0.5347730000000  0.5901310000000 1.0
C      1  0.5304970000000  0.4656670000000  0.5901330000000 1.0
C      1  0.5345570000000  0.4103100000000  0.5307190000000 1.0
C      1  0.4654510000000  0.4103090000000  0.4697310000000 1.0
C      1  0.5345590000000  0.5901270000000  0.4697290000000 1.0
C      1  0.5611920000000  0.4390310000000  0.5614130000000 1.0
C      1  0.4388170000000  0.5614080000000  0.5614100000000 1.0
C      1  0.5611930000000  0.4390290000000  0.4390370000000 1.0
C      1  0.4388180000000  0.5614060000000  0.4390330000000 1.0
C      1  0.5611940000000  0.5614050000000  0.4390350000000 1.0
C      1  0.4388150000000  0.4390320000000  0.5614120000000 1.0
C      1  0.4388170000000  0.4390300000000  0.4390360000000 1.0
C      1  0.5611930000000  0.5614070000000  0.5614110000000 1.0
END
