TITL C-102472-7317-7 82.7077044571426 125000 -752.83828515201 0 0 107 (C1) n - 1
REM
REM in /rds/project/t2_vol4/rds-t2-cs072/BORA/CARBON/from-Arr/AIRSS/Generating-Clusters/GAP-ML-2020/Higher-Symm/SD-CG/HFTN-CG
REM
REM
REM
REM
REM
REM ./C.cell (b20cbc046b6831c77cfcea5457e17084)
REM AIRSS Version 0.9.1 bugfix July 2018 build 013d7b7c2542+ Fri, 06 Jul 2018 19:26:36 +0100
REM compiler GCC version 9.3.0
REM options -cpp -mtune=generic -march=x86-64 -g -O0
REM seed 1272528613 -264841685 -963579639 1159922123 1855732102 756195985 -636354612 1557457647 -1764750054 1764764225 1716085165 1011687890 -1053001542 1187575553 1460823514 -914475714 1131721666 1229128935 -1855239328 535124656 -319572249 -1723395987 -1669173419 1864827916 441485254 763360961 102205282 997946593 1076824216 235446851 1877904991 -2040954320 -533142618
REM
CELL 1.54180   50.00000   50.00000   50.00000   90.00000   90.00000   90.00000
LATT -1
SFAC C  
C      1  0.5704270000000  0.4561430000000  0.5327320000000 1.0
C      1  0.4272250000000  0.4557650000000  0.5295930000000 1.0
C      1  0.5152390000000  0.4142950000000  0.4571320000000 1.0
C      1  0.4859220000000  0.4137380000000  0.4561390000000 1.0
C      1  0.5754160000000  0.4953560000000  0.4851840000000 1.0
C      1  0.4265120000000  0.4952620000000  0.4846120000000 1.0
C      1  0.4720770000000  0.5182550000000  0.5571000000000 1.0
C      1  0.5021240000000  0.5146510000000  0.5605760000000 1.0
C      1  0.5250930000000  0.4773230000000  0.4933650000000 1.0
C      1  0.4738250000000  0.4758960000000  0.4904690000000 1.0
C      1  0.5154470000000  0.4686460000000  0.4153350000000 1.0
C      1  0.4867270000000  0.4687440000000  0.4148120000000 1.0
C      1  0.5287520000000  0.5145390000000  0.4302600000000 1.0
C      1  0.4739780000000  0.5150070000000  0.4300670000000 1.0
C      1  0.4720430000000  0.5613890000000  0.4407550000000 1.0
C      1  0.5307660000000  0.5609150000000  0.4424190000000 1.0
C      1  0.4463510000000  0.4708870000000  0.4383660000000 1.0
C      1  0.5550520000000  0.4709170000000  0.4400390000000 1.0
C      1  0.4255300000000  0.5248950000000  0.5293890000000 1.0
C      1  0.5759470000000  0.5236760000000  0.5288010000000 1.0
C      1  0.5714620000000  0.5198190000000  0.5016070000000 1.0
C      1  0.4386220000000  0.5171360000000  0.5044540000000 1.0
C      1  0.4680490000000  0.5125640000000  0.5222400000000 1.0
C      1  0.5188750000000  0.5125520000000  0.5315170000000 1.0
C      1  0.4697500000000  0.4556320000000  0.4319760000000 1.0
C      1  0.5319810000000  0.4556140000000  0.4330470000000 1.0
C      1  0.4337220000000  0.5388580000000  0.4595080000000 1.0
C      1  0.5671180000000  0.5386090000000  0.4604940000000 1.0
C      1  0.5267960000000  0.5766470000000  0.5417120000000 1.0
C      1  0.4726730000000  0.5824110000000  0.5377140000000 1.0
C      1  0.4823860000000  0.4885100000000  0.5151010000000 1.0
C      1  0.5117160000000  0.4895360000000  0.5173570000000 1.0
C      1  0.5565080000000  0.5410710000000  0.4886080000000 1.0
C      1  0.4451040000000  0.5415570000000  0.4871080000000 1.0
C      1  0.3989320000000  0.4877040000000  0.4933510000000 1.0
C      1  0.6021910000000  0.4826470000000  0.4928370000000 1.0
C      1  0.4457360000000  0.4989930000000  0.4372680000000 1.0
C      1  0.5559710000000  0.4990380000000  0.4375890000000 1.0
C      1  0.4850620000000  0.4369190000000  0.5355890000000 1.0
C      1  0.5137790000000  0.4374690000000  0.5363420000000 1.0
C      1  0.5287670000000  0.4061330000000  0.5006780000000 1.0
C      1  0.4708970000000  0.4056590000000  0.4994430000000 1.0
C      1  0.5290330000000  0.4410620000000  0.4600150000000 1.0
C      1  0.4717420000000  0.4401220000000  0.4583230000000 1.0
C      1  0.5806100000000  0.4995750000000  0.5437950000000 1.0
C      1  0.4198840000000  0.4998430000000  0.5430710000000 1.0
C      1  0.5158710000000  0.5424000000000  0.4259520000000 1.0
C      1  0.4875710000000  0.5426160000000  0.4253820000000 1.0
C      1  0.4835020000000  0.4628070000000  0.5774280000000 1.0
C      1  0.5112400000000  0.4674730000000  0.5750730000000 1.0
C      1  0.4694010000000  0.4326550000000  0.5089160000000 1.0
C      1  0.5301120000000  0.4331880000000  0.5101110000000 1.0
C      1  0.4448130000000  0.4543300000000  0.4615010000000 1.0
C      1  0.5552710000000  0.4557080000000  0.4642340000000 1.0
C      1  0.5459000000000  0.5572870000000  0.5543770000000 1.0
C      1  0.4528170000000  0.5646210000000  0.5502760000000 1.0
C      1  0.4300890000000  0.5102300000000  0.4574950000000 1.0
C      1  0.5711670000000  0.5101170000000  0.4580600000000 1.0
C      1  0.5568580000000  0.5626390000000  0.5097700000000 1.0
C      1  0.4431080000000  0.5638070000000  0.5069260000000 1.0
C      1  0.4368850000000  0.4855960000000  0.5612490000000 1.0
C      1  0.5616160000000  0.4894970000000  0.5629530000000 1.0
C      1  0.4429700000000  0.4592570000000  0.5525930000000 1.0
C      1  0.5539360000000  0.4625880000000  0.5550590000000 1.0
C      1  0.4862420000000  0.4889610000000  0.4688350000000 1.0
C      1  0.5142520000000  0.4891640000000  0.4701440000000 1.0
C      1  0.4654840000000  0.5836470000000  0.5102520000000 1.0
C      1  0.5341590000000  0.5802410000000  0.5140090000000 1.0
C      1  0.4089340000000  0.4781920000000  0.5278680000000 1.0
C      1  0.5902560000000  0.4767260000000  0.5301740000000 1.0
C      1  0.5166580000000  0.5170450000000  0.4621550000000 1.0
C      1  0.4852210000000  0.5174210000000  0.4609030000000 1.0
C      1  0.4849040000000  0.4482080000000  0.4866250000000 1.0
C      1  0.5150020000000  0.4490130000000  0.4877010000000 1.0
C      1  0.5164300000000  0.5638760000000  0.4699870000000 1.0
C      1  0.4858840000000  0.5646080000000  0.4684490000000 1.0
C      1  0.5120660000000  0.5304050000000  0.5107470000000 1.0
C      1  0.4847040000000  0.5322250000000  0.5085040000000 1.0
C      1  0.5434610000000  0.5070480000000  0.5752610000000 1.0
C      1  0.4580950000000  0.4975240000000  0.5754210000000 1.0
C      1  0.4850000000000  0.3958980000000  0.4792500000000 1.0
C      1  0.5155260000000  0.3962820000000  0.4799590000000 1.0
C      1  0.5118230000000  0.5385260000000  0.5749110000000 1.0
C      1  0.4940950000000  0.5591440000000  0.5698410000000 1.0
C      1  0.5174890000000  0.4949090000000  0.5772100000000 1.0
C      1  0.4694640000000  0.4800790000000  0.5937740000000 1.0
C      1  0.6135330000000  0.4746370000000  0.5144880000000 1.0
C      1  0.3850580000000  0.4780060000000  0.5127350000000 1.0
C      1  0.4862900000000  0.5854710000000  0.4909010000000 1.0
C      1  0.5149890000000  0.5843440000000  0.4928480000000 1.0
C      1  0.4756360000000  0.5382120000000  0.4812030000000 1.0
C      1  0.5253600000000  0.5364230000000  0.4837580000000 1.0
C      1  0.4868570000000  0.4976770000000  0.4117280000000 1.0
C      1  0.5156340000000  0.4975350000000  0.4118820000000 1.0
C      1  0.5578220000000  0.5558210000000  0.4419880000000 1.0
C      1  0.4453410000000  0.5549660000000  0.4411150000000 1.0
C      1  0.4418840000000  0.4484110000000  0.5075460000000 1.0
C      1  0.5572170000000  0.4488820000000  0.5097380000000 1.0
C      1  0.5551550000000  0.4704070000000  0.4892810000000 1.0
C      1  0.4440960000000  0.4689000000000  0.4864470000000 1.0
C      1  0.5649330000000  0.5503610000000  0.5341390000000 1.0
C      1  0.4341730000000  0.5528870000000  0.5317580000000 1.0
C      1  0.5271610000000  0.4521230000000  0.5575610000000 1.0
C      1  0.4698750000000  0.4490990000000  0.5562510000000 1.0
C      1  0.4686300000000  0.5471600000000  0.5651340000000 1.0
C      1  0.5395800000000  0.5364150000000  0.5734430000000 1.0
C      1  0.4992040000000  0.5791470000000  0.5503850000000 1.0
END
