TITL C-105259-9145-1 0.0558220052151887 125000 -910.605145782353 0 0 131 (C1) n - 1
REM
REM in /rds/project/t2_vol4/rds-t2-cs072/BORA/CARBON/from-Arr/AIRSS/Generating-Clusters/GAP-ML-2020/Higher-Symm/SD-CG/HFTN-CG
REM
REM
REM
REM
REM
REM ./C.cell (b20cbc046b6831c77cfcea5457e17084)
REM AIRSS Version 0.9.1 bugfix July 2018 build 013d7b7c2542+ Fri, 06 Jul 2018 19:26:36 +0100
REM compiler GCC version 9.3.0
REM options -cpp -mtune=generic -march=x86-64 -g -O0
REM seed -1867519029 889360198 303956543 -1538441746 874383991 -1578383112 -260814645 750294669 1998311549 1383375381 -1310341677 -175882134 -1369512625 1983609153 -1680033172 -1241848253 -1458745811 -533895749 94729107 554596204 -19120317 -1285571825 -933017808 397814114 1904730152 -1009377131 1087355529 -432941810 599275040 1673135695 1363943211 1087592486 -1905384365
REM
CELL 1.54180   50.00000   50.00000   50.00000   90.00000   90.00000   90.00000
LATT -1
SFAC C  
C      1  0.4844750000000  0.5675840000000  0.5733400000000 1.0
C      1  0.4851330000000  0.5674790000000  0.4273870000000 1.0
C      1  0.4819690000000  0.5062390000000  0.5974090000000 1.0
C      1  0.4819120000000  0.5064210000000  0.4034250000000 1.0
C      1  0.5420290000000  0.4676810000000  0.4724190000000 1.0
C      1  0.5418810000000  0.4679780000000  0.5281650000000 1.0
C      1  0.5952660000000  0.4946560000000  0.4642680000000 1.0
C      1  0.5951300000000  0.4948940000000  0.5365400000000 1.0
C      1  0.4530900000000  0.4740080000000  0.4745940000000 1.0
C      1  0.4530790000000  0.4739890000000  0.5263060000000 1.0
C      1  0.5056380000000  0.5564890000000  0.4748280000000 1.0
C      1  0.5033920000000  0.5576480000000  0.5232730000000 1.0
C      1  0.4589620000000  0.5028070000000  0.4196650000000 1.0
C      1  0.4589320000000  0.5024990000000  0.5813620000000 1.0
C      1  0.5050610000000  0.4887920000000  0.5927400000000 1.0
C      1  0.5049370000000  0.4886590000000  0.4074390000000 1.0
C      1  0.5012880000000  0.4626420000000  0.5847180000000 1.0
C      1  0.5012090000000  0.4626090000000  0.4158240000000 1.0
C      1  0.4534030000000  0.5258680000000  0.4386850000000 1.0
C      1  0.4530800000000  0.5254710000000  0.5627100000000 1.0
C      1  0.4398670000000  0.5677960000000  0.4476290000000 1.0
C      1  0.4387330000000  0.5675080000000  0.5546520000000 1.0
C      1  0.5661640000000  0.5267790000000  0.4377100000000 1.0
C      1  0.5657970000000  0.5269430000000  0.5629660000000 1.0
C      1  0.4209760000000  0.4717250000000  0.4732860000000 1.0
C      1  0.4209720000000  0.4716480000000  0.5276680000000 1.0
C      1  0.4655990000000  0.4990340000000  0.4840800000000 1.0
C      1  0.4654340000000  0.4990700000000  0.5168500000000 1.0
C      1  0.4687470000000  0.4247040000000  0.5294640000000 1.0
C      1  0.4687440000000  0.4246570000000  0.4712940000000 1.0
C      1  0.4792150000000  0.4320070000000  0.5576170000000 1.0
C      1  0.4791850000000  0.4320700000000  0.4431220000000 1.0
C      1  0.5447030000000  0.4602260000000  0.5573080000000 1.0
C      1  0.5448110000000  0.4600380000000  0.4432790000000 1.0
C      1  0.5296130000000  0.5744940000000  0.5590930000000 1.0
C      1  0.5307310000000  0.5746160000000  0.4410810000000 1.0
C      1  0.4905310000000  0.5976530000000  0.5303340000000 1.0
C      1  0.4914150000000  0.5969210000000  0.4708300000000 1.0
C      1  0.4143460000000  0.5554950000000  0.5606850000000 1.0
C      1  0.4152550000000  0.5562630000000  0.4412330000000 1.0
C      1  0.4199050000000  0.4448730000000  0.4862290000000 1.0
C      1  0.4198950000000  0.4448420000000  0.5145990000000 1.0
C      1  0.5219230000000  0.4490980000000  0.5704030000000 1.0
C      1  0.5219200000000  0.4490770000000  0.4301890000000 1.0
C      1  0.5008760000000  0.5779080000000  0.4500020000000 1.0
C      1  0.4999420000000  0.5786990000000  0.5509890000000 1.0
C      1  0.5035450000000  0.3830500000000  0.5146730000000 1.0
C      1  0.5035320000000  0.3829810000000  0.4864370000000 1.0
C      1  0.5704510000000  0.4727300000000  0.4388170000000 1.0
C      1  0.5702730000000  0.4729590000000  0.5618450000000 1.0
C      1  0.5198010000000  0.4513950000000  0.5154340000000 1.0
C      1  0.5198420000000  0.4512690000000  0.4852390000000 1.0
C      1  0.5863760000000  0.4673530000000  0.4636130000000 1.0
C      1  0.5862650000000  0.4675650000000  0.5370950000000 1.0
C      1  0.5208780000000  0.5123900000000  0.5823980000000 1.0
C      1  0.5212590000000  0.5120860000000  0.4174600000000 1.0
C      1  0.4654340000000  0.5895470000000  0.5165690000000 1.0
C      1  0.4690550000000  0.5838570000000  0.4878490000000 1.0
C      1  0.5339670000000  0.3846530000000  0.4860900000000 1.0
C      1  0.5339960000000  0.3847300000000  0.5150840000000 1.0
C      1  0.5638050000000  0.4251810000000  0.5144690000000 1.0
C      1  0.5638190000000  0.4250600000000  0.4864050000000 1.0
C      1  0.5170310000000  0.4243210000000  0.4716380000000 1.0
C      1  0.5170260000000  0.4244830000000  0.5290510000000 1.0
C      1  0.4922740000000  0.4112420000000  0.4845720000000 1.0
C      1  0.4922710000000  0.4113200000000  0.5161930000000 1.0
C      1  0.5313550000000  0.5735060000000  0.4853750000000 1.0
C      1  0.5303220000000  0.5731270000000  0.5151910000000 1.0
C      1  0.5442820000000  0.5317600000000  0.4196460000000 1.0
C      1  0.5439330000000  0.5319560000000  0.5809460000000 1.0
C      1  0.5679420000000  0.4555910000000  0.5162540000000 1.0
C      1  0.5679980000000  0.4554310000000  0.4844190000000 1.0
C      1  0.4960060000000  0.4640230000000  0.4761750000000 1.0
C      1  0.4959940000000  0.4642070000000  0.5245430000000 1.0
C      1  0.5137140000000  0.5097800000000  0.4855490000000 1.0
C      1  0.5134450000000  0.5101340000000  0.5147370000000 1.0
C      1  0.4541680000000  0.4750060000000  0.5735290000000 1.0
C      1  0.4541490000000  0.4752140000000  0.4273300000000 1.0
C      1  0.4747690000000  0.4542690000000  0.5755690000000 1.0
C      1  0.4747230000000  0.4544050000000  0.4252280000000 1.0
C      1  0.4708100000000  0.4522170000000  0.4847510000000 1.0
C      1  0.4708160000000  0.4522610000000  0.5160400000000 1.0
C      1  0.5074000000000  0.4293040000000  0.5562270000000 1.0
C      1  0.5073890000000  0.4293400000000  0.4444470000000 1.0
C      1  0.5378030000000  0.5012630000000  0.4710600000000 1.0
C      1  0.5374370000000  0.5017800000000  0.5292800000000 1.0
C      1  0.4226120000000  0.5303150000000  0.5542920000000 1.0
C      1  0.4231830000000  0.5310830000000  0.4472920000000 1.0
C      1  0.4448840000000  0.5406900000000  0.4855330000000 1.0
C      1  0.4454810000000  0.5412390000000  0.5160720000000 1.0
C      1  0.5141290000000  0.6002400000000  0.5143870000000 1.0
C      1  0.5148580000000  0.6001810000000  0.4863340000000 1.0
C      1  0.4390420000000  0.4715460000000  0.4500890000000 1.0
C      1  0.4390190000000  0.4713650000000  0.5508060000000 1.0
C      1  0.5424170000000  0.4093270000000  0.5259930000000 1.0
C      1  0.5424110000000  0.4091420000000  0.4749450000000 1.0
C      1  0.4419130000000  0.4243010000000  0.5151690000000 1.0
C      1  0.4419280000000  0.4243260000000  0.4856100000000 1.0
C      1  0.5196260000000  0.5172990000000  0.5523140000000 1.0
C      1  0.5203760000000  0.5158580000000  0.4474330000000 1.0
C      1  0.5475730000000  0.5665870000000  0.5377240000000 1.0
C      1  0.5484920000000  0.5667370000000  0.4628390000000 1.0
C      1  0.4995660000000  0.5287290000000  0.5964260000000 1.0
C      1  0.4998060000000  0.5287450000000  0.4042120000000 1.0
C      1  0.4667790000000  0.5246670000000  0.5330450000000 1.0
C      1  0.4669850000000  0.5245220000000  0.4676700000000 1.0
C      1  0.4932450000000  0.4893770000000  0.4852470000000 1.0
C      1  0.4931440000000  0.4895540000000  0.5154300000000 1.0
C      1  0.5878150000000  0.5092050000000  0.4865250000000 1.0
C      1  0.5877080000000  0.5093530000000  0.5142330000000 1.0
C      1  0.4127330000000  0.4983440000000  0.5147450000000 1.0
C      1  0.4126830000000  0.4983160000000  0.4863150000000 1.0
C      1  0.4476550000000  0.5684400000000  0.4750310000000 1.0
C      1  0.4476740000000  0.5697900000000  0.5275490000000 1.0
C      1  0.5625820000000  0.5422220000000  0.4625020000000 1.0
C      1  0.5620080000000  0.5422980000000  0.5380830000000 1.0
C      1  0.5599770000000  0.5208380000000  0.4838870000000 1.0
C      1  0.5598410000000  0.5209630000000  0.5166220000000 1.0
C      1  0.5031160000000  0.5549720000000  0.5902700000000 1.0
C      1  0.5036090000000  0.5549800000000  0.4102200000000 1.0
C      1  0.4594740000000  0.5548730000000  0.5700230000000 1.0
C      1  0.4601910000000  0.5551370000000  0.4316620000000 1.0
C      1  0.5783200000000  0.5016880000000  0.5605920000000 1.0
C      1  0.5785980000000  0.5014560000000  0.4401310000000 1.0
C      1  0.5311690000000  0.5573970000000  0.4192290000000 1.0
C      1  0.5304810000000  0.5574770000000  0.5810730000000 1.0
C      1  0.4211130000000  0.5231250000000  0.4745910000000 1.0
C      1  0.4209940000000  0.5230050000000  0.5268300000000 1.0
C      1  0.5002890000000  0.5288550000000  0.4659670000000 1.0
C      1  0.4993180000000  0.5299840000000  0.5334760000000 1.0
C      1  0.4881180000000  0.5599500000000  0.4978700000000 1.0
END
