TITL C-100753-6403-8 -39.8022825882401 125000 -946.860561280081 0 0 135 (Cs) n - 1
REM
REM in /rds/project/t2_vol4/rds-t2-cs072/BORA/CARBON/from-Arr/AIRSS/Generating-Clusters/GAP-ML-2020/Higher-Symm/SD-CG/HFTN-CG
REM
REM
REM
REM
REM
REM ./C.cell (b20cbc046b6831c77cfcea5457e17084)
REM AIRSS Version 0.9.1 bugfix July 2018 build 013d7b7c2542+ Fri, 06 Jul 2018 19:26:36 +0100
REM compiler GCC version 9.3.0
REM options -cpp -mtune=generic -march=x86-64 -g -O0
REM seed 2066541770 -1399345653 -1086728725 1765011136 -1217764646 -202225640 -966741618 10423399 -1534799376 -991809682 1358755020 468183485 -1619627992 -1694503575 664771783 781284173 1859575099 -1690128241 1847129303 -1993636293 1030805545 -1736163201 1284419312 919626734 1976262830 1741107882 -1364290187 -593941322 1277183095 1199713342 10319559 -303677053 -2118694529
REM
CELL 1.54180   50.00000   50.00000   50.00000   90.00000   90.00000   90.00000
LATT -1
SFAC C  
C      1  0.4992980000000  0.4693880000000  0.3842050000000 1.0
C      1  0.5233610000000  0.5115010000000  0.3821950000000 1.0
C      1  0.4740120000000  0.5118670000000  0.3830530000000 1.0
C      1  0.4992940000000  0.4693900000000  0.6147530000000 1.0
C      1  0.5233570000000  0.5115030000000  0.6167630000000 1.0
C      1  0.4740080000000  0.5118700000000  0.6159020000000 1.0
C      1  0.4987750000000  0.5256320000000  0.3820990000000 1.0
C      1  0.5239220000000  0.4831800000000  0.3832920000000 1.0
C      1  0.4746850000000  0.4836460000000  0.3840770000000 1.0
C      1  0.4987710000000  0.5256340000000  0.6168580000000 1.0
C      1  0.5239180000000  0.4831820000000  0.6156660000000 1.0
C      1  0.4746810000000  0.4836490000000  0.6148790000000 1.0
C      1  0.4514800000000  0.5304240000000  0.4843030000000 1.0
C      1  0.4980080000000  0.4410000000000  0.4843270000000 1.0
C      1  0.5483930000000  0.5278050000000  0.4836840000000 1.0
C      1  0.4514790000000  0.5304250000000  0.5146520000000 1.0
C      1  0.4980080000000  0.4410010000000  0.5146310000000 1.0
C      1  0.5483920000000  0.5278050000000  0.5152740000000 1.0
C      1  0.4500500000000  0.4681220000000  0.4841460000000 1.0
C      1  0.4996540000000  0.5556570000000  0.4836780000000 1.0
C      1  0.5511150000000  0.4735090000000  0.4843170000000 1.0
C      1  0.4500490000000  0.4681230000000  0.5148090000000 1.0
C      1  0.4996530000000  0.5556570000000  0.5152780000000 1.0
C      1  0.5511150000000  0.4735090000000  0.5146420000000 1.0
C      1  0.4228990000000  0.4751510000000  0.5268200000000 1.0
C      1  0.5600000000000  0.4468350000000  0.5266230000000 1.0
C      1  0.5235260000000  0.5716190000000  0.5276770000000 1.0
C      1  0.4229000000000  0.4751510000000  0.4721340000000 1.0
C      1  0.5600010000000  0.4468350000000  0.4723360000000 1.0
C      1  0.5235270000000  0.5716180000000  0.4712790000000 1.0
C      1  0.4241460000000  0.5244760000000  0.5267440000000 1.0
C      1  0.5500310000000  0.5564690000000  0.5276740000000 1.0
C      1  0.5174980000000  0.4207200000000  0.5266850000000 1.0
C      1  0.4241470000000  0.5244760000000  0.4722100000000 1.0
C      1  0.5500320000000  0.5564690000000  0.4712840000000 1.0
C      1  0.5174990000000  0.4207200000000  0.4722740000000 1.0
C      1  0.5492180000000  0.5288700000000  0.4268470000000 1.0
C      1  0.4494490000000  0.5277190000000  0.4305410000000 1.0
C      1  0.5015590000000  0.4410800000000  0.4307030000000 1.0
C      1  0.5492150000000  0.5288710000000  0.5721110000000 1.0
C      1  0.4494470000000  0.5277200000000  0.5684130000000 1.0
C      1  0.5015570000000  0.4410810000000  0.5682550000000 1.0
C      1  0.5498430000000  0.4702120000000  0.4307480000000 1.0
C      1  0.4492500000000  0.4714090000000  0.4301740000000 1.0
C      1  0.5002530000000  0.5569080000000  0.4267890000000 1.0
C      1  0.5498410000000  0.4702130000000  0.5682120000000 1.0
C      1  0.4492470000000  0.4714100000000  0.5687810000000 1.0
C      1  0.5002510000000  0.5569100000000  0.5721670000000 1.0
C      1  0.5085440000000  0.3963480000000  0.4848610000000 1.0
C      1  0.5749390000000  0.5631470000000  0.4851110000000 1.0
C      1  0.4077740000000  0.5443610000000  0.4846830000000 1.0
C      1  0.5085440000000  0.3963480000000  0.5140980000000 1.0
C      1  0.5749380000000  0.5631470000000  0.5138470000000 1.0
C      1  0.4077740000000  0.5443620000000  0.5142700000000 1.0
C      1  0.5166150000000  0.5964580000000  0.4851100000000 1.0
C      1  0.5855340000000  0.4429730000000  0.4847010000000 1.0
C      1  0.4066260000000  0.4551040000000  0.4850540000000 1.0
C      1  0.5166140000000  0.5964580000000  0.5138460000000 1.0
C      1  0.5855330000000  0.4429730000000  0.5142600000000 1.0
C      1  0.4066260000000  0.4551040000000  0.5139000000000 1.0
C      1  0.5691920000000  0.5149870000000  0.5584490000000 1.0
C      1  0.4533690000000  0.5533520000000  0.5572790000000 1.0
C      1  0.4776810000000  0.4311160000000  0.5577800000000 1.0
C      1  0.5691940000000  0.5149860000000  0.4405100000000 1.0
C      1  0.4533710000000  0.5533510000000  0.4416760000000 1.0
C      1  0.4776830000000  0.4311150000000  0.4411780000000 1.0
C      1  0.5699230000000  0.4867030000000  0.5572180000000 1.0
C      1  0.4534400000000  0.4459040000000  0.5585200000000 1.0
C      1  0.4781240000000  0.5670550000000  0.5584830000000 1.0
C      1  0.5699250000000  0.4867020000000  0.4417410000000 1.0
C      1  0.4534420000000  0.4459030000000  0.4404360000000 1.0
C      1  0.4781260000000  0.5670540000000  0.4404720000000 1.0
C      1  0.4994180000000  0.5267130000000  0.5248330000000 1.0
C      1  0.4750810000000  0.4847280000000  0.5241730000000 1.0
C      1  0.5239020000000  0.4852110000000  0.5243300000000 1.0
C      1  0.4994190000000  0.5267130000000  0.4741240000000 1.0
C      1  0.4750820000000  0.4847280000000  0.4747830000000 1.0
C      1  0.5239030000000  0.4852110000000  0.4746270000000 1.0
C      1  0.4995330000000  0.4708060000000  0.5242710000000 1.0
C      1  0.4752860000000  0.5130120000000  0.5243350000000 1.0
C      1  0.5235550000000  0.5129330000000  0.5248470000000 1.0
C      1  0.4995340000000  0.4708050000000  0.4746860000000 1.0
C      1  0.4752870000000  0.5130120000000  0.4746210000000 1.0
C      1  0.5235560000000  0.5129320000000  0.4741100000000 1.0
C      1  0.4221520000000  0.4305860000000  0.4782730000000 1.0
C      1  0.5971740000000  0.4698220000000  0.4850810000000 1.0
C      1  0.4875090000000  0.6007030000000  0.4792790000000 1.0
C      1  0.4221510000000  0.4305870000000  0.5206820000000 1.0
C      1  0.5971740000000  0.4698220000000  0.5138800000000 1.0
C      1  0.4875090000000  0.6007030000000  0.5196750000000 1.0
C      1  0.4248890000000  0.5681330000000  0.4850780000000 1.0
C      1  0.5933800000000  0.5402330000000  0.4792870000000 1.0
C      1  0.4793450000000  0.3990350000000  0.4850850000000 1.0
C      1  0.4248880000000  0.5681330000000  0.5138750000000 1.0
C      1  0.5933790000000  0.5402330000000  0.5196720000000 1.0
C      1  0.4793440000000  0.3990350000000  0.5138730000000 1.0
C      1  0.4483320000000  0.4405340000000  0.4694960000000 1.0
C      1  0.5766960000000  0.4874350000000  0.4714550000000 1.0
C      1  0.4780160000000  0.5735500000000  0.4699150000000 1.0
C      1  0.4483310000000  0.4405340000000  0.5294600000000 1.0
C      1  0.5766950000000  0.4874360000000  0.5275050000000 1.0
C      1  0.4780150000000  0.5735510000000  0.5290400000000 1.0
C      1  0.4504990000000  0.5595110000000  0.4713930000000 1.0
C      1  0.5748160000000  0.5182570000000  0.4699400000000 1.0
C      1  0.4743370000000  0.4248610000000  0.4710460000000 1.0
C      1  0.4504980000000  0.5595120000000  0.5275610000000 1.0
C      1  0.5748150000000  0.5182580000000  0.5290190000000 1.0
C      1  0.4743360000000  0.4248610000000  0.5279120000000 1.0
C      1  0.5269220000000  0.4829200000000  0.4147260000000 1.0
C      1  0.4994460000000  0.5297750000000  0.4132120000000 1.0
C      1  0.4724150000000  0.4836470000000  0.4151710000000 1.0
C      1  0.5269190000000  0.4829210000000  0.5842320000000 1.0
C      1  0.4994430000000  0.5297770000000  0.5857440000000 1.0
C      1  0.4724120000000  0.4836480000000  0.5837850000000 1.0
C      1  0.5263300000000  0.5143010000000  0.4133170000000 1.0
C      1  0.5002490000000  0.4673830000000  0.4153190000000 1.0
C      1  0.4721400000000  0.5144930000000  0.4145080000000 1.0
C      1  0.5263270000000  0.5143030000000  0.5856410000000 1.0
C      1  0.5002470000000  0.4673840000000  0.5836390000000 1.0
C      1  0.4721370000000  0.5144940000000  0.5844470000000 1.0
C      1  0.5242170000000  0.4309590000000  0.4459340000000 1.0
C      1  0.5466690000000  0.5529910000000  0.4413050000000 1.0
C      1  0.4291580000000  0.5135880000000  0.4457110000000 1.0
C      1  0.5242150000000  0.4309600000000  0.5530250000000 1.0
C      1  0.5466670000000  0.5529920000000  0.5576530000000 1.0
C      1  0.4291560000000  0.5135890000000  0.5532430000000 1.0
C      1  0.5222830000000  0.5669550000000  0.4412970000000 1.0
C      1  0.5481280000000  0.4455000000000  0.4459050000000 1.0
C      1  0.4287210000000  0.4856380000000  0.4456050000000 1.0
C      1  0.5222810000000  0.5669560000000  0.5576600000000 1.0
C      1  0.5481260000000  0.4455010000000  0.5530550000000 1.0
C      1  0.4287200000000  0.4856390000000  0.5533500000000 1.0
C      1  0.4243810000000  0.4130380000000  0.4994780000000 1.0
C      1  0.4774010000000  0.6171750000000  0.4994770000000 1.0
C      1  0.6127110000000  0.5399120000000  0.4994800000000 1.0
END
