TITL C-100371-1736-12 0.136363165734567 125000 -538.40954024002 0 0 76 (C1) n - 1
REM
REM in /rds/project/t2_vol4/rds-t2-cs072/BORA/CARBON/from-Arr/AIRSS/Generating-Clusters/GAP-ML-2020/Higher-Symm/SD-CG/HFTN-CG
REM
REM
REM
REM
REM
REM ./C.cell (b20cbc046b6831c77cfcea5457e17084)
REM AIRSS Version 0.9.1 bugfix July 2018 build 013d7b7c2542+ Fri, 06 Jul 2018 19:26:36 +0100
REM compiler GCC version 9.3.0
REM options -cpp -mtune=generic -march=x86-64 -g -O0
REM seed 1336376722 1746214980 1748541136 -1545816899 -24046636 265009387 -184372013 -138653616 1373188599 1501140241 271800129 -1489098099 -422859788 1604517091 793843510 -1628437922 459672789 -1674416699 -521909365 1406137951 298028400 928218910 1599841899 -461046237 94259998 -1850583674 -1837506509 -2092249920 -967145973 -682016696 1650506614 -1881023527 2127468330
REM
CELL 1.54180   50.00000   50.00000   50.00000   90.00000   90.00000   90.00000
LATT -1
SFAC C  
C      1  0.5634850000000  0.5541000000000  0.4727220000000 1.0
C      1  0.4715070000000  0.5716870000000  0.5696420000000 1.0
C      1  0.5516480000000  0.4679800000000  0.5757880000000 1.0
C      1  0.5732270000000  0.4503710000000  0.5351530000000 1.0
C      1  0.4342510000000  0.4429510000000  0.4688990000000 1.0
C      1  0.4288000000000  0.5659570000000  0.5452410000000 1.0
C      1  0.4759120000000  0.4264200000000  0.4466960000000 1.0
C      1  0.5336800000000  0.4272270000000  0.5540700000000 1.0
C      1  0.5291910000000  0.5687900000000  0.4393380000000 1.0
C      1  0.5553030000000  0.5284120000000  0.4308260000000 1.0
C      1  0.4488610000000  0.5284200000000  0.5708910000000 1.0
C      1  0.4486390000000  0.4627440000000  0.4265790000000 1.0
C      1  0.5711420000000  0.4707770000000  0.5563080000000 1.0
C      1  0.4686110000000  0.5472340000000  0.5829630000000 1.0
C      1  0.5457670000000  0.5737200000000  0.4644200000000 1.0
C      1  0.5702960000000  0.5324520000000  0.4539790000000 1.0
C      1  0.4308630000000  0.4631320000000  0.4474560000000 1.0
C      1  0.4291920000000  0.5369330000000  0.5539940000000 1.0
C      1  0.4699830000000  0.4424590000000  0.4247810000000 1.0
C      1  0.5328960000000  0.5462820000000  0.4244060000000 1.0
C      1  0.5313770000000  0.4461490000000  0.5739600000000 1.0
C      1  0.5557190000000  0.4288960000000  0.5339320000000 1.0
C      1  0.4530520000000  0.5784060000000  0.5475440000000 1.0
C      1  0.4558420000000  0.4254700000000  0.4683700000000 1.0
C      1  0.5103970000000  0.4666020000000  0.5724560000000 1.0
C      1  0.5683810000000  0.5131550000000  0.4757950000000 1.0
C      1  0.4752710000000  0.5774550000000  0.5287750000000 1.0
C      1  0.5143450000000  0.5233260000000  0.4253900000000 1.0
C      1  0.4893300000000  0.5263880000000  0.5794300000000 1.0
C      1  0.4889340000000  0.4627910000000  0.4160800000000 1.0
C      1  0.5687030000000  0.4918880000000  0.5357810000000 1.0
C      1  0.4333770000000  0.4842310000000  0.4673990000000 1.0
C      1  0.4291960000000  0.5302820000000  0.5253620000000 1.0
C      1  0.4772110000000  0.4277440000000  0.4880620000000 1.0
C      1  0.5360910000000  0.4287610000000  0.5122690000000 1.0
C      1  0.5210910000000  0.5768190000000  0.4789870000000 1.0
C      1  0.5052480000000  0.5699050000000  0.4556310000000 1.0
C      1  0.5710190000000  0.4714660000000  0.5151310000000 1.0
C      1  0.4693540000000  0.5077440000000  0.5684710000000 1.0
C      1  0.5146660000000  0.4278390000000  0.5320870000000 1.0
C      1  0.4938130000000  0.5743870000000  0.5515740000000 1.0
C      1  0.4974980000000  0.4287890000000  0.4666200000000 1.0
C      1  0.5618690000000  0.5347480000000  0.4947820000000 1.0
C      1  0.4352920000000  0.4645000000000  0.4884070000000 1.0
C      1  0.4236040000000  0.5576040000000  0.5175010000000 1.0
C      1  0.4682360000000  0.4836650000000  0.4223280000000 1.0
C      1  0.5373680000000  0.5053460000000  0.4301330000000 1.0
C      1  0.5304710000000  0.4876660000000  0.5751430000000 1.0
C      1  0.5572150000000  0.4671220000000  0.4908760000000 1.0
C      1  0.4871650000000  0.5481020000000  0.4584260000000 1.0
C      1  0.4707320000000  0.4864360000000  0.5498490000000 1.0
C      1  0.5486030000000  0.5356790000000  0.5197280000000 1.0
C      1  0.4567810000000  0.5221780000000  0.4865630000000 1.0
C      1  0.4538100000000  0.4646660000000  0.5095730000000 1.0
C      1  0.4916250000000  0.4444400000000  0.5330250000000 1.0
C      1  0.5224150000000  0.4420010000000  0.4658380000000 1.0
C      1  0.5147700000000  0.5556690000000  0.5495460000000 1.0
C      1  0.4695630000000  0.5056420000000  0.4408880000000 1.0
C      1  0.5330000000000  0.5122390000000  0.5611710000000 1.0
C      1  0.5423980000000  0.4831470000000  0.4470600000000 1.0
C      1  0.5572390000000  0.4874470000000  0.4711390000000 1.0
C      1  0.4894890000000  0.4649210000000  0.5531410000000 1.0
C      1  0.4826360000000  0.5657170000000  0.5042390000000 1.0
C      1  0.5519060000000  0.5144830000000  0.5393200000000 1.0
C      1  0.4458290000000  0.5126000000000  0.5126490000000 1.0
C      1  0.4522190000000  0.5056170000000  0.4641730000000 1.0
C      1  0.4894810000000  0.5258610000000  0.4399580000000 1.0
C      1  0.5145740000000  0.4580600000000  0.4189370000000 1.0
C      1  0.5139360000000  0.5322730000000  0.5659200000000 1.0
C      1  0.4737880000000  0.4440100000000  0.5111590000000 1.0
C      1  0.5127300000000  0.5691700000000  0.5036610000000 1.0
C      1  0.5392300000000  0.4445870000000  0.4888570000000 1.0
C      1  0.5278010000000  0.4592590000000  0.4433810000000 1.0
C      1  0.4553200000000  0.4878660000000  0.5254000000000 1.0
C      1  0.4725660000000  0.5462760000000  0.4834610000000 1.0
C      1  0.5279910000000  0.5554140000000  0.5243800000000 1.0
END
