TITL C-102474-7252-2 -0.0909931919473974 125000 -550.59707980645 0 0 80 (C2) n - 1
REM
REM in /rds/project/t2_vol4/rds-t2-cs072/BORA/CARBON/from-Arr/AIRSS/Generating-Clusters/GAP-ML-2020/Higher-Symm/SD-CG/HFTN-CG
REM
REM
REM
REM
REM
REM ./C.cell (b20cbc046b6831c77cfcea5457e17084)
REM AIRSS Version 0.9.1 bugfix July 2018 build 013d7b7c2542+ Fri, 06 Jul 2018 19:26:36 +0100
REM compiler GCC version 9.3.0
REM options -cpp -mtune=generic -march=x86-64 -g -O0
REM seed 10370511 -196905440 -120569832 1067168001 1131904026 -1949371457 1643821405 1515482807 -1227216012 1045572488 -895597668 -895965678 705150145 704278354 494843297 -121386362 1948911614 -1933375964 183340811 905803219 -1823240575 -715792870 1752130225 771522006 -1086972907 1268498204 200575525 115269868 -1412212526 1429710777 1250461585 1229792463 -587849971
REM
CELL 1.54180   50.00000   50.00000   50.00000   90.00000   90.00000   90.00000
LATT -1
SFAC C  
C      1  0.5211970000000  0.4983340000000  0.4298160000000 1.0
C      1  0.4787690000000  0.4989480000000  0.5701860000000 1.0
C      1  0.5243460000000  0.5572440000000  0.5530800000000 1.0
C      1  0.4770730000000  0.5577580000000  0.4468460000000 1.0
C      1  0.4699600000000  0.4851630000000  0.4742690000000 1.0
C      1  0.5296650000000  0.4844600000000  0.5257510000000 1.0
C      1  0.5047710000000  0.4902090000000  0.5742090000000 1.0
C      1  0.4949870000000  0.4902340000000  0.4258040000000 1.0
C      1  0.4981740000000  0.5431020000000  0.4066960000000 1.0
C      1  0.5028910000000  0.5431640000000  0.5932480000000 1.0
C      1  0.5114910000000  0.5253220000000  0.5172980000000 1.0
C      1  0.4891370000000  0.5255760000000  0.4826690000000 1.0
C      1  0.5113150000000  0.4462010000000  0.4452910000000 1.0
C      1  0.4873620000000  0.4465680000000  0.5547780000000 1.0
C      1  0.4728540000000  0.5100550000000  0.4332640000000 1.0
C      1  0.5273860000000  0.5094680000000  0.5667230000000 1.0
C      1  0.5485910000000  0.4437340000000  0.4746590000000 1.0
C      1  0.4500360000000  0.4449830000000  0.5254130000000 1.0
C      1  0.4965220000000  0.4279960000000  0.4630050000000 1.0
C      1  0.5017010000000  0.4279800000000  0.5370880000000 1.0
C      1  0.4441820000000  0.4978910000000  0.4342270000000 1.0
C      1  0.5557500000000  0.4966000000000  0.5657770000000 1.0
C      1  0.5296800000000  0.4330490000000  0.5392980000000 1.0
C      1  0.4686770000000  0.4337510000000  0.4607880000000 1.0
C      1  0.5173780000000  0.5213570000000  0.4867740000000 1.0
C      1  0.4831550000000  0.5217960000000  0.5131980000000 1.0
C      1  0.5345400000000  0.4245370000000  0.4908800000000 1.0
C      1  0.4636080000000  0.4254240000000  0.5092170000000 1.0
C      1  0.5244020000000  0.4922910000000  0.4793830000000 1.0
C      1  0.4754150000000  0.4929220000000  0.5206270000000 1.0
C      1  0.5471090000000  0.4855910000000  0.5014360000000 1.0
C      1  0.4525490000000  0.4867560000000  0.4985820000000 1.0
C      1  0.5453300000000  0.4350490000000  0.5157780000000 1.0
C      1  0.4530810000000  0.4361670000000  0.4843050000000 1.0
C      1  0.4620460000000  0.4874790000000  0.5483190000000 1.0
C      1  0.5376330000000  0.4864840000000  0.4516980000000 1.0
C      1  0.5057140000000  0.5646880000000  0.4472980000000 1.0
C      1  0.4958850000000  0.5648780000000  0.5526190000000 1.0
C      1  0.4412420000000  0.4581390000000  0.5006790000000 1.0
C      1  0.5577080000000  0.4567010000000  0.4993760000000 1.0
C      1  0.4395640000000  0.5267630000000  0.5237060000000 1.0
C      1  0.5610780000000  0.5252330000000  0.4762610000000 1.0
C      1  0.5276710000000  0.5113680000000  0.5356730000000 1.0
C      1  0.4726170000000  0.5120010000000  0.4643120000000 1.0
C      1  0.5483310000000  0.4732490000000  0.5509800000000 1.0
C      1  0.4510230000000  0.4743840000000  0.4490540000000 1.0
C      1  0.5071350000000  0.4195360000000  0.4881420000000 1.0
C      1  0.4908820000000  0.4197520000000  0.5119620000000 1.0
C      1  0.4771220000000  0.5377880000000  0.4245470000000 1.0
C      1  0.5238050000000  0.5373100000000  0.5754040000000 1.0
C      1  0.5316590000000  0.5829360000000  0.4900740000000 1.0
C      1  0.4703970000000  0.5837050000000  0.5098180000000 1.0
C      1  0.5557660000000  0.5250380000000  0.5291580000000 1.0
C      1  0.4448680000000  0.5263690000000  0.4708090000000 1.0
C      1  0.4660910000000  0.5246820000000  0.5677150000000 1.0
C      1  0.5345060000000  0.5237500000000  0.4322530000000 1.0
C      1  0.5394910000000  0.5442380000000  0.4817440000000 1.0
C      1  0.4616130000000  0.5452220000000  0.5181980000000 1.0
C      1  0.5182130000000  0.5466130000000  0.4264370000000 1.0
C      1  0.4829440000000  0.5471430000000  0.5735020000000 1.0
C      1  0.5536110000000  0.5129060000000  0.4515420000000 1.0
C      1  0.4467250000000  0.5142870000000  0.5484400000000 1.0
C      1  0.5330280000000  0.4525620000000  0.5602040000000 1.0
C      1  0.4658110000000  0.4533130000000  0.4398570000000 1.0
C      1  0.5255170000000  0.5686440000000  0.4672540000000 1.0
C      1  0.4761850000000  0.5692950000000  0.5326570000000 1.0
C      1  0.4387130000000  0.5133180000000  0.4983840000000 1.0
C      1  0.5615970000000  0.5118040000000  0.5016000000000 1.0
C      1  0.5446620000000  0.5540560000000  0.5322460000000 1.0
C      1  0.4566850000000  0.5551000000000  0.4676840000000 1.0
C      1  0.5001020000000  0.4772770000000  0.5139600000000 1.0
C      1  0.4993380000000  0.4772680000000  0.4860690000000 1.0
C      1  0.4612090000000  0.4569510000000  0.5481850000000 1.0
C      1  0.5377170000000  0.4559450000000  0.4518710000000 1.0
C      1  0.4919060000000  0.4624420000000  0.4316040000000 1.0
C      1  0.5071660000000  0.4623420000000  0.5684440000000 1.0
C      1  0.4291960000000  0.5158920000000  0.4488880000000 1.0
C      1  0.5711750000000  0.5142060000000  0.5510930000000 1.0
C      1  0.4588480000000  0.5641430000000  0.4939420000000 1.0
C      1  0.5427220000000  0.5631160000000  0.5059760000000 1.0
END
