TITL C-100381-532-5 -0.193304120541654 125000 -630.495702013015 0 0 94 (C1) n - 1
REM
REM in /rds/project/t2_vol4/rds-t2-cs072/BORA/CARBON/from-Arr/AIRSS/Generating-Clusters/GAP-ML-2020/Higher-Symm/SD-CG/HFTN-CG
REM
REM
REM
REM
REM
REM ./C.cell (b20cbc046b6831c77cfcea5457e17084)
REM AIRSS Version 0.9.1 bugfix July 2018 build 013d7b7c2542+ Fri, 06 Jul 2018 19:26:36 +0100
REM compiler GCC version 9.3.0
REM options -cpp -mtune=generic -march=x86-64 -g -O0
REM seed 1551785769 1588045124 1566175097 -1562977062 -1311635734 1201563829 -1641857404 -1793997491 -166305292 1545188530 -1578654683 -1843850345 -1577760835 603883893 -1986241444 1434007664 1903883808 1839875990 -648421805 193253569 -1106430109 -2100958020 1895001392 520722929 7063390 -1615573195 -706739154 1266737513 2007043581 1939483087 -920792649 -756859015 -985028104
REM
CELL 1.54180   50.00000   50.00000   50.00000   90.00000   90.00000   90.00000
LATT -1
SFAC C  
C      1  0.4542800000000  0.4877880000000  0.5206140000000 1.0
C      1  0.5064720000000  0.4841170000000  0.5514390000000 1.0
C      1  0.5508130000000  0.4850530000000  0.5109070000000 1.0
C      1  0.5267060000000  0.4859530000000  0.4557330000000 1.0
C      1  0.4672860000000  0.4858710000000  0.4614890000000 1.0
C      1  0.4530660000000  0.5171700000000  0.5205480000000 1.0
C      1  0.5063090000000  0.5136440000000  0.5509850000000 1.0
C      1  0.5510340000000  0.5144390000000  0.5112280000000 1.0
C      1  0.5278190000000  0.5149030000000  0.4567500000000 1.0
C      1  0.4669100000000  0.5157930000000  0.4622620000000 1.0
C      1  0.5674830000000  0.5157980000000  0.5371000000000 1.0
C      1  0.5568590000000  0.5227490000000  0.4487670000000 1.0
C      1  0.4691640000000  0.5178720000000  0.4314410000000 1.0
C      1  0.4239030000000  0.5170320000000  0.5085370000000 1.0
C      1  0.4858520000000  0.5166370000000  0.5738080000000 1.0
C      1  0.5672330000000  0.4837550000000  0.5372220000000 1.0
C      1  0.5550530000000  0.4738940000000  0.4484420000000 1.0
C      1  0.4694210000000  0.4853780000000  0.4304330000000 1.0
C      1  0.4253280000000  0.4844570000000  0.5084350000000 1.0
C      1  0.4854820000000  0.4833290000000  0.5749090000000 1.0
C      1  0.5145200000000  0.5256800000000  0.4799880000000 1.0
C      1  0.4860810000000  0.5292900000000  0.4808500000000 1.0
C      1  0.4787300000000  0.5303930000000  0.5111990000000 1.0
C      1  0.5038840000000  0.5267420000000  0.5251460000000 1.0
C      1  0.5247260000000  0.5268900000000  0.5062300000000 1.0
C      1  0.5137840000000  0.4734210000000  0.4788610000000 1.0
C      1  0.4850870000000  0.4711560000000  0.4815220000000 1.0
C      1  0.4797620000000  0.4787480000000  0.5094580000000 1.0
C      1  0.5039150000000  0.4705690000000  0.5244080000000 1.0
C      1  0.5252550000000  0.4724940000000  0.5046720000000 1.0
C      1  0.4167250000000  0.5148940000000  0.5374840000000 1.0
C      1  0.5104100000000  0.5147320000000  0.5908670000000 1.0
C      1  0.5907080000000  0.5138360000000  0.5173190000000 1.0
C      1  0.5471070000000  0.5158160000000  0.4224460000000 1.0
C      1  0.4393230000000  0.5155970000000  0.4323490000000 1.0
C      1  0.4171600000000  0.4863360000000  0.5373180000000 1.0
C      1  0.5104790000000  0.4859470000000  0.5915070000000 1.0
C      1  0.5904410000000  0.4851530000000  0.5176730000000 1.0
C      1  0.5462230000000  0.4870320000000  0.4215210000000 1.0
C      1  0.4396100000000  0.4870790000000  0.4319240000000 1.0
C      1  0.5745380000000  0.5265090000000  0.4944580000000 1.0
C      1  0.5184140000000  0.5296300000000  0.4285120000000 1.0
C      1  0.4365490000000  0.5279820000000  0.4604310000000 1.0
C      1  0.4423810000000  0.5284440000000  0.5476210000000 1.0
C      1  0.5282580000000  0.5270360000000  0.5690910000000 1.0
C      1  0.5738780000000  0.4726770000000  0.4947490000000 1.0
C      1  0.5184950000000  0.4750120000000  0.4254010000000 1.0
C      1  0.4380560000000  0.4734020000000  0.4592140000000 1.0
C      1  0.4429210000000  0.4738480000000  0.5477640000000 1.0
C      1  0.5284070000000  0.4727830000000  0.5702160000000 1.0
C      1  0.5239030000000  0.4431870000000  0.5627070000000 1.0
C      1  0.5646920000000  0.4422980000000  0.4957580000000 1.0
C      1  0.5189240000000  0.4465250000000  0.4346190000000 1.0
C      1  0.4465650000000  0.4439310000000  0.4622250000000 1.0
C      1  0.4484430000000  0.4447610000000  0.5403970000000 1.0
C      1  0.5251440000000  0.5568430000000  0.5601520000000 1.0
C      1  0.5665580000000  0.5571040000000  0.4966870000000 1.0
C      1  0.5135710000000  0.5586230000000  0.4399630000000 1.0
C      1  0.4410640000000  0.5583790000000  0.4648990000000 1.0
C      1  0.4482790000000  0.5590500000000  0.5412060000000 1.0
C      1  0.4685010000000  0.4360700000000  0.4462050000000 1.0
C      1  0.4384380000000  0.4371620000000  0.5151830000000 1.0
C      1  0.4968340000000  0.4362010000000  0.5631880000000 1.0
C      1  0.5541410000000  0.4352170000000  0.5210220000000 1.0
C      1  0.5454290000000  0.4449130000000  0.4492890000000 1.0
C      1  0.4624110000000  0.5687550000000  0.4483370000000 1.0
C      1  0.4358280000000  0.5685100000000  0.5170160000000 1.0
C      1  0.4982560000000  0.5652160000000  0.5557830000000 1.0
C      1  0.5608650000000  0.5646600000000  0.5231960000000 1.0
C      1  0.5334800000000  0.5683790000000  0.4579200000000 1.0
C      1  0.4766420000000  0.4365160000000  0.5447750000000 1.0
C      1  0.5425520000000  0.4346860000000  0.5434350000000 1.0
C      1  0.5558870000000  0.4330430000000  0.4712630000000 1.0
C      1  0.4931510000000  0.4369060000000  0.4392450000000 1.0
C      1  0.4509480000000  0.4372320000000  0.4905500000000 1.0
C      1  0.4735120000000  0.5669820000000  0.5509490000000 1.0
C      1  0.5467810000000  0.5652460000000  0.5444520000000 1.0
C      1  0.5527920000000  0.5680900000000  0.4746290000000 1.0
C      1  0.4869110000000  0.5675150000000  0.4412830000000 1.0
C      1  0.4341000000000  0.5675540000000  0.4913850000000 1.0
C      1  0.4948070000000  0.5169240000000  0.4174900000000 1.0
C      1  0.4191280000000  0.5140710000000  0.4798650000000 1.0
C      1  0.4570880000000  0.5152050000000  0.5697570000000 1.0
C      1  0.5544450000000  0.5140180000000  0.5634710000000 1.0
C      1  0.5749190000000  0.5129620000000  0.4677930000000 1.0
C      1  0.4944780000000  0.4883180000000  0.4158710000000 1.0
C      1  0.4204700000000  0.4857110000000  0.4797620000000 1.0
C      1  0.4569930000000  0.4866560000000  0.5702340000000 1.0
C      1  0.5543370000000  0.4855500000000  0.5635260000000 1.0
C      1  0.5744400000000  0.4846860000000  0.4677600000000 1.0
C      1  0.4917870000000  0.5782590000000  0.4969450000000 1.0
C      1  0.4787800000000  0.4439690000000  0.4948790000000 1.0
C      1  0.4834160000000  0.5546380000000  0.4959820000000 1.0
C      1  0.4916870000000  0.4429360000000  0.5206700000000 1.0
END
