TITL C-100376-465-2 0.498258694562398 125000 -730.249532508826 0 0 104 (C2v) n - 1
REM
REM in /rds/project/t2_vol4/rds-t2-cs072/BORA/CARBON/from-Arr/AIRSS/Generating-Clusters/GAP-ML-2020/Higher-Symm/SD-CG/HFTN-CG
REM
REM
REM
REM
REM
REM ./C.cell (b20cbc046b6831c77cfcea5457e17084)
REM AIRSS Version 0.9.1 bugfix July 2018 build 013d7b7c2542+ Fri, 06 Jul 2018 19:26:36 +0100
REM compiler GCC version 9.3.0
REM options -cpp -mtune=generic -march=x86-64 -g -O0
REM seed -1201135349 1827235687 1862130234 579369883 -799556365 502734688 298872864 -1416419615 -53213720 669397694 210918302 918960141 -984952621 -95011012 1737828142 926206733 -1912624885 1191934352 -190136254 -847705863 -327730897 1893775207 -1962836583 1680632447 278581991 1661522487 1338914713 1966229929 225118188 -544815885 1658921770 346132678 232070321
REM
CELL 1.54180   50.00000   50.00000   50.00000   90.00000   90.00000   90.00000
LATT -1
SFAC C  
C      1  0.5771090000000  0.4854170000000  0.5164190000000 1.0
C      1  0.4228890000000  0.5145770000000  0.5164180000000 1.0
C      1  0.4228890000000  0.4854200000000  0.5164120000000 1.0
C      1  0.5771100000000  0.5145730000000  0.5164250000000 1.0
C      1  0.5139890000000  0.4764400000000  0.5011230000000 1.0
C      1  0.4860110000000  0.5235600000000  0.5011310000000 1.0
C      1  0.4860100000000  0.4764400000000  0.5011210000000 1.0
C      1  0.5139900000000  0.5235590000000  0.5011320000000 1.0
C      1  0.4479450000000  0.5552340000000  0.5209130000000 1.0
C      1  0.5520540000000  0.4447570000000  0.5208950000000 1.0
C      1  0.5520560000000  0.5552320000000  0.5209180000000 1.0
C      1  0.4479420000000  0.4447590000000  0.5208900000000 1.0
C      1  0.4855380000000  0.4837260000000  0.4512340000000 1.0
C      1  0.5144660000000  0.5162940000000  0.4512420000000 1.0
C      1  0.5144650000000  0.4837250000000  0.4512350000000 1.0
C      1  0.4855390000000  0.5162950000000  0.4512410000000 1.0
C      1  0.4854950000000  0.4323120000000  0.4612620000000 1.0
C      1  0.5145090000000  0.5677040000000  0.4612910000000 1.0
C      1  0.5145060000000  0.4323110000000  0.4612630000000 1.0
C      1  0.4854970000000  0.5677040000000  0.4612890000000 1.0
C      1  0.5714390000000  0.4719180000000  0.4500070000000 1.0
C      1  0.4285660000000  0.5281020000000  0.4500120000000 1.0
C      1  0.4285640000000  0.4719220000000  0.4500000000000 1.0
C      1  0.5714400000000  0.5280990000000  0.4500180000000 1.0
C      1  0.4218110000000  0.4704920000000  0.4933240000000 1.0
C      1  0.5781890000000  0.5295110000000  0.4933430000000 1.0
C      1  0.5781880000000  0.4704880000000  0.4933310000000 1.0
C      1  0.4218130000000  0.5295150000000  0.4933360000000 1.0
C      1  0.5268210000000  0.4860150000000  0.4781320000000 1.0
C      1  0.4731810000000  0.5139940000000  0.4781350000000 1.0
C      1  0.4731810000000  0.4860160000000  0.4781290000000 1.0
C      1  0.5268210000000  0.5139930000000  0.4781380000000 1.0
C      1  0.5568680000000  0.4440520000000  0.4906180000000 1.0
C      1  0.4431330000000  0.5559510000000  0.4906360000000 1.0
C      1  0.4431300000000  0.4440550000000  0.4906130000000 1.0
C      1  0.5568710000000  0.5559490000000  0.4906410000000 1.0
C      1  0.5756030000000  0.5130420000000  0.5794810000000 1.0
C      1  0.4243900000000  0.4869260000000  0.5794680000000 1.0
C      1  0.4243910000000  0.5130450000000  0.5794740000000 1.0
C      1  0.5756020000000  0.4869230000000  0.5794750000000 1.0
C      1  0.5296350000000  0.4847860000000  0.5246850000000 1.0
C      1  0.4703630000000  0.5152040000000  0.5246880000000 1.0
C      1  0.4703620000000  0.4847880000000  0.5246820000000 1.0
C      1  0.5296360000000  0.5152020000000  0.5246910000000 1.0
C      1  0.4432830000000  0.4723470000000  0.5635670000000 1.0
C      1  0.5567120000000  0.5276270000000  0.5635840000000 1.0
C      1  0.5567100000000  0.4723440000000  0.5635720000000 1.0
C      1  0.4432840000000  0.5276300000000  0.5635790000000 1.0
C      1  0.5144910000000  0.4850950000000  0.4068170000000 1.0
C      1  0.4855180000000  0.5149430000000  0.4068220000000 1.0
C      1  0.4855170000000  0.4850950000000  0.4068160000000 1.0
C      1  0.5144910000000  0.5149430000000  0.4068230000000 1.0
C      1  0.5305910000000  0.4725920000000  0.4282910000000 1.0
C      1  0.4694150000000  0.5274370000000  0.4282990000000 1.0
C      1  0.4694140000000  0.4725930000000  0.4282880000000 1.0
C      1  0.5305930000000  0.5274360000000  0.4283020000000 1.0
C      1  0.5569450000000  0.5505330000000  0.4599710000000 1.0
C      1  0.4430590000000  0.4494830000000  0.4599450000000 1.0
C      1  0.4430610000000  0.5505350000000  0.4599650000000 1.0
C      1  0.5569430000000  0.4494810000000  0.4599500000000 1.0
C      1  0.5281810000000  0.4331630000000  0.5320770000000 1.0
C      1  0.4718160000000  0.5668240000000  0.5321020000000 1.0
C      1  0.4718130000000  0.4331640000000  0.5320750000000 1.0
C      1  0.5281840000000  0.5668230000000  0.5321050000000 1.0
C      1  0.5284490000000  0.5731480000000  0.4858770000000 1.0
C      1  0.4715530000000  0.4268580000000  0.4858450000000 1.0
C      1  0.4715560000000  0.5731490000000  0.4858750000000 1.0
C      1  0.5284460000000  0.4268570000000  0.4858470000000 1.0
C      1  0.5842230000000  0.4857610000000  0.4706910000000 1.0
C      1  0.4157800000000  0.5142510000000  0.4706890000000 1.0
C      1  0.4157790000000  0.4857640000000  0.4706840000000 1.0
C      1  0.5842240000000  0.5142480000000  0.4706970000000 1.0
C      1  0.5331570000000  0.4467560000000  0.4449550000000 1.0
C      1  0.4668480000000  0.5532670000000  0.4449740000000 1.0
C      1  0.4668450000000  0.4467570000000  0.4449520000000 1.0
C      1  0.5331600000000  0.5532650000000  0.4449770000000 1.0
C      1  0.5278190000000  0.5323930000000  0.5704310000000 1.0
C      1  0.4721750000000  0.4675780000000  0.5704150000000 1.0
C      1  0.4721760000000  0.5323940000000  0.5704290000000 1.0
C      1  0.5278170000000  0.4675770000000  0.5704180000000 1.0
C      1  0.4856970000000  0.4215320000000  0.5099410000000 1.0
C      1  0.5143020000000  0.5784640000000  0.5099750000000 1.0
C      1  0.5142990000000  0.4215310000000  0.5099430000000 1.0
C      1  0.4857000000000  0.5784650000000  0.5099740000000 1.0
C      1  0.4855580000000  0.5161860000000  0.5497820000000 1.0
C      1  0.5144370000000  0.4837940000000  0.5497770000000 1.0
C      1  0.5144380000000  0.5161850000000  0.5497840000000 1.0
C      1  0.4855570000000  0.4837950000000  0.5497760000000 1.0
C      1  0.5581650000000  0.5291210000000  0.5336630000000 1.0
C      1  0.4418320000000  0.4708650000000  0.5336460000000 1.0
C      1  0.4418340000000  0.5291240000000  0.5336580000000 1.0
C      1  0.5581630000000  0.4708620000000  0.5336510000000 1.0
C      1  0.4429140000000  0.5141240000000  0.4303250000000 1.0
C      1  0.5570920000000  0.4859040000000  0.4303250000000 1.0
C      1  0.5570920000000  0.5141220000000  0.4303300000000 1.0
C      1  0.4429140000000  0.4859070000000  0.4303200000000 1.0
C      1  0.4859520000000  0.5153860000000  0.5912490000000 1.0
C      1  0.5140390000000  0.4845760000000  0.5912440000000 1.0
C      1  0.5140400000000  0.5153860000000  0.5912510000000 1.0
C      1  0.4859520000000  0.4845770000000  0.5912430000000 1.0
C      1  0.4854710000000  0.5559740000000  0.5551430000000 1.0
C      1  0.5145240000000  0.4440030000000  0.5551210000000 1.0
C      1  0.5145270000000  0.5559740000000  0.5551440000000 1.0
C      1  0.4854680000000  0.4440040000000  0.5551200000000 1.0
END
