TITL C-101424-5138-5 -0.0860481664510016 125000 -58.6844533705478 0 0 10 (C1) n - 1
REM
REM in /rds/project/t2_vol4/rds-t2-cs072/BORA/CARBON/from-Arr/AIRSS/Generating-Clusters/GAP-ML-2020/Higher-Symm/SD-CG/HFTN-CG
REM
REM
REM
REM
REM
REM ./C.cell (b20cbc046b6831c77cfcea5457e17084)
REM AIRSS Version 0.9.1 bugfix July 2018 build 013d7b7c2542+ Fri, 06 Jul 2018 19:26:36 +0100
REM compiler GCC version 9.3.0
REM options -cpp -mtune=generic -march=x86-64 -g -O0
REM seed 1331389999 -1672863266 918516882 -250549031 -234793730 -1914147543 1341272678 -648752739 -507644831 1431370401 -196737399 -66072021 968358303 -1097885632 -116775682 2106875704 -940489645 -804660731 498929604 -1041277954 -1884287264 186742380 296991158 -612604581 -1167762095 -1744302274 -1935580741 -48354454 965008900 1115691747 184844195 1410636579 1947551110
REM
CELL 1.54180   50.00000   50.00000   50.00000   90.00000   90.00000   90.00000
LATT -1
SFAC C  
C      1  0.4746960000000  0.4868360000000  0.5075250000000 1.0
C      1  0.4598710000000  0.5033440000000  0.4932720000000 1.0
C      1  0.5064400000000  0.4518340000000  0.5024390000000 1.0
C      1  0.4842570000000  0.4629210000000  0.5079030000000 1.0
C      1  0.5049510000000  0.5316860000000  0.4907610000000 1.0
C      1  0.5255460000000  0.5266300000000  0.5355660000000 1.0
C      1  0.5093590000000  0.5068520000000  0.4735760000000 1.0
C      1  0.5284740000000  0.4975510000000  0.4919880000000 1.0
C      1  0.4840320000000  0.5135600000000  0.4860870000000 1.0
C      1  0.5223740000000  0.5187860000000  0.5108820000000 1.0
END
