TITL C-105241-9107-10 0.0769632582449934 125000 -178.286744445305 0 0 27 (C2) n - 1
REM
REM in /rds/project/t2_vol4/rds-t2-cs072/BORA/CARBON/from-Arr/AIRSS/Generating-Clusters/GAP-ML-2020/Higher-Symm/SD-CG/HFTN-CG
REM
REM
REM
REM
REM
REM ./C.cell (b20cbc046b6831c77cfcea5457e17084)
REM AIRSS Version 0.9.1 bugfix July 2018 build 013d7b7c2542+ Fri, 06 Jul 2018 19:26:36 +0100
REM compiler GCC version 9.3.0
REM options -cpp -mtune=generic -march=x86-64 -g -O0
REM seed -1255680348 491389282 -1245039390 935492774 -356334808 -1566306634 1061673845 -1983693849 1072106497 -821589269 1521714804 -1872797802 -1169611929 -1487027671 -508788093 298759565 -2078069691 1379600751 -1566205146 -814496607 -2095115648 -1370428319 602969758 1348333594 387620092 856387070 2088703090 1045205396 -1765316435 -449097870 -225835763 -623496813 326255882
REM
CELL 1.54180   50.00000   50.00000   50.00000   90.00000   90.00000   90.00000
LATT -1
SFAC C  
C      1  0.4885140000000  0.4787070000000  0.4766910000000 1.0
C      1  0.4786820000000  0.5192880000000  0.5190560000000 1.0
C      1  0.4362080000000  0.5180600000000  0.4597890000000 1.0
C      1  0.4326420000000  0.4699220000000  0.5227270000000 1.0
C      1  0.5116590000000  0.4897440000000  0.4636780000000 1.0
C      1  0.4993280000000  0.5127100000000  0.5379600000000 1.0
C      1  0.5252790000000  0.5481450000000  0.4837930000000 1.0
C      1  0.5290190000000  0.4587190000000  0.5236710000000 1.0
C      1  0.4564570000000  0.4736580000000  0.5123100000000 1.0
C      1  0.4567190000000  0.5188380000000  0.4761690000000 1.0
C      1  0.5234150000000  0.5281440000000  0.5287290000000 1.0
C      1  0.5350540000000  0.4791440000000  0.4792960000000 1.0
C      1  0.4851670000000  0.5439560000000  0.5064670000000 1.0
C      1  0.4962300000000  0.4554850000000  0.4911890000000 1.0
C      1  0.5472710000000  0.5033190000000  0.4916370000000 1.0
C      1  0.5429700000000  0.5072050000000  0.5206620000000 1.0
C      1  0.4779200000000  0.5409330000000  0.4787300000000 1.0
C      1  0.4815290000000  0.4562730000000  0.5159740000000 1.0
C      1  0.5252620000000  0.4574670000000  0.4958360000000 1.0
C      1  0.5142000000000  0.5478860000000  0.5096320000000 1.0
C      1  0.5167170000000  0.5171390000000  0.4568170000000 1.0
C      1  0.5077350000000  0.4866860000000  0.5466320000000 1.0
C      1  0.5391010000000  0.5251510000000  0.4751310000000 1.0
C      1  0.5352580000000  0.4837550000000  0.5350310000000 1.0
C      1  0.5003890000000  0.4601130000000  0.5368900000000 1.0
C      1  0.5019680000000  0.5414630000000  0.4635860000000 1.0
C      1  0.4687690000000  0.4974880000000  0.4958780000000 1.0
END
