TITL C-102466-7319-7 -31.1025690338343 125000 -474.121391580326 0 0 69 (C1) n - 1
REM
REM in /rds/project/t2_vol4/rds-t2-cs072/BORA/CARBON/from-Arr/AIRSS/Generating-Clusters/GAP-ML-2020/Higher-Symm/SD-CG/HFTN-CG
REM
REM
REM
REM
REM
REM ./C.cell (b20cbc046b6831c77cfcea5457e17084)
REM AIRSS Version 0.9.1 bugfix July 2018 build 013d7b7c2542+ Fri, 06 Jul 2018 19:26:36 +0100
REM compiler GCC version 9.3.0
REM options -cpp -mtune=generic -march=x86-64 -g -O0
REM seed 1059918470 -858968851 -100797005 -974422728 794166541 1202236550 -1250319673 -993662744 -1113557269 642134435 -1940232130 16487187 -1733698641 -1641814128 868399980 -798772839 -1910593307 249659928 -1028316027 1831253275 -1524021271 -1286988072 -80363658 1510480005 -606043363 -1914860462 1993889480 -1731342862 -1869230396 -105306470 10067 857314546 1955488926
REM
CELL 1.54180   50.00000   50.00000   50.00000   90.00000   90.00000   90.00000
LATT -1
SFAC C  
C      1  0.4599260000000  0.5497200000000  0.5278660000000 1.0
C      1  0.4598550000000  0.5497560000000  0.4730140000000 1.0
C      1  0.4687650000000  0.4530090000000  0.4561310000000 1.0
C      1  0.4688560000000  0.4529380000000  0.5446370000000 1.0
C      1  0.4896350000000  0.5011330000000  0.5146400000000 1.0
C      1  0.4895350000000  0.5011700000000  0.4863030000000 1.0
C      1  0.5725560000000  0.5331890000000  0.5152390000000 1.0
C      1  0.5725120000000  0.5332060000000  0.4855810000000 1.0
C      1  0.4517130000000  0.4454470000000  0.5227740000000 1.0
C      1  0.4516500000000  0.4454730000000  0.4780060000000 1.0
C      1  0.4574320000000  0.4770160000000  0.5554240000000 1.0
C      1  0.4573220000000  0.4771000000000  0.4453950000000 1.0
C      1  0.4357470000000  0.4688770000000  0.5151140000000 1.0
C      1  0.4357080000000  0.4688910000000  0.4857280000000 1.0
C      1  0.4352410000000  0.5168530000000  0.5361440000000 1.0
C      1  0.4351540000000  0.5168960000000  0.4647540000000 1.0
C      1  0.5029630000000  0.5224270000000  0.5263550000000 1.0
C      1  0.5029240000000  0.5224580000000  0.4745550000000 1.0
C      1  0.5332460000000  0.5554690000000  0.5270660000000 1.0
C      1  0.5331670000000  0.5555150000000  0.4738710000000 1.0
C      1  0.4987900000000  0.5634090000000  0.5598920000000 1.0
C      1  0.4986890000000  0.5635730000000  0.4409340000000 1.0
C      1  0.5407310000000  0.5104950000000  0.4449860000000 1.0
C      1  0.5409240000000  0.5103670000000  0.5559270000000 1.0
C      1  0.5364380000000  0.4227680000000  0.4852250000000 1.0
C      1  0.5364620000000  0.4227360000000  0.5153920000000 1.0
C      1  0.4526890000000  0.5339440000000  0.5520550000000 1.0
C      1  0.4525530000000  0.5340160000000  0.4488180000000 1.0
C      1  0.4984350000000  0.4524180000000  0.5368170000000 1.0
C      1  0.4983480000000  0.4524850000000  0.4639240000000 1.0
C      1  0.4877060000000  0.5496550000000  0.5162400000000 1.0
C      1  0.4876670000000  0.5496610000000  0.4845640000000 1.0
C      1  0.5575060000000  0.4833290000000  0.4693960000000 1.0
C      1  0.5575930000000  0.4832600000000  0.5313310000000 1.0
C      1  0.4731250000000  0.4954850000000  0.4305700000000 1.0
C      1  0.4732750000000  0.4953660000000  0.5702330000000 1.0
C      1  0.5575000000000  0.4353640000000  0.4733170000000 1.0
C      1  0.5575340000000  0.4353120000000  0.5272940000000 1.0
C      1  0.4957020000000  0.5385340000000  0.4306870000000 1.0
C      1  0.4958710000000  0.5383970000000  0.5702080000000 1.0
C      1  0.5583050000000  0.5599340000000  0.4856950000000 1.0
C      1  0.5583520000000  0.5599140000000  0.5151680000000 1.0
C      1  0.5144770000000  0.4688170000000  0.4429550000000 1.0
C      1  0.5146150000000  0.4686900000000  0.5578090000000 1.0
C      1  0.5131090000000  0.5167490000000  0.5593780000000 1.0
C      1  0.5128540000000  0.5169210000000  0.4417810000000 1.0
C      1  0.5076150000000  0.5661350000000  0.4667200000000 1.0
C      1  0.5076640000000  0.5661050000000  0.5341190000000 1.0
C      1  0.4376380000000  0.4882760000000  0.5369800000000 1.0
C      1  0.4375460000000  0.4883190000000  0.4638810000000 1.0
C      1  0.5405860000000  0.4811740000000  0.5541430000000 1.0
C      1  0.5404420000000  0.4813110000000  0.4466240000000 1.0
C      1  0.5539780000000  0.5133100000000  0.5287460000000 1.0
C      1  0.5538880000000  0.5133640000000  0.4721110000000 1.0
C      1  0.5005200000000  0.4911710000000  0.4325620000000 1.0
C      1  0.5006850000000  0.4910030000000  0.5683280000000 1.0
C      1  0.5293180000000  0.5277960000000  0.4854910000000 1.0
C      1  0.5293640000000  0.5277590000000  0.5154720000000 1.0
C      1  0.5087850000000  0.4319100000000  0.4847750000000 1.0
C      1  0.5088170000000  0.4318830000000  0.5159080000000 1.0
C      1  0.4377390000000  0.5367120000000  0.4866320000000 1.0
C      1  0.4377670000000  0.5367040000000  0.5142850000000 1.0
C      1  0.4975620000000  0.4733770000000  0.5144090000000 1.0
C      1  0.4974080000000  0.4733920000000  0.4863560000000 1.0
C      1  0.4702400000000  0.5242640000000  0.4304770000000 1.0
C      1  0.4704110000000  0.5241230000000  0.5703200000000 1.0
C      1  0.5613430000000  0.4613210000000  0.4859720000000 1.0
C      1  0.5613940000000  0.4612890000000  0.5146960000000 1.0
C      1  0.4579260000000  0.4307240000000  0.5003710000000 1.0
END
