TITL C-100363-5731-13 -0.00586592420190833 125000 -212.060926214761 0 0 32 (C2) n - 1
REM
REM in /rds/project/t2_vol4/rds-t2-cs072/BORA/CARBON/from-Arr/AIRSS/Generating-Clusters/GAP-ML-2020/Higher-Symm/SD-CG/HFTN-CG
REM
REM
REM
REM
REM
REM ./C.cell (b20cbc046b6831c77cfcea5457e17084)
REM AIRSS Version 0.9.1 bugfix July 2018 build 013d7b7c2542+ Fri, 06 Jul 2018 19:26:36 +0100
REM compiler GCC version 9.3.0
REM options -cpp -mtune=generic -march=x86-64 -g -O0
REM seed -1655942549 633966868 1187210196 922413301 -338102113 -290699433 970431161 -1651644694 296353668 2063621201 -1164572672 -1937239557 1674373714 -2130164476 107315877 1045062884 -1283376250 1870348717 -1305625124 -1321465202 1339335480 -885537468 -528154319 -1795943856 -1133326932 -384206994 -2053383233 -1161255187 851834126 394303364 -1856523509 195136152 472214037
REM
CELL 1.54180   50.00000   50.00000   50.00000   90.00000   90.00000   90.00000
LATT -1
SFAC C  
C      1  0.5159870000000  0.5448590000000  0.5333870000000 1.0
C      1  0.5039760000000  0.4543490000000  0.5247120000000 1.0
C      1  0.5259330000000  0.5064620000000  0.4515840000000 1.0
C      1  0.4797910000000  0.4545940000000  0.5194080000000 1.0
C      1  0.4914410000000  0.5432330000000  0.5359130000000 1.0
C      1  0.5018190000000  0.5119400000000  0.4503280000000 1.0
C      1  0.4397440000000  0.5220220000000  0.4923290000000 1.0
C      1  0.4402980000000  0.5037940000000  0.5345410000000 1.0
C      1  0.4400820000000  0.4806500000000  0.4701550000000 1.0
C      1  0.5654320000000  0.4646580000000  0.4886490000000 1.0
C      1  0.5667510000000  0.4964880000000  0.5231250000000 1.0
C      1  0.5664390000000  0.5327840000000  0.4948940000000 1.0
C      1  0.4748340000000  0.5141910000000  0.4532850000000 1.0
C      1  0.4649020000000  0.5359600000000  0.5382130000000 1.0
C      1  0.4554490000000  0.4610340000000  0.5075810000000 1.0
C      1  0.5502250000000  0.4962210000000  0.4604690000000 1.0
C      1  0.5310310000000  0.4573220000000  0.5257980000000 1.0
C      1  0.5424280000000  0.5448170000000  0.5254260000000 1.0
C      1  0.4561550000000  0.5124850000000  0.5552510000000 1.0
C      1  0.4495370000000  0.4565570000000  0.4796290000000 1.0
C      1  0.4531590000000  0.5250490000000  0.4675710000000 1.0
C      1  0.5530680000000  0.4735090000000  0.5324420000000 1.0
C      1  0.5510000000000  0.5552750000000  0.4983150000000 1.0
C      1  0.5556980000000  0.4679450000000  0.4630740000000 1.0
C      1  0.4510390000000  0.4995280000000  0.4522760000000 1.0
C      1  0.4443510000000  0.5293760000000  0.5193920000000 1.0
C      1  0.4377590000000  0.4824390000000  0.5160930000000 1.0
C      1  0.5683800000000  0.5095310000000  0.4788210000000 1.0
C      1  0.5545610000000  0.4522700000000  0.5115510000000 1.0
C      1  0.5626200000000  0.5246040000000  0.5235100000000 1.0
C      1  0.5755100000000  0.4898170000000  0.4972990000000 1.0
C      1  0.4305400000000  0.4955000000000  0.4924670000000 1.0
END
