TITL C-100377-404-7 0.0686376502225397 125000 -602.626523238033 0 0 88 (C2) n - 1
REM
REM in /rds/project/t2_vol4/rds-t2-cs072/BORA/CARBON/from-Arr/AIRSS/Generating-Clusters/GAP-ML-2020/Higher-Symm/SD-CG/HFTN-CG
REM
REM
REM
REM
REM
REM ./C.cell (b20cbc046b6831c77cfcea5457e17084)
REM AIRSS Version 0.9.1 bugfix July 2018 build 013d7b7c2542+ Fri, 06 Jul 2018 19:26:36 +0100
REM compiler GCC version 9.3.0
REM options -cpp -mtune=generic -march=x86-64 -g -O0
REM seed 663002918 -1698010296 1263983793 -92119648 -1176689253 -898495902 -907986511 1462195886 -111998009 -1601999286 1222014187 -1547539852 1610624008 1244365949 1549855025 -1014744716 612388045 1104243331 1396638210 -1037989084 -1769050512 -713467741 -531627178 178116624 -1679508859 -1482367670 -1324582704 1857520102 -1273714580 -1736469567 1370554007 392484738 -1064047250
REM
CELL 1.54180   50.00000   50.00000   50.00000   90.00000   90.00000   90.00000
LATT -1
SFAC C  
C      1  0.5153960000000  0.4848310000000  0.5157380000000 1.0
C      1  0.4833220000000  0.4840280000000  0.5142970000000 1.0
C      1  0.4864910000000  0.4751120000000  0.4859850000000 1.0
C      1  0.5147550000000  0.4839550000000  0.4836030000000 1.0
C      1  0.4836110000000  0.5160450000000  0.5147630000000 1.0
C      1  0.5157450000000  0.5151650000000  0.5153930000000 1.0
C      1  0.5142930000000  0.5159720000000  0.4833190000000 1.0
C      1  0.4859840000000  0.5248920000000  0.4865000000000 1.0
C      1  0.5145180000000  0.5017930000000  0.4121540000000 1.0
C      1  0.5871430000000  0.5008740000000  0.5140120000000 1.0
C      1  0.4856950000000  0.5017260000000  0.5872420000000 1.0
C      1  0.4127960000000  0.5005550000000  0.4861190000000 1.0
C      1  0.4860890000000  0.4994610000000  0.4128010000000 1.0
C      1  0.4121590000000  0.4982180000000  0.5145490000000 1.0
C      1  0.5140430000000  0.4991100000000  0.5871380000000 1.0
C      1  0.5872370000000  0.4982630000000  0.4856640000000 1.0
C      1  0.5261430000000  0.4733640000000  0.5842900000000 1.0
C      1  0.4156540000000  0.4724780000000  0.5267390000000 1.0
C      1  0.4744780000000  0.4734870000000  0.4161330000000 1.0
C      1  0.5839600000000  0.4725640000000  0.4735420000000 1.0
C      1  0.4735750000000  0.5274270000000  0.5839730000000 1.0
C      1  0.5843040000000  0.5266190000000  0.5261170000000 1.0
C      1  0.5267140000000  0.5275310000000  0.4156480000000 1.0
C      1  0.4161280000000  0.5265300000000  0.4745110000000 1.0
C      1  0.4985300000000  0.4440750000000  0.4327690000000 1.0
C      1  0.5650300000000  0.4446020000000  0.4976410000000 1.0
C      1  0.5018300000000  0.4448260000000  0.5669730000000 1.0
C      1  0.4339450000000  0.4439950000000  0.5026590000000 1.0
C      1  0.5026440000000  0.5560150000000  0.4339520000000 1.0
C      1  0.4327780000000  0.5559350000000  0.4985620000000 1.0
C      1  0.4976720000000  0.5553880000000  0.5650390000000 1.0
C      1  0.5669820000000  0.5551630000000  0.5018150000000 1.0
C      1  0.5616290000000  0.5288560000000  0.5433450000000 1.0
C      1  0.4558340000000  0.5289940000000  0.5616590000000 1.0
C      1  0.4387920000000  0.5291640000000  0.4573750000000 1.0
C      1  0.5442950000000  0.5292390000000  0.4381020000000 1.0
C      1  0.4381130000000  0.4707640000000  0.5443120000000 1.0
C      1  0.5433620000000  0.4711280000000  0.5616100000000 1.0
C      1  0.5616390000000  0.4710030000000  0.4558080000000 1.0
C      1  0.4573490000000  0.4708510000000  0.4388030000000 1.0
C      1  0.5917580000000  0.5504710000000  0.5147490000000 1.0
C      1  0.4852720000000  0.5514450000000  0.5902720000000 1.0
C      1  0.4081070000000  0.5502620000000  0.4857810000000 1.0
C      1  0.5152160000000  0.5515240000000  0.4088820000000 1.0
C      1  0.4088790000000  0.4484870000000  0.5152400000000 1.0
C      1  0.5147730000000  0.4495130000000  0.5917450000000 1.0
C      1  0.5902590000000  0.4485440000000  0.4852320000000 1.0
C      1  0.4857410000000  0.4497540000000  0.4081050000000 1.0
C      1  0.4676520000000  0.4596930000000  0.4663460000000 1.0
C      1  0.5339130000000  0.4623500000000  0.4662940000000 1.0
C      1  0.5322710000000  0.4624880000000  0.5339960000000 1.0
C      1  0.4658160000000  0.4622630000000  0.5335520000000 1.0
C      1  0.5335460000000  0.5377370000000  0.4658100000000 1.0
C      1  0.4663410000000  0.5403170000000  0.4676700000000 1.0
C      1  0.4663120000000  0.5376500000000  0.5339310000000 1.0
C      1  0.5340130000000  0.5375020000000  0.5322650000000 1.0
C      1  0.5219740000000  0.4588960000000  0.4379990000000 1.0
C      1  0.5604390000000  0.4587040000000  0.5215210000000 1.0
C      1  0.4781920000000  0.4590930000000  0.5615630000000 1.0
C      1  0.4391530000000  0.4578280000000  0.4785870000000 1.0
C      1  0.4785720000000  0.5421850000000  0.4391670000000 1.0
C      1  0.4380130000000  0.5411100000000  0.5220020000000 1.0
C      1  0.5215480000000  0.5412830000000  0.5604380000000 1.0
C      1  0.5615610000000  0.5409010000000  0.4781770000000 1.0
C      1  0.5152640000000  0.4411320000000  0.5432370000000 1.0
C      1  0.4574430000000  0.4402710000000  0.5166840000000 1.0
C      1  0.4845340000000  0.4386320000000  0.4562040000000 1.0
C      1  0.5416050000000  0.4406220000000  0.4833930000000 1.0
C      1  0.4834160000000  0.5593750000000  0.5416200000000 1.0
C      1  0.5432520000000  0.5588590000000  0.5152580000000 1.0
C      1  0.5166780000000  0.5597330000000  0.4574470000000 1.0
C      1  0.4562080000000  0.5613770000000  0.4845590000000 1.0
C      1  0.4698400000000  0.5194700000000  0.4247360000000 1.0
C      1  0.5760750000000  0.5184050000000  0.4692740000000 1.0
C      1  0.5304310000000  0.5190190000000  0.5755040000000 1.0
C      1  0.4235500000000  0.5183780000000  0.5308080000000 1.0
C      1  0.5307780000000  0.4816290000000  0.4235360000000 1.0
C      1  0.4247230000000  0.4805460000000  0.4698630000000 1.0
C      1  0.4692980000000  0.4815880000000  0.5760830000000 1.0
C      1  0.5755120000000  0.4809640000000  0.5304020000000 1.0
C      1  0.5574860000000  0.4873350000000  0.4344390000000 1.0
C      1  0.5648910000000  0.4871850000000  0.5571660000000 1.0
C      1  0.4424890000000  0.4873040000000  0.5654290000000 1.0
C      1  0.4360740000000  0.4870120000000  0.4434290000000 1.0
C      1  0.4434090000000  0.5130060000000  0.4360960000000 1.0
C      1  0.4344620000000  0.5126660000000  0.5575110000000 1.0
C      1  0.5571910000000  0.5127970000000  0.5648730000000 1.0
C      1  0.5654110000000  0.5126950000000  0.4424690000000 1.0
END
