TITL C-102486-7209-6 0.041563670091577 125000 -591.426319105858 0 0 83 (C1) n - 1
REM
REM in /rds/project/t2_vol4/rds-t2-cs072/BORA/CARBON/from-Arr/AIRSS/Generating-Clusters/GAP-ML-2020/Higher-Symm/SD-CG/HFTN-CG
REM
REM
REM
REM
REM
REM ./C.cell (b20cbc046b6831c77cfcea5457e17084)
REM AIRSS Version 0.9.1 bugfix July 2018 build 013d7b7c2542+ Fri, 06 Jul 2018 19:26:36 +0100
REM compiler GCC version 9.3.0
REM options -cpp -mtune=generic -march=x86-64 -g -O0
REM seed -1959461389 -2116847487 -842513264 -74240178 523238323 1351162274 -684043485 -1625817474 1343883625 -1096304094 -519567133 1524837022 1087437603 149192922 -479788922 -874169511 526296082 1866426684 1032969842 -1399967837 -1208039366 1814673989 -1819471421 985111250 1696899717 125476252 -732558349 -899622006 1802883293 2130965796 1240610686 -926063326 -2049155597
REM
CELL 1.54180   50.00000   50.00000   50.00000   90.00000   90.00000   90.00000
LATT -1
SFAC C  
C      1  0.4384640000000  0.5547950000000  0.5103260000000 1.0
C      1  0.4720200000000  0.5551430000000  0.5554810000000 1.0
C      1  0.5009760000000  0.5537920000000  0.5615390000000 1.0
C      1  0.5510210000000  0.5535880000000  0.5367810000000 1.0
C      1  0.5632680000000  0.5537940000000  0.5102140000000 1.0
C      1  0.5475560000000  0.5561700000000  0.4543420000000 1.0
C      1  0.5227050000000  0.5538970000000  0.4400270000000 1.0
C      1  0.4699860000000  0.5526740000000  0.4402830000000 1.0
C      1  0.4399900000000  0.5533430000000  0.4807000000000 1.0
C      1  0.4824580000000  0.4807990000000  0.5141370000000 1.0
C      1  0.4801860000000  0.5058400000000  0.5260590000000 1.0
C      1  0.5088380000000  0.4737950000000  0.5194900000000 1.0
C      1  0.5231020000000  0.4885630000000  0.5010270000000 1.0
C      1  0.5219550000000  0.5173890000000  0.5076800000000 1.0
C      1  0.5276450000000  0.5284240000000  0.4824510000000 1.0
C      1  0.5068640000000  0.5173650000000  0.4671920000000 1.0
C      1  0.4831390000000  0.5177050000000  0.4844740000000 1.0
C      1  0.4805860000000  0.4874650000000  0.4855570000000 1.0
C      1  0.5407390000000  0.5124320000000  0.4398550000000 1.0
C      1  0.4899020000000  0.5131020000000  0.4263330000000 1.0
C      1  0.4433090000000  0.5130760000000  0.4500750000000 1.0
C      1  0.4261120000000  0.5132990000000  0.4971660000000 1.0
C      1  0.4389360000000  0.5190370000000  0.5464760000000 1.0
C      1  0.4821280000000  0.5142770000000  0.5730490000000 1.0
C      1  0.5320460000000  0.5134910000000  0.5639380000000 1.0
C      1  0.5698480000000  0.5129750000000  0.5304770000000 1.0
C      1  0.5743230000000  0.5176060000000  0.4796670000000 1.0
C      1  0.5525140000000  0.5274390000000  0.5484520000000 1.0
C      1  0.5745820000000  0.5285010000000  0.5061910000000 1.0
C      1  0.5536600000000  0.5289740000000  0.4616280000000 1.0
C      1  0.5144800000000  0.5259880000000  0.4372950000000 1.0
C      1  0.4650020000000  0.5266970000000  0.4354230000000 1.0
C      1  0.4326650000000  0.5271760000000  0.4728390000000 1.0
C      1  0.4314820000000  0.5296520000000  0.5206220000000 1.0
C      1  0.4605780000000  0.5305110000000  0.5617350000000 1.0
C      1  0.5075910000000  0.5275880000000  0.5704560000000 1.0
C      1  0.4622900000000  0.4330700000000  0.4618100000000 1.0
C      1  0.4496620000000  0.4343650000000  0.5092190000000 1.0
C      1  0.4720860000000  0.4234400000000  0.5227090000000 1.0
C      1  0.4780520000000  0.4340620000000  0.5483110000000 1.0
C      1  0.5270880000000  0.4314930000000  0.5574890000000 1.0
C      1  0.5485030000000  0.4338370000000  0.5123930000000 1.0
C      1  0.5309890000000  0.4241970000000  0.4925370000000 1.0
C      1  0.5334110000000  0.4346990000000  0.4665100000000 1.0
C      1  0.4884310000000  0.4331060000000  0.4486360000000 1.0
C      1  0.5350020000000  0.5759540000000  0.4731000000000 1.0
C      1  0.5100320000000  0.5731730000000  0.4574250000000 1.0
C      1  0.4817570000000  0.5699360000000  0.4590000000000 1.0
C      1  0.4630620000000  0.5712150000000  0.4807850000000 1.0
C      1  0.4616230000000  0.5736300000000  0.5101450000000 1.0
C      1  0.4776240000000  0.5735720000000  0.5330210000000 1.0
C      1  0.5061570000000  0.5730080000000  0.5393890000000 1.0
C      1  0.5309360000000  0.5729860000000  0.5268040000000 1.0
C      1  0.5431690000000  0.5731920000000  0.4999430000000 1.0
C      1  0.5161790000000  0.4702760000000  0.4348430000000 1.0
C      1  0.4647960000000  0.4729730000000  0.4341260000000 1.0
C      1  0.4350430000000  0.4697850000000  0.4758120000000 1.0
C      1  0.4270470000000  0.4754100000000  0.5257590000000 1.0
C      1  0.4555380000000  0.4758900000000  0.5641140000000 1.0
C      1  0.5050800000000  0.4712900000000  0.5690500000000 1.0
C      1  0.5507970000000  0.4704890000000  0.5464440000000 1.0
C      1  0.5758470000000  0.4743440000000  0.5033420000000 1.0
C      1  0.5615760000000  0.4744360000000  0.4575350000000 1.0
C      1  0.4905560000000  0.4848820000000  0.4273590000000 1.0
C      1  0.4442630000000  0.4847440000000  0.4513160000000 1.0
C      1  0.4250680000000  0.4850580000000  0.4984760000000 1.0
C      1  0.4365730000000  0.4912940000000  0.5484080000000 1.0
C      1  0.4807020000000  0.4861710000000  0.5736230000000 1.0
C      1  0.5305670000000  0.4847760000000  0.5627000000000 1.0
C      1  0.5695770000000  0.4847860000000  0.5297060000000 1.0
C      1  0.5753830000000  0.4896830000000  0.4784980000000 1.0
C      1  0.5415810000000  0.4846290000000  0.4391250000000 1.0
C      1  0.4459560000000  0.4434730000000  0.4817640000000 1.0
C      1  0.4380330000000  0.4501460000000  0.5297090000000 1.0
C      1  0.4551200000000  0.4501920000000  0.5530590000000 1.0
C      1  0.5030350000000  0.4434830000000  0.5612520000000 1.0
C      1  0.5445730000000  0.4430420000000  0.5401380000000 1.0
C      1  0.5662420000000  0.4491450000000  0.4966080000000 1.0
C      1  0.5575810000000  0.4493650000000  0.4689850000000 1.0
C      1  0.5140070000000  0.4437160000000  0.4470800000000 1.0
C      1  0.4664610000000  0.4459390000000  0.4377420000000 1.0
C      1  0.5079700000000  0.4871570000000  0.4759300000000 1.0
C      1  0.4939270000000  0.5242440000000  0.5111880000000 1.0
END
