TITL C-100370-4882-5 -417.840703780392 125000 -1042.98946150569 0 0 150 (C1) n - 1
REM
REM in /rds/project/t2_vol4/rds-t2-cs072/BORA/CARBON/from-Arr/AIRSS/Generating-Clusters/GAP-ML-2020/Higher-Symm/SD-CG/HFTN-CG
REM
REM
REM
REM
REM
REM ./C.cell (b20cbc046b6831c77cfcea5457e17084)
REM AIRSS Version 0.9.1 bugfix July 2018 build 013d7b7c2542+ Fri, 06 Jul 2018 19:26:36 +0100
REM compiler GCC version 9.3.0
REM options -cpp -mtune=generic -march=x86-64 -g -O0
REM seed -1556156958 -1809518312 -651671340 1227274120 423448611 820544121 1926106566 327234304 540997627 469746308 1273997692 -147318636 -1082685466 -1681670589 -106962813 -1302489101 1228782807 1465713780 1688667903 1699871819 -819700620 658923916 655883850 -1609010242 1290535811 -1592312937 -1174816396 -78810987 1175056398 -1892659934 -564464855 -918409189 -521003716
REM
CELL 1.54180   50.00000   50.00000   50.00000   90.00000   90.00000   90.00000
LATT -1
SFAC C  
C      1  0.4503220000000  0.5298480000000  0.5250990000000 1.0
C      1  0.5520460000000  0.4675320000000  0.5250870000000 1.0
C      1  0.5492890000000  0.5270500000000  0.5248330000000 1.0
C      1  0.4508010000000  0.4721370000000  0.5249210000000 1.0
C      1  0.5589080000000  0.4572850000000  0.4334100000000 1.0
C      1  0.4413290000000  0.5425740000000  0.4333780000000 1.0
C      1  0.4420330000000  0.4568000000000  0.4344810000000 1.0
C      1  0.5578330000000  0.5434170000000  0.4343860000000 1.0
C      1  0.5569070000000  0.4713130000000  0.4782150000000 1.0
C      1  0.4435410000000  0.5282540000000  0.4783490000000 1.0
C      1  0.4442360000000  0.4718860000000  0.4786860000000 1.0
C      1  0.5557380000000  0.5279040000000  0.4785630000000 1.0
C      1  0.5595310000000  0.5530990000000  0.5641760000000 1.0
C      1  0.4403120000000  0.4470300000000  0.5641080000000 1.0
C      1  0.4415890000000  0.5525060000000  0.5634830000000 1.0
C      1  0.5577060000000  0.4481800000000  0.5636350000000 1.0
C      1  0.4716600000000  0.4651200000000  0.4274450000000 1.0
C      1  0.5283350000000  0.5349720000000  0.4274220000000 1.0
C      1  0.5288300000000  0.4654120000000  0.4265460000000 1.0
C      1  0.4713290000000  0.5345480000000  0.4264860000000 1.0
C      1  0.4275640000000  0.4715170000000  0.4547460000000 1.0
C      1  0.5722850000000  0.5286660000000  0.4545350000000 1.0
C      1  0.5731670000000  0.4720940000000  0.4539380000000 1.0
C      1  0.4272700000000  0.5278610000000  0.4540600000000 1.0
C      1  0.5308420000000  0.5582460000000  0.5607080000000 1.0
C      1  0.4690000000000  0.4415700000000  0.5607060000000 1.0
C      1  0.4704860000000  0.5575810000000  0.5615120000000 1.0
C      1  0.5290060000000  0.4425350000000  0.5617490000000 1.0
C      1  0.5141140000000  0.4420890000000  0.4139440000000 1.0
C      1  0.4858870000000  0.5579330000000  0.4139760000000 1.0
C      1  0.4857650000000  0.4420030000000  0.4143990000000 1.0
C      1  0.5142160000000  0.5580770000000  0.4144750000000 1.0
C      1  0.4487190000000  0.4854910000000  0.5921890000000 1.0
C      1  0.5512780000000  0.5146910000000  0.5922670000000 1.0
C      1  0.5509380000000  0.4857430000000  0.5922610000000 1.0
C      1  0.4490930000000  0.5144680000000  0.5918710000000 1.0
C      1  0.5156630000000  0.5793690000000  0.5473640000000 1.0
C      1  0.4841400000000  0.4205100000000  0.5472570000000 1.0
C      1  0.4864050000000  0.5767380000000  0.5466900000000 1.0
C      1  0.5134140000000  0.4234000000000  0.5465320000000 1.0
C      1  0.4850530000000  0.5141110000000  0.4107490000000 1.0
C      1  0.5151090000000  0.4858930000000  0.4108530000000 1.0
C      1  0.5149780000000  0.5144250000000  0.4110820000000 1.0
C      1  0.4851520000000  0.4855790000000  0.4111010000000 1.0
C      1  0.4660270000000  0.5512420000000  0.5101590000000 1.0
C      1  0.5339620000000  0.4483630000000  0.5098410000000 1.0
C      1  0.5330650000000  0.5473980000000  0.5107030000000 1.0
C      1  0.4671860000000  0.4520840000000  0.5104790000000 1.0
C      1  0.5820380000000  0.5568410000000  0.5446640000000 1.0
C      1  0.4178010000000  0.4434280000000  0.5445720000000 1.0
C      1  0.4193840000000  0.5565470000000  0.5435560000000 1.0
C      1  0.5758890000000  0.4472890000000  0.5399940000000 1.0
C      1  0.6102740000000  0.4864190000000  0.4866010000000 1.0
C      1  0.3901220000000  0.5145790000000  0.4868650000000 1.0
C      1  0.3902580000000  0.4850740000000  0.4870010000000 1.0
C      1  0.6097070000000  0.5158640000000  0.4867240000000 1.0
C      1  0.5342000000000  0.4160360000000  0.4471760000000 1.0
C      1  0.4657480000000  0.5837230000000  0.4473710000000 1.0
C      1  0.4663420000000  0.4159410000000  0.4490170000000 1.0
C      1  0.5335360000000  0.5840280000000  0.4492390000000 1.0
C      1  0.5890520000000  0.5148730000000  0.5619040000000 1.0
C      1  0.4112330000000  0.4856570000000  0.5617190000000 1.0
C      1  0.4115080000000  0.5147550000000  0.5616040000000 1.0
C      1  0.5886410000000  0.4858080000000  0.5616440000000 1.0
C      1  0.4427500000000  0.4300450000000  0.4392900000000 1.0
C      1  0.5571270000000  0.5701530000000  0.4393050000000 1.0
C      1  0.5579280000000  0.4302320000000  0.4372210000000 1.0
C      1  0.4421130000000  0.5696240000000  0.4371570000000 1.0
C      1  0.5365990000000  0.5998050000000  0.4766550000000 1.0
C      1  0.4632440000000  0.4000210000000  0.4764580000000 1.0
C      1  0.4642210000000  0.5994730000000  0.4745120000000 1.0
C      1  0.5355600000000  0.4002040000000  0.4744420000000 1.0
C      1  0.5959510000000  0.5311230000000  0.5392480000000 1.0
C      1  0.4039780000000  0.4693080000000  0.5392960000000 1.0
C      1  0.4044260000000  0.5309190000000  0.5391630000000 1.0
C      1  0.5955730000000  0.4704670000000  0.5387550000000 1.0
C      1  0.5264600000000  0.4199500000000  0.5197780000000 1.0
C      1  0.4733760000000  0.5798640000000  0.5199600000000 1.0
C      1  0.4717900000000  0.4049720000000  0.5244140000000 1.0
C      1  0.5279710000000  0.5948400000000  0.5245130000000 1.0
C      1  0.4312340000000  0.4708520000000  0.5769940000000 1.0
C      1  0.5688260000000  0.5294330000000  0.5771770000000 1.0
C      1  0.5683060000000  0.4708730000000  0.5770990000000 1.0
C      1  0.4316890000000  0.5293140000000  0.5768120000000 1.0
C      1  0.4051330000000  0.4840930000000  0.5129850000000 1.0
C      1  0.5948760000000  0.5164810000000  0.5127260000000 1.0
C      1  0.5958090000000  0.4848170000000  0.5129080000000 1.0
C      1  0.4049300000000  0.5160860000000  0.5130040000000 1.0
C      1  0.4731320000000  0.4849520000000  0.4772470000000 1.0
C      1  0.5270520000000  0.5147990000000  0.4771970000000 1.0
C      1  0.5279560000000  0.4841750000000  0.4774160000000 1.0
C      1  0.4724560000000  0.5155840000000  0.4772930000000 1.0
C      1  0.5237840000000  0.5151070000000  0.5850560000000 1.0
C      1  0.4761450000000  0.4848900000000  0.5849110000000 1.0
C      1  0.4764370000000  0.5146080000000  0.5846160000000 1.0
C      1  0.5235320000000  0.4854090000000  0.5849490000000 1.0
C      1  0.5143640000000  0.5259880000000  0.5044730000000 1.0
C      1  0.4859390000000  0.4736050000000  0.5045280000000 1.0
C      1  0.4847710000000  0.5274490000000  0.5044150000000 1.0
C      1  0.5156160000000  0.4724630000000  0.5048160000000 1.0
C      1  0.4435230000000  0.4097370000000  0.5182230000000 1.0
C      1  0.5562370000000  0.5902970000000  0.5183330000000 1.0
C      1  0.5555980000000  0.4097360000000  0.5162740000000 1.0
C      1  0.4442890000000  0.5897470000000  0.5163580000000 1.0
C      1  0.4841540000000  0.4691580000000  0.5607360000000 1.0
C      1  0.5158640000000  0.5305910000000  0.5607670000000 1.0
C      1  0.5149060000000  0.4692250000000  0.5611960000000 1.0
C      1  0.4849720000000  0.5306150000000  0.5608280000000 1.0
C      1  0.4341650000000  0.5161340000000  0.5041360000000 1.0
C      1  0.5665790000000  0.4830600000000  0.5038710000000 1.0
C      1  0.5656220000000  0.5143080000000  0.5038630000000 1.0
C      1  0.4344380000000  0.4851360000000  0.5040790000000 1.0
C      1  0.4775610000000  0.4392490000000  0.4677420000000 1.0
C      1  0.5224410000000  0.5605470000000  0.4679440000000 1.0
C      1  0.5245790000000  0.4403260000000  0.4658640000000 1.0
C      1  0.4754190000000  0.5593940000000  0.4660400000000 1.0
C      1  0.4546700000000  0.4436300000000  0.4859500000000 1.0
C      1  0.5453570000000  0.5561340000000  0.4861470000000 1.0
C      1  0.5468740000000  0.4428090000000  0.4844670000000 1.0
C      1  0.4531760000000  0.5567470000000  0.4847750000000 1.0
C      1  0.5558230000000  0.5844000000000  0.4899600000000 1.0
C      1  0.4440740000000  0.4154370000000  0.4897860000000 1.0
C      1  0.4442020000000  0.5869640000000  0.4880610000000 1.0
C      1  0.5556210000000  0.4125460000000  0.4879760000000 1.0
C      1  0.4881230000000  0.5921280000000  0.4949180000000 1.0
C      1  0.5117090000000  0.4076080000000  0.4948240000000 1.0
C      1  0.5159900000000  0.6016810000000  0.4984990000000 1.0
C      1  0.4837890000000  0.3981220000000  0.4983660000000 1.0
C      1  0.4851820000000  0.4155630000000  0.4265030000000 1.0
C      1  0.5147240000000  0.5844280000000  0.4267000000000 1.0
C      1  0.5145030000000  0.4154340000000  0.4258230000000 1.0
C      1  0.4854080000000  0.5844760000000  0.4260240000000 1.0
C      1  0.4844750000000  0.5328150000000  0.4556220000000 1.0
C      1  0.5157160000000  0.4670100000000  0.4557470000000 1.0
C      1  0.5146500000000  0.5333980000000  0.4563260000000 1.0
C      1  0.4854540000000  0.4664620000000  0.4563250000000 1.0
C      1  0.5269600000000  0.4836500000000  0.5339200000000 1.0
C      1  0.4740570000000  0.5152420000000  0.5337150000000 1.0
C      1  0.4741520000000  0.4861390000000  0.5344250000000 1.0
C      1  0.5264100000000  0.5128830000000  0.5345460000000 1.0
C      1  0.5972470000000  0.5158820000000  0.4597070000000 1.0
C      1  0.4027320000000  0.4846610000000  0.4600230000000 1.0
C      1  0.4026280000000  0.5146440000000  0.4597900000000 1.0
C      1  0.5975970000000  0.4859040000000  0.4595720000000 1.0
C      1  0.4237810000000  0.4204820000000  0.5323610000000 1.0
C      1  0.5760900000000  0.5798110000000  0.5325070000000 1.0
C      1  0.5753050000000  0.4215620000000  0.5294460000000 1.0
C      1  0.4243560000000  0.5790010000000  0.5301150000000 1.0
C      1  0.4977630000000  0.5693460000000  0.4799710000000 1.0
C      1  0.5022080000000  0.4303560000000  0.4797550000000 1.0
END
