TITL C-100374-3920-7 30.3635647117641 125000 -660.838321707127 0 0 96 (C1) n - 1
REM
REM in /rds/project/t2_vol4/rds-t2-cs072/BORA/CARBON/from-Arr/AIRSS/Generating-Clusters/GAP-ML-2020/Higher-Symm/SD-CG/HFTN-CG
REM
REM
REM
REM
REM
REM ./C.cell (b20cbc046b6831c77cfcea5457e17084)
REM AIRSS Version 0.9.1 bugfix July 2018 build 013d7b7c2542+ Fri, 06 Jul 2018 19:26:36 +0100
REM compiler GCC version 9.3.0
REM options -cpp -mtune=generic -march=x86-64 -g -O0
REM seed -1536197833 -660186001 -1829136714 -571877786 -486850591 -583747497 -879198991 -1725749337 957246477 704098576 1439597242 237648669 1801150365 -811106012 -1235351599 -689605980 -502033320 -779444203 86473735 -235060727 -1027269729 682213204 423183016 -959990865 870880734 -1861294313 1525673627 -133839030 1465235992 -1214923260 -971613996 2080838864 151742645
REM
CELL 1.54180   50.00000   50.00000   50.00000   90.00000   90.00000   90.00000
LATT -1
SFAC C  
C      1  0.5835880000000  0.5021990000000  0.4831620000000 1.0
C      1  0.4161320000000  0.4865120000000  0.4977850000000 1.0
C      1  0.5860970000000  0.4948450000000  0.5103440000000 1.0
C      1  0.4172740000000  0.5137690000000  0.5047610000000 1.0
C      1  0.4620680000000  0.4328680000000  0.4960330000000 1.0
C      1  0.5398270000000  0.4932460000000  0.5649100000000 1.0
C      1  0.4629440000000  0.5692230000000  0.5058640000000 1.0
C      1  0.5349840000000  0.5050400000000  0.4293940000000 1.0
C      1  0.5097660000000  0.4962330000000  0.5692480000000 1.0
C      1  0.4931090000000  0.5700270000000  0.5030500000000 1.0
C      1  0.5046190000000  0.5031510000000  0.4306060000000 1.0
C      1  0.4886280000000  0.4224320000000  0.4996810000000 1.0
C      1  0.4255660000000  0.4670190000000  0.5174580000000 1.0
C      1  0.5771450000000  0.5151350000000  0.5301460000000 1.0
C      1  0.4244030000000  0.5343240000000  0.4849280000000 1.0
C      1  0.5745150000000  0.4832390000000  0.4622900000000 1.0
C      1  0.4518280000000  0.5472720000000  0.4846640000000 1.0
C      1  0.5466650000000  0.4840570000000  0.4499210000000 1.0
C      1  0.4524430000000  0.4530780000000  0.5178160000000 1.0
C      1  0.5497940000000  0.5147250000000  0.5432760000000 1.0
C      1  0.4535200000000  0.5213820000000  0.5870030000000 1.0
C      1  0.5490520000000  0.5846810000000  0.4779760000000 1.0
C      1  0.4493760000000  0.4795160000000  0.4149710000000 1.0
C      1  0.5459020000000  0.4198010000000  0.5184060000000 1.0
C      1  0.4268840000000  0.5177420000000  0.5306010000000 1.0
C      1  0.5740520000000  0.5283760000000  0.4801420000000 1.0
C      1  0.4221730000000  0.4826380000000  0.4706200000000 1.0
C      1  0.5818920000000  0.4674210000000  0.5155670000000 1.0
C      1  0.5332490000000  0.4354640000000  0.4715440000000 1.0
C      1  0.4642830000000  0.4710480000000  0.5689220000000 1.0
C      1  0.5373420000000  0.5662550000000  0.5276770000000 1.0
C      1  0.4628940000000  0.5288990000000  0.4348900000000 1.0
C      1  0.4984460000000  0.5669260000000  0.5512320000000 1.0
C      1  0.5025680000000  0.5514800000000  0.4320620000000 1.0
C      1  0.4934650000000  0.4339510000000  0.4513360000000 1.0
C      1  0.5024590000000  0.4473900000000  0.5675540000000 1.0
C      1  0.4717690000000  0.5398750000000  0.5787350000000 1.0
C      1  0.5306520000000  0.5776750000000  0.4594600000000 1.0
C      1  0.4670080000000  0.4602840000000  0.4214920000000 1.0
C      1  0.5257620000000  0.4245500000000  0.5358560000000 1.0
C      1  0.4572780000000  0.5584370000000  0.5322370000000 1.0
C      1  0.5419870000000  0.5310810000000  0.4400910000000 1.0
C      1  0.4535830000000  0.4407930000000  0.4692620000000 1.0
C      1  0.5471390000000  0.4660180000000  0.5575370000000 1.0
C      1  0.5254880000000  0.4848270000000  0.4984990000000 1.0
C      1  0.4823270000000  0.4915580000000  0.5320490000000 1.0
C      1  0.5169730000000  0.5288480000000  0.5064560000000 1.0
C      1  0.4825830000000  0.5016410000000  0.4775960000000 1.0
C      1  0.4978820000000  0.4224900000000  0.5273890000000 1.0
C      1  0.4954940000000  0.5230240000000  0.5673680000000 1.0
C      1  0.5070080000000  0.5668590000000  0.4761550000000 1.0
C      1  0.4902390000000  0.4768010000000  0.4333820000000 1.0
C      1  0.5514340000000  0.4363160000000  0.4948000000000 1.0
C      1  0.4504840000000  0.4987060000000  0.5678280000000 1.0
C      1  0.5513820000000  0.5651810000000  0.5006240000000 1.0
C      1  0.4478720000000  0.5031270000000  0.4358780000000 1.0
C      1  0.4696120000000  0.5124380000000  0.5477400000000 1.0
C      1  0.5312750000000  0.5455530000000  0.4869070000000 1.0
C      1  0.4654510000000  0.4869120000000  0.4559440000000 1.0
C      1  0.5418110000000  0.4613010000000  0.5096830000000 1.0
C      1  0.5338690000000  0.4564900000000  0.4507780000000 1.0
C      1  0.4604780000000  0.4489490000000  0.5478330000000 1.0
C      1  0.5386750000000  0.5430050000000  0.5473240000000 1.0
C      1  0.4629010000000  0.5488910000000  0.4566350000000 1.0
C      1  0.4716600000000  0.5620120000000  0.5569160000000 1.0
C      1  0.5295450000000  0.5563060000000  0.4366300000000 1.0
C      1  0.4673130000000  0.4377560000000  0.4439260000000 1.0
C      1  0.5285150000000  0.4434840000000  0.5587680000000 1.0
C      1  0.4230010000000  0.5049710000000  0.4524500000000 1.0
C      1  0.5788920000000  0.4494560000000  0.4925900000000 1.0
C      1  0.4259000000000  0.4973660000000  0.5507160000000 1.0
C      1  0.5758950000000  0.5476940000000  0.5012820000000 1.0
C      1  0.4682510000000  0.5250520000000  0.4987810000000 1.0
C      1  0.5330940000000  0.4998030000000  0.4720140000000 1.0
C      1  0.4735560000000  0.4756230000000  0.5118200000000 1.0
C      1  0.5268440000000  0.5052170000000  0.5201110000000 1.0
C      1  0.5061050000000  0.4252690000000  0.4753540000000 1.0
C      1  0.4921030000000  0.4720300000000  0.5764410000000 1.0
C      1  0.5102440000000  0.5758860000000  0.5270600000000 1.0
C      1  0.4892970000000  0.5276130000000  0.4239800000000 1.0
C      1  0.5082420000000  0.4554310000000  0.4398820000000 1.0
C      1  0.4840020000000  0.4338760000000  0.5495140000000 1.0
C      1  0.5136910000000  0.5443210000000  0.5603410000000 1.0
C      1  0.4882740000000  0.5611530000000  0.4547900000000 1.0
C      1  0.4124070000000  0.5282620000000  0.4607360000000 1.0
C      1  0.5853920000000  0.4587970000000  0.4684320000000 1.0
C      1  0.4159040000000  0.4739610000000  0.5423840000000 1.0
C      1  0.5881840000000  0.5401120000000  0.5240370000000 1.0
C      1  0.4438850000000  0.4667210000000  0.4643260000000 1.0
C      1  0.5604240000000  0.4621960000000  0.5330880000000 1.0
C      1  0.4529390000000  0.5293380000000  0.5296860000000 1.0
C      1  0.5474800000000  0.5278000000000  0.4690830000000 1.0
C      1  0.4919280000000  0.5384860000000  0.5090450000000 1.0
C      1  0.5063950000000  0.5094500000000  0.4623780000000 1.0
C      1  0.4943510000000  0.4800850000000  0.4933100000000 1.0
C      1  0.5089200000000  0.4914750000000  0.5387520000000 1.0
END
