TITL C-102474-7252-5 172.83604854138 125000 -431.7016312839 0 0 61 (C1) n - 1
REM
REM in /rds/project/t2_vol4/rds-t2-cs072/BORA/CARBON/from-Arr/AIRSS/Generating-Clusters/GAP-ML-2020/Higher-Symm/SD-CG/HFTN-CG
REM
REM
REM
REM
REM
REM ./C.cell (b20cbc046b6831c77cfcea5457e17084)
REM AIRSS Version 0.9.1 bugfix July 2018 build 013d7b7c2542+ Fri, 06 Jul 2018 19:26:36 +0100
REM compiler GCC version 9.3.0
REM options -cpp -mtune=generic -march=x86-64 -g -O0
REM seed 766068816 551959141 -640292777 -1316114334 -847495616 1350412552 1994288994 -1649448053 875331056 116235287 1276082455 -1307818382 -1129962890 -2115750074 182688585 -1168217060 -618551420 -85718897 -1890272934 -1078858795 1452983865 -1785164053 1595334717 339336249 -74974457 1795630920 -2028789573 1383638112 523660640 -71679969 1270334949 -1220623405 -578029767
REM
CELL 1.54180   50.00000   50.00000   50.00000   90.00000   90.00000   90.00000
LATT -1
SFAC C  
C      1  0.4944090000000  0.4140730000000  0.4827510000000 1.0
C      1  0.4972020000000  0.4604930000000  0.4268190000000 1.0
C      1  0.5008580000000  0.5324070000000  0.4190970000000 1.0
C      1  0.5111580000000  0.5607380000000  0.4813080000000 1.0
C      1  0.4939830000000  0.5721830000000  0.5524000000000 1.0
C      1  0.4952520000000  0.5076270000000  0.5832890000000 1.0
C      1  0.5044700000000  0.4481700000000  0.5443750000000 1.0
C      1  0.5484870000000  0.4948810000000  0.5312860000000 1.0
C      1  0.5477990000000  0.4723280000000  0.5110710000000 1.0
C      1  0.5622830000000  0.4826370000000  0.4884640000000 1.0
C      1  0.5460720000000  0.4969810000000  0.4709700000000 1.0
C      1  0.5456020000000  0.5257040000000  0.4774670000000 1.0
C      1  0.5503680000000  0.5329480000000  0.5053840000000 1.0
C      1  0.5655840000000  0.5143500000000  0.5195160000000 1.0
C      1  0.4317610000000  0.4743510000000  0.5174940000000 1.0
C      1  0.4305490000000  0.4702570000000  0.4893870000000 1.0
C      1  0.4307510000000  0.4896360000000  0.4683840000000 1.0
C      1  0.4314740000000  0.5178600000000  0.4712160000000 1.0
C      1  0.4306960000000  0.5335580000000  0.4949620000000 1.0
C      1  0.4295390000000  0.5252290000000  0.5222510000000 1.0
C      1  0.4304090000000  0.4984430000000  0.5322070000000 1.0
C      1  0.4586210000000  0.5244220000000  0.5582550000000 1.0
C      1  0.4639920000000  0.4716940000000  0.5516420000000 1.0
C      1  0.4617750000000  0.4402840000000  0.5074530000000 1.0
C      1  0.4598250000000  0.4553610000000  0.4562560000000 1.0
C      1  0.4633670000000  0.5061280000000  0.4386510000000 1.0
C      1  0.4630660000000  0.5511770000000  0.4664650000000 1.0
C      1  0.4613930000000  0.5594540000000  0.5188120000000 1.0
C      1  0.5318870000000  0.5465640000000  0.5212650000000 1.0
C      1  0.5249520000000  0.5343130000000  0.5464190000000 1.0
C      1  0.5297630000000  0.5054960000000  0.5500790000000 1.0
C      1  0.5294230000000  0.4522750000000  0.5032340000000 1.0
C      1  0.5222520000000  0.4534630000000  0.4753980000000 1.0
C      1  0.5208290000000  0.4833180000000  0.4636120000000 1.0
C      1  0.5276940000000  0.5430430000000  0.4653690000000 1.0
C      1  0.5064840000000  0.5411100000000  0.4442780000000 1.0
C      1  0.5117650000000  0.5624220000000  0.5091760000000 1.0
C      1  0.5016950000000  0.5468660000000  0.5581980000000 1.0
C      1  0.5093190000000  0.4915580000000  0.5661730000000 1.0
C      1  0.5098080000000  0.4389280000000  0.5200830000000 1.0
C      1  0.5027800000000  0.4344420000000  0.4660790000000 1.0
C      1  0.5074640000000  0.4841410000000  0.4346400000000 1.0
C      1  0.4847680000000  0.4454650000000  0.4462400000000 1.0
C      1  0.4906760000000  0.5079280000000  0.4285030000000 1.0
C      1  0.4897610000000  0.5575580000000  0.4620140000000 1.0
C      1  0.4883640000000  0.5679330000000  0.5257210000000 1.0
C      1  0.4834760000000  0.5289140000000  0.5712330000000 1.0
C      1  0.4927530000000  0.4682570000000  0.5577700000000 1.0
C      1  0.4870820000000  0.4265860000000  0.5060630000000 1.0
C      1  0.4501850000000  0.4819100000000  0.4486960000000 1.0
C      1  0.4513860000000  0.5281900000000  0.4532610000000 1.0
C      1  0.4505190000000  0.5543290000000  0.4926680000000 1.0
C      1  0.4480670000000  0.5411390000000  0.5373710000000 1.0
C      1  0.4494160000000  0.4971450000000  0.5537330000000 1.0
C      1  0.4522870000000  0.4576970000000  0.5287240000000 1.0
C      1  0.4495800000000  0.4498160000000  0.4828110000000 1.0
C      1  0.5818270000000  0.5001670000000  0.5003450000000 1.0
C      1  0.4969140000000  0.4971690000000  0.4764460000000 1.0
C      1  0.6065070000000  0.5023700000000  0.4946230000000 1.0
C      1  0.4886860000000  0.5012150000000  0.5009140000000 1.0
C      1  0.4888710000000  0.5184460000000  0.5203580000000 1.0
END
