TITL C-102485-7252-3 0.057618017661167 125000 -957.053458466106 0 0 135 (S4) n - 1
REM
REM in /rds/project/t2_vol4/rds-t2-cs072/BORA/CARBON/from-Arr/AIRSS/Generating-Clusters/GAP-ML-2020/Higher-Symm/SD-CG/HFTN-CG
REM
REM
REM
REM
REM
REM ./C.cell (b20cbc046b6831c77cfcea5457e17084)
REM AIRSS Version 0.9.1 bugfix July 2018 build 013d7b7c2542+ Fri, 06 Jul 2018 19:26:36 +0100
REM compiler GCC version 9.3.0
REM options -cpp -mtune=generic -march=x86-64 -g -O0
REM seed 1051705350 -1943176809 -1205354568 -16552746 1787814267 -1994517529 1469341471 556888243 810079805 -163837970 95412834 -940530628 1188028529 2091437440 -230715785 -1719649631 1796333303 -1907025969 -2039343883 1567705975 1627542204 -696404764 1959865476 796436409 -30501369 -1330839689 1279269362 238633242 -1987235601 -949571897 365159832 -1155795096 -1532725678
REM
CELL 1.54180   50.00000   50.00000   50.00000   90.00000   90.00000   90.00000
LATT -1
SFAC C  
C      1  0.5515440000000  0.4165190000000  0.5375110000000 1.0
C      1  0.5375990000000  0.5837980000000  0.4485040000000 1.0
C      1  0.4484550000000  0.4166210000000  0.4627880000000 1.0
C      1  0.4628770000000  0.5839670000000  0.5515920000000 1.0
C      1  0.5661420000000  0.5382720000000  0.5637100000000 1.0
C      1  0.5636990000000  0.4619950000000  0.4341530000000 1.0
C      1  0.4342050000000  0.5383820000000  0.4364410000000 1.0
C      1  0.4364300000000  0.4622560000000  0.5660900000000 1.0
C      1  0.4799830000000  0.5207240000000  0.4877980000000 1.0
C      1  0.4878010000000  0.4797800000000  0.5202760000000 1.0
C      1  0.5203130000000  0.5206810000000  0.5123750000000 1.0
C      1  0.5123780000000  0.4797200000000  0.4799460000000 1.0
C      1  0.5527770000000  0.4819360000000  0.5025550000000 1.0
C      1  0.5025910000000  0.5184070000000  0.4474030000000 1.0
C      1  0.4474090000000  0.4820830000000  0.4976640000000 1.0
C      1  0.4976990000000  0.5184780000000  0.5527720000000 1.0
C      1  0.4856760000000  0.4771690000000  0.4629140000000 1.0
C      1  0.4629530000000  0.5233430000000  0.5144950000000 1.0
C      1  0.5144960000000  0.4771730000000  0.5373110000000 1.0
C      1  0.5373500000000  0.5232190000000  0.4856750000000 1.0
C      1  0.4447080000000  0.5647670000000  0.5562770000000 1.0
C      1  0.5562450000000  0.4357530000000  0.5556400000000 1.0
C      1  0.5557130000000  0.5645400000000  0.4438420000000 1.0
C      1  0.4438090000000  0.4358460000000  0.4446350000000 1.0
C      1  0.5060910000000  0.5989160000000  0.5420530000000 1.0
C      1  0.5419920000000  0.4014900000000  0.4943270000000 1.0
C      1  0.4944280000000  0.5988810000000  0.4580250000000 1.0
C      1  0.4579640000000  0.4016170000000  0.5059900000000 1.0
C      1  0.5779310000000  0.5245900000000  0.4400920000000 1.0
C      1  0.4400920000000  0.4757540000000  0.4223360000000 1.0
C      1  0.4223770000000  0.5248840000000  0.5600760000000 1.0
C      1  0.5600760000000  0.4756770000000  0.5778910000000 1.0
C      1  0.5389740000000  0.4941930000000  0.4797870000000 1.0
C      1  0.4798120000000  0.5061970000000  0.4612320000000 1.0
C      1  0.4612470000000  0.4943290000000  0.5204180000000 1.0
C      1  0.5204430000000  0.5061860000000  0.5389590000000 1.0
C      1  0.5916640000000  0.4995140000000  0.4421690000000 1.0
C      1  0.4421890000000  0.5008000000000  0.4085520000000 1.0
C      1  0.4085720000000  0.4998460000000  0.5580290000000 1.0
C      1  0.5580500000000  0.5007460000000  0.5916440000000 1.0
C      1  0.4541540000000  0.5815950000000  0.4871440000000 1.0
C      1  0.4870980000000  0.4189620000000  0.5462290000000 1.0
C      1  0.5463150000000  0.5814790000000  0.5129550000000 1.0
C      1  0.5129080000000  0.4188690000000  0.4540680000000 1.0
C      1  0.5883140000000  0.5211450000000  0.5244720000000 1.0
C      1  0.5244750000000  0.4791080000000  0.4119470000000 1.0
C      1  0.4119840000000  0.5213670000000  0.4757000000000 1.0
C      1  0.4757030000000  0.4792850000000  0.5882760000000 1.0
C      1  0.4642920000000  0.4637850000000  0.4830690000000 1.0
C      1  0.4831190000000  0.5367540000000  0.5358510000000 1.0
C      1  0.5358420000000  0.4637040000000  0.5171730000000 1.0
C      1  0.5172230000000  0.5366620000000  0.4643010000000 1.0
C      1  0.5190250000000  0.4547280000000  0.4947720000000 1.0
C      1  0.4948300000000  0.5456900000000  0.4811000000000 1.0
C      1  0.4810830000000  0.4547890000000  0.5054800000000 1.0
C      1  0.5055380000000  0.5456980000000  0.5190420000000 1.0
C      1  0.5890180000000  0.5210940000000  0.4965760000000 1.0
C      1  0.4965790000000  0.4791810000000  0.4112420000000 1.0
C      1  0.4112790000000  0.5213520000000  0.5035960000000 1.0
C      1  0.5035990000000  0.4792790000000  0.5889810000000 1.0
C      1  0.4636310000000  0.5185910000000  0.4053590000000 1.0
C      1  0.4053640000000  0.4820140000000  0.5366240000000 1.0
C      1  0.5366600000000  0.5186020000000  0.5948160000000 1.0
C      1  0.5948210000000  0.4816990000000  0.4635950000000 1.0
C      1  0.5770520000000  0.4385580000000  0.4806690000000 1.0
C      1  0.4807400000000  0.5617540000000  0.4230400000000 1.0
C      1  0.4230100000000  0.4388010000000  0.5196030000000 1.0
C      1  0.5196730000000  0.5617920000000  0.5770820000000 1.0
C      1  0.5801310000000  0.4491050000000  0.5071440000000 1.0
C      1  0.5072060000000  0.5511790000000  0.4199830000000 1.0
C      1  0.4199620000000  0.4493240000000  0.4931160000000 1.0
C      1  0.4931780000000  0.5512970000000  0.5801520000000 1.0
C      1  0.4676530000000  0.5922510000000  0.4639150000000 1.0
C      1  0.4638600000000  0.4082970000000  0.5327510000000 1.0
C      1  0.5328470000000  0.5922020000000  0.5361710000000 1.0
C      1  0.5361160000000  0.4081540000000  0.4675580000000 1.0
C      1  0.4878270000000  0.4612390000000  0.4335320000000 1.0
C      1  0.4335840000000  0.5392930000000  0.5123110000000 1.0
C      1  0.5123000000000  0.4612850000000  0.5667130000000 1.0
C      1  0.5667650000000  0.5390880000000  0.4878390000000 1.0
C      1  0.5214340000000  0.5854700000000  0.5611230000000 1.0
C      1  0.5610740000000  0.4148900000000  0.4789570000000 1.0
C      1  0.4790470000000  0.5854560000000  0.4389700000000 1.0
C      1  0.4389210000000  0.4150900000000  0.5213440000000 1.0
C      1  0.5766350000000  0.5141220000000  0.5741490000000 1.0
C      1  0.5741570000000  0.4861140000000  0.4236110000000 1.0
C      1  0.4236420000000  0.5142500000000  0.4260320000000 1.0
C      1  0.4260410000000  0.4864190000000  0.5766040000000 1.0
C      1  0.4911950000000  0.5222510000000  0.5831240000000 1.0
C      1  0.5831260000000  0.4781510000000  0.5090680000000 1.0
C      1  0.5091060000000  0.5221250000000  0.4170470000000 1.0
C      1  0.4170490000000  0.4783770000000  0.4911560000000 1.0
C      1  0.5591550000000  0.4445080000000  0.5273940000000 1.0
C      1  0.5274600000000  0.5558020000000  0.4409490000000 1.0
C      1  0.4409240000000  0.4446430000000  0.4728710000000 1.0
C      1  0.4729360000000  0.5559520000000  0.5591800000000 1.0
C      1  0.5746640000000  0.5437950000000  0.5356640000000 1.0
C      1  0.5356480000000  0.4564770000000  0.4256420000000 1.0
C      1  0.4256980000000  0.5439640000000  0.4644810000000 1.0
C      1  0.4644650000000  0.4566690000000  0.5746080000000 1.0
C      1  0.4941080000000  0.4149920000000  0.4767310000000 1.0
C      1  0.4768210000000  0.5854920000000  0.5059370000000 1.0
C      1  0.5058870000000  0.4150030000000  0.5235700000000 1.0
C      1  0.5236600000000  0.5854180000000  0.4941570000000 1.0
C      1  0.4790020000000  0.5968470000000  0.5323270000000 1.0
C      1  0.5322680000000  0.4036220000000  0.5214120000000 1.0
C      1  0.5215110000000  0.5967470000000  0.4677530000000 1.0
C      1  0.4676940000000  0.4036880000000  0.4789030000000 1.0
C      1  0.5600650000000  0.5109710000000  0.4195770000000 1.0
C      1  0.4195890000000  0.4894250000000  0.4401750000000 1.0
C      1  0.4402040000000  0.5112400000000  0.5806070000000 1.0
C      1  0.5806180000000  0.4892680000000  0.5600360000000 1.0
C      1  0.5646340000000  0.5586780000000  0.5126860000000 1.0
C      1  0.5126580000000  0.4416330000000  0.4357030000000 1.0
C      1  0.4357710000000  0.5588460000000  0.4874400000000 1.0
C      1  0.4874120000000  0.4417480000000  0.5645660000000 1.0
C      1  0.5336210000000  0.5061950000000  0.4132010000000 1.0
C      1  0.4132170000000  0.4942610000000  0.4666090000000 1.0
C      1  0.4666340000000  0.5063960000000  0.5869890000000 1.0
C      1  0.5870040000000  0.4940530000000  0.5335960000000 1.0
C      1  0.4201940000000  0.4575390000000  0.5414410000000 1.0
C      1  0.5414960000000  0.5430420000000  0.5799370000000 1.0
C      1  0.5799220000000  0.4572610000000  0.4588090000000 1.0
C      1  0.4588640000000  0.5430630000000  0.4202080000000 1.0
C      1  0.5117060000000  0.5061370000000  0.5958170000000 1.0
C      1  0.5958320000000  0.4942140000000  0.4885240000000 1.0
C      1  0.4885490000000  0.5060540000000  0.4043730000000 1.0
C      1  0.4043890000000  0.4945010000000  0.5116810000000 1.0
C      1  0.4273250000000  0.5465160000000  0.5425910000000 1.0
C      1  0.5425740000000  0.4540490000000  0.5729860000000 1.0
C      1  0.5730440000000  0.5462570000000  0.4575500000000 1.0
C      1  0.4575320000000  0.4540820000000  0.4272670000000 1.0
C      1  0.5000230000000  0.4328790000000  0.5001400000000 1.0
C      1  0.5002150000000  0.5675740000000  0.5000580000000 1.0
C      1  0.5001190000000  0.5002260000000  0.5000990000000 1.0
END
