TITL C-100362-8033-1 -0.992596991963803 125000 -60.8229605724341 0 0 10 (C1) n - 1
REM
REM in /rds/project/t2_vol4/rds-t2-cs072/BORA/CARBON/from-Arr/AIRSS/Generating-Clusters/GAP-ML-2020/Higher-Symm/SD-CG/HFTN-CG
REM
REM
REM
REM
REM
REM ./C.cell (b20cbc046b6831c77cfcea5457e17084)
REM AIRSS Version 0.9.1 bugfix July 2018 build 013d7b7c2542+ Fri, 06 Jul 2018 19:26:36 +0100
REM compiler GCC version 9.3.0
REM options -cpp -mtune=generic -march=x86-64 -g -O0
REM seed -423321812 1218420745 -550498040 4724379 799239808 1799825651 1497933 -1427473395 426370442 -1660402044 -912244758 -2081251267 1087657707 -314799837 -1879367993 85263792 -1764053858 1133383107 609550039 339054825 -1408784458 -1883975255 -174178824 2123772316 -1966493326 -1888051169 -47117133 -1313444406 1705380629 216977916 1976305767 646843239 -1478927851
REM
CELL 1.54180   50.00000   50.00000   50.00000   90.00000   90.00000   90.00000
LATT -1
SFAC C  
C      1  0.4730990000000  0.5126020000000  0.5258420000000 1.0
C      1  0.5362080000000  0.4758520000000  0.5198600000000 1.0
C      1  0.4989700000000  0.5172660000000  0.5226580000000 1.0
C      1  0.4672640000000  0.5011320000000  0.4776380000000 1.0
C      1  0.5095600000000  0.4766140000000  0.4775320000000 1.0
C      1  0.5118450000000  0.5207560000000  0.4860270000000 1.0
C      1  0.4627940000000  0.5064270000000  0.5025950000000 1.0
C      1  0.5128030000000  0.5364800000000  0.5076930000000 1.0
C      1  0.5251170000000  0.4720210000000  0.4975140000000 1.0
C      1  0.4960190000000  0.4999860000000  0.4752940000000 1.0
END
