TITL C-100742-6471-8 13.5454945179942 125000 -579.417253694874 0 0 85 (C1) n - 1
REM
REM in /rds/project/t2_vol4/rds-t2-cs072/BORA/CARBON/from-Arr/AIRSS/Generating-Clusters/GAP-ML-2020/Higher-Symm/SD-CG/HFTN-CG
REM
REM
REM
REM
REM
REM ./C.cell (b20cbc046b6831c77cfcea5457e17084)
REM AIRSS Version 0.9.1 bugfix July 2018 build 013d7b7c2542+ Fri, 06 Jul 2018 19:26:36 +0100
REM compiler GCC version 9.3.0
REM options -cpp -mtune=generic -march=x86-64 -g -O0
REM seed -800198360 -1221343359 1601642994 1415788553 -1020224070 -353906144 544959602 942718563 643381855 -1841617426 236151450 -225244284 -1080130613 -668195807 1265667661 -1344745567 -1725023041 1449563978 -1741157430 596857173 835691424 -1167410674 1359263119 1100206862 -699198018 1066719167 493345072 -233400628 1183943429 -1080823451 2006691580 1403280136 656068084
REM
CELL 1.54180   50.00000   50.00000   50.00000   90.00000   90.00000   90.00000
LATT -1
SFAC C  
C      1  0.4934970000000  0.4204700000000  0.5366680000000 1.0
C      1  0.5529830000000  0.4599510000000  0.5451850000000 1.0
C      1  0.5667530000000  0.5316780000000  0.5475030000000 1.0
C      1  0.5065890000000  0.5736270000000  0.5484400000000 1.0
C      1  0.4417230000000  0.5402060000000  0.5493640000000 1.0
C      1  0.4427500000000  0.4660990000000  0.5493940000000 1.0
C      1  0.5049140000000  0.4311920000000  0.4499740000000 1.0
C      1  0.4361230000000  0.4555470000000  0.4645630000000 1.0
C      1  0.4312640000000  0.5288960000000  0.4623930000000 1.0
C      1  0.4914780000000  0.5665180000000  0.4571150000000 1.0
C      1  0.5604020000000  0.5415510000000  0.4526350000000 1.0
C      1  0.5666150000000  0.4685010000000  0.4512990000000 1.0
C      1  0.4819010000000  0.4765020000000  0.5311360000000 1.0
C      1  0.5102430000000  0.4694770000000  0.5291610000000 1.0
C      1  0.5234980000000  0.4931680000000  0.5179710000000 1.0
C      1  0.5244420000000  0.5198100000000  0.5306040000000 1.0
C      1  0.4955610000000  0.5275850000000  0.5317360000000 1.0
C      1  0.4802060000000  0.5049530000000  0.5221500000000 1.0
C      1  0.5219240000000  0.4802940000000  0.4694780000000 1.0
C      1  0.4948010000000  0.4786360000000  0.4788670000000 1.0
C      1  0.4709290000000  0.4943440000000  0.4695310000000 1.0
C      1  0.4797230000000  0.5229370000000  0.4716560000000 1.0
C      1  0.5072390000000  0.5224310000000  0.4823280000000 1.0
C      1  0.5299020000000  0.5085200000000  0.4713050000000 1.0
C      1  0.5678970000000  0.5047510000000  0.5452700000000 1.0
C      1  0.5327760000000  0.5649530000000  0.5471290000000 1.0
C      1  0.4601530000000  0.5613770000000  0.5485690000000 1.0
C      1  0.4336070000000  0.4927010000000  0.5535810000000 1.0
C      1  0.4725690000000  0.4352900000000  0.5429840000000 1.0
C      1  0.5390220000000  0.4373990000000  0.5456770000000 1.0
C      1  0.4311410000000  0.5034190000000  0.4539930000000 1.0
C      1  0.4651540000000  0.5639470000000  0.4554210000000 1.0
C      1  0.5374480000000  0.5571010000000  0.4541570000000 1.0
C      1  0.5731080000000  0.4955000000000  0.4522020000000 1.0
C      1  0.5327320000000  0.4344990000000  0.4510500000000 1.0
C      1  0.4585620000000  0.4461250000000  0.4523610000000 1.0
C      1  0.5190410000000  0.4263230000000  0.5268820000000 1.0
C      1  0.5662110000000  0.4806310000000  0.5306450000000 1.0
C      1  0.5536070000000  0.5524570000000  0.5312750000000 1.0
C      1  0.4825170000000  0.5694270000000  0.5331970000000 1.0
C      1  0.4366570000000  0.5157630000000  0.5355430000000 1.0
C      1  0.4494080000000  0.4468970000000  0.5283040000000 1.0
C      1  0.4819860000000  0.4358140000000  0.4656500000000 1.0
C      1  0.4289890000000  0.4802750000000  0.4734740000000 1.0
C      1  0.4456090000000  0.5499400000000  0.4731410000000 1.0
C      1  0.5163750000000  0.5660820000000  0.4704870000000 1.0
C      1  0.5698000000000  0.5190690000000  0.4679600000000 1.0
C      1  0.5514460000000  0.4495830000000  0.4665750000000 1.0
C      1  0.4591730000000  0.5450100000000  0.5711740000000 1.0
C      1  0.4398610000000  0.4981200000000  0.5803640000000 1.0
C      1  0.4712000000000  0.4624920000000  0.5575490000000 1.0
C      1  0.5242300000000  0.4638360000000  0.5545180000000 1.0
C      1  0.5415920000000  0.5157610000000  0.5552570000000 1.0
C      1  0.5152270000000  0.5561820000000  0.5684240000000 1.0
C      1  0.5405420000000  0.5389850000000  0.4325840000000 1.0
C      1  0.5581300000000  0.4855520000000  0.4304520000000 1.0
C      1  0.5188800000000  0.4439630000000  0.4287900000000 1.0
C      1  0.4631300000000  0.4657590000000  0.4316910000000 1.0
C      1  0.4571650000000  0.4932070000000  0.4408780000000 1.0
C      1  0.4825870000000  0.5396110000000  0.4467050000000 1.0
C      1  0.5501190000000  0.4862130000000  0.5057960000000 1.0
C      1  0.5391260000000  0.5366330000000  0.5097910000000 1.0
C      1  0.4881070000000  0.5501090000000  0.5114180000000 1.0
C      1  0.4532410000000  0.5121620000000  0.5106860000000 1.0
C      1  0.4650920000000  0.4631010000000  0.5085260000000 1.0
C      1  0.5150360000000  0.4489140000000  0.5066200000000 1.0
C      1  0.4512840000000  0.4870310000000  0.4924810000000 1.0
C      1  0.4642840000000  0.5367580000000  0.4939960000000 1.0
C      1  0.5140960000000  0.5487870000000  0.4949280000000 1.0
C      1  0.5520950000000  0.5138200000000  0.4913030000000 1.0
C      1  0.5379980000000  0.4629400000000  0.4893280000000 1.0
C      1  0.4878690000000  0.4517380000000  0.4904900000000 1.0
C      1  0.4675580000000  0.5000880000000  0.5853350000000 1.0
C      1  0.4846120000000  0.4778100000000  0.5789270000000 1.0
C      1  0.5123880000000  0.4824880000000  0.5750420000000 1.0
C      1  0.5227030000000  0.5091080000000  0.5763030000000 1.0
C      1  0.5056560000000  0.5316880000000  0.5805200000000 1.0
C      1  0.4777260000000  0.5270130000000  0.5836640000000 1.0
C      1  0.5328010000000  0.4915670000000  0.4187500000000 1.0
C      1  0.5139670000000  0.4697110000000  0.4169480000000 1.0
C      1  0.4863270000000  0.4756940000000  0.4166380000000 1.0
C      1  0.4780260000000  0.5027080000000  0.4216330000000 1.0
C      1  0.4956110000000  0.5238180000000  0.4253260000000 1.0
C      1  0.5235240000000  0.5187580000000  0.4219080000000 1.0
C      1  0.5010570000000  0.4995190000000  0.5000080000000 1.0
END
