TITL C-100361-5798-2 -0.217901315468222 125000 -826.596229452258 0 0 119 (S4) n - 1
REM
REM in /rds/project/t2_vol4/rds-t2-cs072/BORA/CARBON/from-Arr/AIRSS/Generating-Clusters/GAP-ML-2020/Higher-Symm/SD-CG/HFTN-CG
REM
REM
REM
REM
REM
REM ./C.cell (b20cbc046b6831c77cfcea5457e17084)
REM AIRSS Version 0.9.1 bugfix July 2018 build 013d7b7c2542+ Fri, 06 Jul 2018 19:26:36 +0100
REM compiler GCC version 9.3.0
REM options -cpp -mtune=generic -march=x86-64 -g -O0
REM seed 2058056837 -839416926 -1865904212 -296512052 -1534460856 -657133521 1692168593 1475222547 -26373198 371460166 -372411893 1045283065 1053735508 -1079883040 -1629468786 563575040 -1519983168 -1170719788 550044774 -225769205 703944137 -733135004 1721125735 -1721758471 -976470217 513676661 187547839 1369332319 -575154948 -683727477 248562040 -89166760 2064327463
REM
CELL 1.54180   50.00000   50.00000   50.00000   90.00000   90.00000   90.00000
LATT -1
SFAC C  
C      1  0.4917240000000  0.5483970000000  0.5568040000000 1.0
C      1  0.4430190000000  0.4521800000000  0.4919670000000 1.0
C      1  0.5078640000000  0.5483930000000  0.4432630000000 1.0
C      1  0.5565600000000  0.4521750000000  0.5081070000000 1.0
C      1  0.5313990000000  0.5374970000000  0.4852150000000 1.0
C      1  0.5146090000000  0.4630740000000  0.5316410000000 1.0
C      1  0.4681890000000  0.5375010000000  0.5148530000000 1.0
C      1  0.4849710000000  0.4630740000000  0.4684310000000 1.0
C      1  0.4357050000000  0.4534740000000  0.4405950000000 1.0
C      1  0.5592350000000  0.5470950000000  0.4359490000000 1.0
C      1  0.5638740000000  0.4534710000000  0.5594780000000 1.0
C      1  0.4403530000000  0.5471050000000  0.5641180000000 1.0
C      1  0.4093770000000  0.4738670000000  0.5137730000000 1.0
C      1  0.4860560000000  0.5267090000000  0.4096200000000 1.0
C      1  0.5902050000000  0.4738570000000  0.4862990000000 1.0
C      1  0.5135300000000  0.5267130000000  0.5904480000000 1.0
C      1  0.4617600000000  0.4394540000000  0.4384950000000 1.0
C      1  0.5613370000000  0.5611140000000  0.4620040000000 1.0
C      1  0.5378190000000  0.4394550000000  0.5615790000000 1.0
C      1  0.4382530000000  0.5611230000000  0.5380630000000 1.0
C      1  0.5361150000000  0.4771200000000  0.5166550000000 1.0
C      1  0.4831740000000  0.5234540000000  0.5363580000000 1.0
C      1  0.4634670000000  0.4771220000000  0.4834160000000 1.0
C      1  0.5164130000000  0.5234500000000  0.4637110000000 1.0
C      1  0.5791160000000  0.4417650000000  0.5374880000000 1.0
C      1  0.4623430000000  0.5588090000000  0.5793600000000 1.0
C      1  0.4204620000000  0.4417710000000  0.4625860000000 1.0
C      1  0.5372460000000  0.5588010000000  0.4207060000000 1.0
C      1  0.5929160000000  0.4885550000000  0.5236330000000 1.0
C      1  0.4761950000000  0.5120190000000  0.5931590000000 1.0
C      1  0.4066670000000  0.4885620000000  0.4764380000000 1.0
C      1  0.5233900000000  0.5120100000000  0.4069100000000 1.0
C      1  0.4631510000000  0.4544730000000  0.5610450000000 1.0
C      1  0.4387860000000  0.5461050000000  0.4633940000000 1.0
C      1  0.5364290000000  0.4544660000000  0.4390280000000 1.0
C      1  0.5608020000000  0.5461020000000  0.5366730000000 1.0
C      1  0.5219960000000  0.4308180000000  0.4828190000000 1.0
C      1  0.5170130000000  0.5697530000000  0.5222400000000 1.0
C      1  0.4775820000000  0.4308210000000  0.5172550000000 1.0
C      1  0.4825780000000  0.5697530000000  0.4778260000000 1.0
C      1  0.4823620000000  0.5617560000000  0.4494390000000 1.0
C      1  0.5503830000000  0.4388130000000  0.4826040000000 1.0
C      1  0.5172280000000  0.5617570000000  0.5506270000000 1.0
C      1  0.4491950000000  0.4388190000000  0.5174700000000 1.0
C      1  0.4362500000000  0.5186070000000  0.4643640000000 1.0
C      1  0.5354620000000  0.4819650000000  0.4364930000000 1.0
C      1  0.5633360000000  0.5186030000000  0.5357050000000 1.0
C      1  0.4641210000000  0.4819720000000  0.5635790000000 1.0
C      1  0.5178000000000  0.4809260000000  0.5786840000000 1.0
C      1  0.4211450000000  0.5196530000000  0.5180430000000 1.0
C      1  0.4817820000000  0.4809230000000  0.4213880000000 1.0
C      1  0.5784410000000  0.5196440000000  0.4820260000000 1.0
C      1  0.5334820000000  0.4981120000000  0.4634220000000 1.0
C      1  0.5364050000000  0.5024580000000  0.5337250000000 1.0
C      1  0.4661020000000  0.4981170000000  0.5366480000000 1.0
C      1  0.4631790000000  0.5024590000000  0.4663450000000 1.0
C      1  0.5654430000000  0.5045710000000  0.4605930000000 1.0
C      1  0.5392330000000  0.4959980000000  0.5656860000000 1.0
C      1  0.4341420000000  0.5045790000000  0.5394770000000 1.0
C      1  0.4603500000000  0.4959980000000  0.4343850000000 1.0
C      1  0.4593080000000  0.5820440000000  0.5360450000000 1.0
C      1  0.4637760000000  0.4185330000000  0.4595500000000 1.0
C      1  0.5402840000000  0.5820370000000  0.4640200000000 1.0
C      1  0.5358000000000  0.4185320000000  0.5405260000000 1.0
C      1  0.4738830000000  0.5735100000000  0.5584360000000 1.0
C      1  0.4413850000000  0.4270680000000  0.4741250000000 1.0
C      1  0.5257080000000  0.5735040000000  0.4416300000000 1.0
C      1  0.5581920000000  0.4270640000000  0.5259500000000 1.0
C      1  0.4368520000000  0.5192250000000  0.5652510000000 1.0
C      1  0.4345740000000  0.4813540000000  0.4370940000000 1.0
C      1  0.5627340000000  0.5192140000000  0.4348180000000 1.0
C      1  0.5650080000000  0.4813520000000  0.5629770000000 1.0
C      1  0.4886560000000  0.4098220000000  0.4708800000000 1.0
C      1  0.5289540000000  0.5907490000000  0.4889010000000 1.0
C      1  0.5109190000000  0.4098230000000  0.5291960000000 1.0
C      1  0.4706380000000  0.5907520000000  0.5111640000000 1.0
C      1  0.5122650000000  0.4397100000000  0.4373330000000 1.0
C      1  0.5624990000000  0.5608580000000  0.5125090000000 1.0
C      1  0.4873130000000  0.4397150000000  0.5627410000000 1.0
C      1  0.4370910000000  0.5608630000000  0.4875570000000 1.0
C      1  0.5629840000000  0.5447520000000  0.4865460000000 1.0
C      1  0.5132780000000  0.4558190000000  0.5632260000000 1.0
C      1  0.4366050000000  0.5447590000000  0.5135220000000 1.0
C      1  0.4863020000000  0.4558160000000  0.4368470000000 1.0
C      1  0.4428090000000  0.4527050000000  0.5410060000000 1.0
C      1  0.4588250000000  0.5478720000000  0.4430530000000 1.0
C      1  0.5567700000000  0.4526970000000  0.4590670000000 1.0
C      1  0.5407630000000  0.5478720000000  0.5570140000000 1.0
C      1  0.5068050000000  0.4585980000000  0.4856330000000 1.0
C      1  0.5141970000000  0.5419740000000  0.5070490000000 1.0
C      1  0.4927750000000  0.4585990000000  0.5144390000000 1.0
C      1  0.4853910000000  0.5419750000000  0.4930190000000 1.0
C      1  0.5135130000000  0.5392370000000  0.4140150000000 1.0
C      1  0.5858090000000  0.4613280000000  0.5137550000000 1.0
C      1  0.4860750000000  0.5392440000000  0.5860520000000 1.0
C      1  0.4137720000000  0.4613360000000  0.4863180000000 1.0
C      1  0.4537840000000  0.5016830000000  0.5811870000000 1.0
C      1  0.4186400000000  0.4988970000000  0.4540270000000 1.0
C      1  0.5458000000000  0.5016740000000  0.4188830000000 1.0
C      1  0.5809440000000  0.4988920000000  0.5460430000000 1.0
C      1  0.4883260000000  0.4201920000000  0.5428320000000 1.0
C      1  0.4570010000000  0.5803840000000  0.4885700000000 1.0
C      1  0.5112510000000  0.4201890000000  0.4572430000000 1.0
C      1  0.5425910000000  0.5803810000000  0.5114950000000 1.0
C      1  0.4250750000000  0.4752730000000  0.5368120000000 1.0
C      1  0.4630170000000  0.5253040000000  0.4253180000000 1.0
C      1  0.5745070000000  0.4752640000000  0.4632590000000 1.0
C      1  0.5365700000000  0.5253050000000  0.5747500000000 1.0
C      1  0.5102640000000  0.5170550000000  0.5229380000000 1.0
C      1  0.4768880000000  0.4835190000000  0.5105070000000 1.0
C      1  0.4893210000000  0.5170550000000  0.4771310000000 1.0
C      1  0.5226940000000  0.4835170000000  0.4895640000000 1.0
C      1  0.4067800000000  0.5004230000000  0.5028940000000 1.0
C      1  0.4969330000000  0.5001510000000  0.4070230000000 1.0
C      1  0.5928040000000  0.5004140000000  0.4971760000000 1.0
C      1  0.5026510000000  0.5001570000000  0.5930480000000 1.0
C      1  0.4997880000000  0.4145620000000  0.5000380000000 1.0
C      1  0.4997960000000  0.5860110000000  0.5000320000000 1.0
C      1  0.4997920000000  0.5002860000000  0.5000350000000 1.0
END
