TITL C-109512-6167-4 -99.6360247239146 125000 -680.772239212197 0 0 97 (C1) n - 1
REM
REM in /rds/project/t2_vol4/rds-t2-cs072/BORA/CARBON/from-Arr/AIRSS/Generating-Clusters/GAP-ML-2020/Higher-Symm/SD-CG/HFTN-CG
REM
REM
REM
REM
REM
REM ./C.cell (b20cbc046b6831c77cfcea5457e17084)
REM AIRSS Version 0.9.1 bugfix July 2018 build 013d7b7c2542+ Fri, 06 Jul 2018 19:26:36 +0100
REM compiler GCC version 9.3.0
REM options -cpp -mtune=generic -march=x86-64 -g -O0
REM seed -796855582 743956010 1391860672 509756978 -887534192 -960912118 854839886 1964507086 -1532656811 978347979 2140313579 362776346 -282684320 1782665581 -1893712587 -688632968 -1394364632 2045281844 533099560 -147814787 766997088 780318811 1573166764 -955522761 -1265441415 452969022 1485481479 1146586387 668326855 1379987721 -1670383203 657206656 -398465573
REM
CELL 1.54180   50.00000   50.00000   50.00000   90.00000   90.00000   90.00000
LATT -1
SFAC C  
C      1  0.5138820000000  0.5491050000000  0.5079420000000 1.0
C      1  0.4687850000000  0.5371630000000  0.5009700000000 1.0
C      1  0.4603350000000  0.4893050000000  0.5006730000000 1.0
C      1  0.4856710000000  0.4484970000000  0.5010280000000 1.0
C      1  0.5196890000000  0.4807370000000  0.4998230000000 1.0
C      1  0.5488950000000  0.5148370000000  0.5015220000000 1.0
C      1  0.5106100000000  0.4564660000000  0.5018160000000 1.0
C      1  0.4636820000000  0.4633820000000  0.5005640000000 1.0
C      1  0.4763830000000  0.5103780000000  0.5000840000000 1.0
C      1  0.4884880000000  0.5554640000000  0.5040800000000 1.0
C      1  0.5227750000000  0.5254470000000  0.5011810000000 1.0
C      1  0.5470680000000  0.4879520000000  0.5007790000000 1.0
C      1  0.4857500000000  0.4461860000000  0.5644070000000 1.0
C      1  0.5380510000000  0.4618320000000  0.5636130000000 1.0
C      1  0.5518430000000  0.5154880000000  0.5644220000000 1.0
C      1  0.5140480000000  0.5548670000000  0.5637620000000 1.0
C      1  0.4618490000000  0.5382230000000  0.5642530000000 1.0
C      1  0.4479880000000  0.4849570000000  0.5630640000000 1.0
C      1  0.4867000000000  0.5536920000000  0.5645760000000 1.0
C      1  0.5392980000000  0.5401380000000  0.5640840000000 1.0
C      1  0.5512620000000  0.4860260000000  0.5642380000000 1.0
C      1  0.5130400000000  0.4466390000000  0.5634440000000 1.0
C      1  0.4607700000000  0.4608970000000  0.5640190000000 1.0
C      1  0.4483970000000  0.5142390000000  0.5634450000000 1.0
C      1  0.4398460000000  0.5510270000000  0.5001350000000 1.0
C      1  0.4141170000000  0.4663730000000  0.4992120000000 1.0
C      1  0.4833150000000  0.4152940000000  0.4999760000000 1.0
C      1  0.5679480000000  0.4429370000000  0.4994720000000 1.0
C      1  0.5770190000000  0.5284850000000  0.5002600000000 1.0
C      1  0.5145240000000  0.5935780000000  0.4994940000000 1.0
C      1  0.4335130000000  0.4431500000000  0.4992190000000 1.0
C      1  0.4177330000000  0.5300270000000  0.4994170000000 1.0
C      1  0.4841460000000  0.5858010000000  0.5001990000000 1.0
C      1  0.5700090000000  0.5583360000000  0.4994570000000 1.0
C      1  0.5748090000000  0.4726300000000  0.5001550000000 1.0
C      1  0.5135600000000  0.4089360000000  0.4995780000000 1.0
C      1  0.5778440000000  0.4861000000000  0.5496760000000 1.0
C      1  0.5524030000000  0.5629010000000  0.5485050000000 1.0
C      1  0.4727250000000  0.5767070000000  0.5498950000000 1.0
C      1  0.4221430000000  0.5141260000000  0.5482850000000 1.0
C      1  0.4473500000000  0.4376170000000  0.5495620000000 1.0
C      1  0.5264450000000  0.4239860000000  0.5482310000000 1.0
C      1  0.5784960000000  0.5147780000000  0.5498780000000 1.0
C      1  0.5511730000000  0.4390210000000  0.5484160000000 1.0
C      1  0.4721730000000  0.4229600000000  0.5500410000000 1.0
C      1  0.4216040000000  0.4853220000000  0.5478980000000 1.0
C      1  0.4484530000000  0.5612930000000  0.5497040000000 1.0
C      1  0.5273430000000  0.5777850000000  0.5481460000000 1.0
C      1  0.5583810000000  0.4490070000000  0.4557540000000 1.0
C      1  0.5746350000000  0.5269590000000  0.4540180000000 1.0
C      1  0.5137360000000  0.5779150000000  0.4564140000000 1.0
C      1  0.4395340000000  0.5508490000000  0.4539220000000 1.0
C      1  0.4251750000000  0.4723520000000  0.4553690000000 1.0
C      1  0.4844590000000  0.4200500000000  0.4539700000000 1.0
C      1  0.5592390000000  0.5513080000000  0.4561270000000 1.0
C      1  0.5738720000000  0.4732130000000  0.4538770000000 1.0
C      1  0.5131180000000  0.4216610000000  0.4558110000000 1.0
C      1  0.4381970000000  0.4468070000000  0.4535950000000 1.0
C      1  0.4264610000000  0.5253160000000  0.4555430000000 1.0
C      1  0.4849780000000  0.5787730000000  0.4545010000000 1.0
C      1  0.4667830000000  0.4142270000000  0.4755600000000 1.0
C      1  0.5547970000000  0.4313890000000  0.4776850000000 1.0
C      1  0.5867190000000  0.5142320000000  0.4757610000000 1.0
C      1  0.5306810000000  0.5851850000000  0.4777690000000 1.0
C      1  0.4440130000000  0.5680290000000  0.4757780000000 1.0
C      1  0.4118570000000  0.4838290000000  0.4773870000000 1.0
C      1  0.4673780000000  0.5845140000000  0.4757030000000 1.0
C      1  0.5561590000000  0.5695060000000  0.4777030000000 1.0
C      1  0.5859640000000  0.4858630000000  0.4757490000000 1.0
C      1  0.5297790000000  0.4156400000000  0.4777080000000 1.0
C      1  0.4419510000000  0.4287520000000  0.4752490000000 1.0
C      1  0.4134760000000  0.5132000000000  0.4776100000000 1.0
C      1  0.5139680000000  0.5935720000000  0.5292050000000 1.0
C      1  0.4314690000000  0.5564880000000  0.5287770000000 1.0
C      1  0.4139410000000  0.4664710000000  0.5286540000000 1.0
C      1  0.4844590000000  0.4088860000000  0.5296340000000 1.0
C      1  0.5707220000000  0.4424210000000  0.5287210000000 1.0
C      1  0.5842440000000  0.5323700000000  0.5293300000000 1.0
C      1  0.5135700000000  0.4081430000000  0.5289210000000 1.0
C      1  0.4292200000000  0.4414360000000  0.5291100000000 1.0
C      1  0.4153190000000  0.5324460000000  0.5284550000000 1.0
C      1  0.4852280000000  0.5915630000000  0.5299330000000 1.0
C      1  0.5721840000000  0.5588590000000  0.5289170000000 1.0
C      1  0.5829730000000  0.4687360000000  0.5289870000000 1.0
C      1  0.5376680000000  0.5387380000000  0.4394670000000 1.0
C      1  0.4850480000000  0.5526410000000  0.4390880000000 1.0
C      1  0.4473220000000  0.5127080000000  0.4381280000000 1.0
C      1  0.4605470000000  0.4595420000000  0.4374210000000 1.0
C      1  0.5134610000000  0.4467070000000  0.4393410000000 1.0
C      1  0.5520670000000  0.4862400000000  0.4376800000000 1.0
C      1  0.5368730000000  0.4610670000000  0.4386180000000 1.0
C      1  0.4843070000000  0.4458420000000  0.4379220000000 1.0
C      1  0.4466820000000  0.4852610000000  0.4388240000000 1.0
C      1  0.4614350000000  0.5386420000000  0.4374210000000 1.0
C      1  0.5139660000000  0.5524450000000  0.4405760000000 1.0
C      1  0.5524870000000  0.5137560000000  0.4380930000000 1.0
C      1  0.5044150000000  0.5048800000000  0.4981220000000 1.0
END
