TITL C-109521-7411-1 -0.0369588087068992 125000 -57.0590861178898 0 0 9 (D2d) n - 1
REM
REM in /rds/project/t2_vol4/rds-t2-cs072/BORA/CARBON/from-Arr/AIRSS/Generating-Clusters/GAP-ML-2020/Higher-Symm/SD-CG/HFTN-CG
REM
REM
REM
REM
REM
REM ./C.cell (b20cbc046b6831c77cfcea5457e17084)
REM AIRSS Version 0.9.1 bugfix July 2018 build 013d7b7c2542+ Fri, 06 Jul 2018 19:26:36 +0100
REM compiler GCC version 9.3.0
REM options -cpp -mtune=generic -march=x86-64 -g -O0
REM seed 515616591 1038808208 -356461631 1485557252 755314721 2069721362 942496607 335753421 957180398 795310148 1104398982 1022824046 -1525135422 2106077219 229625977 1105676038 -468727006 1909691873 1883141104 -1535025053 483178607 2038225664 921535647 34509668 410315544 -988745042 9139824 -732754864 -1180217941 -222863236 1404334195 1094184885 -721955562
REM
CELL 1.54180   50.00000   50.00000   50.00000   90.00000   90.00000   90.00000
LATT -1
SFAC C  
C      1  0.4691620000000  0.5467630000000  0.4881970000000 1.0
C      1  0.5259050000000  0.4640490000000  0.5113460000000 1.0
C      1  0.4477130000000  0.5635030000000  0.4921610000000 1.0
C      1  0.5462940000000  0.4514660000000  0.5248370000000 1.0
C      1  0.4836270000000  0.5256780000000  0.4940980000000 1.0
C      1  0.5114410000000  0.4851340000000  0.5054450000000 1.0
C      1  0.4637330000000  0.5692050000000  0.4732680000000 1.0
C      1  0.5323960000000  0.4374500000000  0.5088220000000 1.0
C      1  0.4975340000000  0.5054060000000  0.4997720000000 1.0
END
