TITL C-109528-6449-2 0.166109737479484 125000 -364.364297093903 0 0 55 (C3) n - 1
REM
REM in /rds/project/t2_vol4/rds-t2-cs072/BORA/CARBON/from-Arr/AIRSS/Generating-Clusters/GAP-ML-2020/Higher-Symm/SD-CG/HFTN-CG
REM
REM
REM
REM
REM
REM ./C.cell (b20cbc046b6831c77cfcea5457e17084)
REM AIRSS Version 0.9.1 bugfix July 2018 build 013d7b7c2542+ Fri, 06 Jul 2018 19:26:36 +0100
REM compiler GCC version 9.3.0
REM options -cpp -mtune=generic -march=x86-64 -g -O0
REM seed -2145650829 1075604657 1117571035 -374444295 1980667095 1838024126 -442739700 -1796228617 396162018 -567402955 1894819103 381717058 -993634012 -143356386 -1327508198 -715728630 -1414642171 -726574918 1707593848 1735599437 1680448520 -2125164090 -1835275861 520345962 -1980025915 -2076989332 -419295128 2091605311 -875221008 1630558574 -2091776724 658511370 -151435436
REM
CELL 1.54180   50.00000   50.00000   50.00000   90.00000   90.00000   90.00000
LATT -1
SFAC C  
C      1  0.5163740000000  0.5384870000000  0.4467610000000 1.0
C      1  0.4590860000000  0.4952980000000  0.4467630000000 1.0
C      1  0.5251330000000  0.4672790000000  0.4467670000000 1.0
C      1  0.4844540000000  0.5369810000000  0.5540600000000 1.0
C      1  0.5397780000000  0.4956860000000  0.5540640000000 1.0
C      1  0.4763540000000  0.4684220000000  0.5540650000000 1.0
C      1  0.5203930000000  0.4787390000000  0.5186480000000 1.0
C      1  0.5088230000000  0.5286610000000  0.5186430000000 1.0
C      1  0.4713730000000  0.4936800000000  0.5186450000000 1.0
C      1  0.4741610000000  0.4973380000000  0.4910480000000 1.0
C      1  0.5105990000000  0.5244160000000  0.4910470000000 1.0
C      1  0.5158300000000  0.4793210000000  0.4910510000000 1.0
C      1  0.4610950000000  0.4661970000000  0.5266160000000 1.0
C      1  0.5493330000000  0.4835800000000  0.5266170000000 1.0
C      1  0.4901600000000  0.5513050000000  0.5266110000000 1.0
C      1  0.5372680000000  0.4649020000000  0.4752320000000 1.0
C      1  0.4509570000000  0.4859800000000  0.4752280000000 1.0
C      1  0.5123660000000  0.5501890000000  0.4752250000000 1.0
C      1  0.4661180000000  0.4477140000000  0.5044920000000 1.0
C      1  0.5628280000000  0.4971690000000  0.5044910000000 1.0
C      1  0.4716430000000  0.5561950000000  0.5044840000000 1.0
C      1  0.5405460000000  0.4430830000000  0.4961350000000 1.0
C      1  0.4304200000000  0.4940530000000  0.4961280000000 1.0
C      1  0.5296250000000  0.5639400000000  0.4961250000000 1.0
C      1  0.4579430000000  0.4574440000000  0.4782900000000 1.0
C      1  0.5584880000000  0.4852210000000  0.4782900000000 1.0
C      1  0.4841600000000  0.5584070000000  0.4782830000000 1.0
C      1  0.5473040000000  0.4540270000000  0.5227190000000 1.0
C      1  0.4365160000000  0.4827300000000  0.5227140000000 1.0
C      1  0.5167680000000  0.5643240000000  0.5227090000000 1.0
C      1  0.4674450000000  0.5240790000000  0.4451360000000 1.0
C      1  0.4960280000000  0.4601270000000  0.4451410000000 1.0
C      1  0.5371210000000  0.5168570000000  0.4451380000000 1.0
C      1  0.5325330000000  0.5248170000000  0.5554360000000 1.0
C      1  0.5052040000000  0.4601310000000  0.5554400000000 1.0
C      1  0.4628490000000  0.5161420000000  0.5554350000000 1.0
C      1  0.4755320000000  0.4766420000000  0.4358730000000 1.0
C      1  0.5330670000000  0.4908490000000  0.4358740000000 1.0
C      1  0.4919960000000  0.5335710000000  0.4358700000000 1.0
C      1  0.5248890000000  0.4766240000000  0.5669510000000 1.0
C      1  0.4672890000000  0.4908480000000  0.5669490000000 1.0
C      1  0.5084070000000  0.5336200000000  0.5669470000000 1.0
C      1  0.4493230000000  0.5410850000000  0.4931110000000 1.0
C      1  0.4903630000000  0.4359370000000  0.4931200000000 1.0
C      1  0.5609040000000  0.5240530000000  0.4931150000000 1.0
C      1  0.5512840000000  0.5467180000000  0.5063660000000 1.0
C      1  0.5148000000000  0.4329370000000  0.5063730000000 1.0
C      1  0.4345050000000  0.5214230000000  0.5063650000000 1.0
C      1  0.4473940000000  0.5096220000000  0.5310730000000 1.0
C      1  0.5185770000000  0.4500030000000  0.5310800000000 1.0
C      1  0.5346170000000  0.5414590000000  0.5310730000000 1.0
C      1  0.5550120000000  0.5117490000000  0.4665720000000 1.0
C      1  0.4826560000000  0.4471900000000  0.4665750000000 1.0
C      1  0.4629240000000  0.5421310000000  0.4665670000000 1.0
C      1  0.5001970000000  0.5003570000000  0.4820700000000 1.0
END
