TITL C-101433-5199-14 -0.0065133539988951 125000 -28.2972593223473 0 0 5 (D2h) n - 1
REM
REM in /rds/project/t2_vol4/rds-t2-cs072/BORA/CARBON/from-Arr/AIRSS/Generating-Clusters/GAP-ML-2020/Higher-Symm/SD-CG/HFTN-CG
REM
REM
REM
REM
REM
REM ./C.cell (b20cbc046b6831c77cfcea5457e17084)
REM AIRSS Version 0.9.1 bugfix July 2018 build 013d7b7c2542+ Fri, 06 Jul 2018 19:26:36 +0100
REM compiler GCC version 9.3.0
REM options -cpp -mtune=generic -march=x86-64 -g -O0
REM seed -975250031 -1791030547 840663475 1131324904 -1343873068 1829512840 48860325 -1412726159 -564750133 -913749139 -1465941017 1269266888 162175034 -1963269090 -1326261365 -2099168328 571426435 -1488707580 -1350484981 2063306214 236737342 131014358 183266798 426612537 -628245365 1933865099 -550151496 -1448964657 -1105611722 479744889 -64034503 -1374284565 1174395457
REM
CELL 1.54180   50.00000   50.00000   50.00000   90.00000   90.00000   90.00000
LATT -1
SFAC C  
C      1  0.4753380000000  0.5124420000000  0.5015090000000 1.0
C      1  0.5267940000000  0.4867670000000  0.5011930000000 1.0
C      1  0.4753890000000  0.4866650000000  0.5013130000000 1.0
C      1  0.5267430000000  0.5125440000000  0.5013890000000 1.0
C      1  0.5010660000000  0.4996050000000  0.5013510000000 1.0
END
