TITL C-109525-6246-4 -0.00231817583675102 125000 -578.412831947249 0 0 85 (C1) n - 1
REM
REM in /rds/project/t2_vol4/rds-t2-cs072/BORA/CARBON/from-Arr/AIRSS/Generating-Clusters/GAP-ML-2020/Higher-Symm/SD-CG/HFTN-CG
REM
REM
REM
REM
REM
REM ./C.cell (b20cbc046b6831c77cfcea5457e17084)
REM AIRSS Version 0.9.1 bugfix July 2018 build 013d7b7c2542+ Fri, 06 Jul 2018 19:26:36 +0100
REM compiler GCC version 9.3.0
REM options -cpp -mtune=generic -march=x86-64 -g -O0
REM seed -525919699 574162471 139156170 643748147 1938657627 -371818469 -1605304446 2117328321 -1292807122 1226343020 -1859835510 1961503471 -1097021945 -2074377928 -1062454857 -1217525885 1671708388 533007694 -2019120901 -754483566 -1910535953 -122373777 -1528558856 -2012228211 -2052496071 1262765640 -1908398862 788278915 1632649863 -227799495 133255398 1454897688 346334841
REM
CELL 1.54180   50.00000   50.00000   50.00000   90.00000   90.00000   90.00000
LATT -1
SFAC C  
C      1  0.5446240000000  0.4533760000000  0.5520460000000 1.0
C      1  0.4623750000000  0.4535740000000  0.5627060000000 1.0
C      1  0.4336900000000  0.4538990000000  0.4849390000000 1.0
C      1  0.4939640000000  0.4543010000000  0.4282540000000 1.0
C      1  0.5641680000000  0.4535460000000  0.4723630000000 1.0
C      1  0.5498670000000  0.4529780000000  0.4469490000000 1.0
C      1  0.4666360000000  0.4563870000000  0.4376620000000 1.0
C      1  0.4316400000000  0.4559520000000  0.5138830000000 1.0
C      1  0.4897580000000  0.4531290000000  0.5727030000000 1.0
C      1  0.5608000000000  0.4563170000000  0.5285260000000 1.0
C      1  0.5223480000000  0.4846250000000  0.4599690000000 1.0
C      1  0.5294690000000  0.4805130000000  0.5059660000000 1.0
C      1  0.5050110000000  0.4842310000000  0.5440920000000 1.0
C      1  0.4683960000000  0.4807110000000  0.5162990000000 1.0
C      1  0.4793820000000  0.4808770000000  0.4738040000000 1.0
C      1  0.5224780000000  0.4963650000000  0.5271570000000 1.0
C      1  0.5325950000000  0.4954150000000  0.4829670000000 1.0
C      1  0.4980800000000  0.4965700000000  0.4620950000000 1.0
C      1  0.4658460000000  0.4943690000000  0.4930010000000 1.0
C      1  0.4827790000000  0.4958100000000  0.5338090000000 1.0
C      1  0.5347420000000  0.4496870000000  0.5107000000000 1.0
C      1  0.4986880000000  0.4358540000000  0.5494810000000 1.0
C      1  0.4622920000000  0.4492650000000  0.5154840000000 1.0
C      1  0.4779280000000  0.4498240000000  0.4671690000000 1.0
C      1  0.5285890000000  0.4358320000000  0.4594610000000 1.0
C      1  0.5421580000000  0.4379530000000  0.4850640000000 1.0
C      1  0.5022590000000  0.4397770000000  0.4523430000000 1.0
C      1  0.4601610000000  0.4404280000000  0.4871970000000 1.0
C      1  0.4712860000000  0.4371130000000  0.5399280000000 1.0
C      1  0.5233470000000  0.4390560000000  0.5373540000000 1.0
C      1  0.5801910000000  0.4724930000000  0.4866340000000 1.0
C      1  0.5374840000000  0.4711790000000  0.5735900000000 1.0
C      1  0.4409670000000  0.4726860000000  0.5597120000000 1.0
C      1  0.4274180000000  0.4719860000000  0.4628990000000 1.0
C      1  0.5127020000000  0.4726620000000  0.4165520000000 1.0
C      1  0.5780190000000  0.4742250000000  0.5153090000000 1.0
C      1  0.5372090000000  0.4758630000000  0.4331570000000 1.0
C      1  0.4446910000000  0.4740470000000  0.4396980000000 1.0
C      1  0.4254010000000  0.4739430000000  0.5352010000000 1.0
C      1  0.5083120000000  0.4755080000000  0.5753610000000 1.0
C      1  0.4996700000000  0.4982310000000  0.4109220000000 1.0
C      1  0.5834540000000  0.4976320000000  0.4716220000000 1.0
C      1  0.5515510000000  0.4964200000000  0.5711490000000 1.0
C      1  0.4479900000000  0.4981130000000  0.5727700000000 1.0
C      1  0.4164570000000  0.4971690000000  0.4736960000000 1.0
C      1  0.4971290000000  0.5023560000000  0.5851660000000 1.0
C      1  0.5780940000000  0.5012540000000  0.5283390000000 1.0
C      1  0.5526850000000  0.5023140000000  0.4319920000000 1.0
C      1  0.4527760000000  0.5017160000000  0.4302210000000 1.0
C      1  0.4187690000000  0.5013380000000  0.5241800000000 1.0
C      1  0.5277070000000  0.5242730000000  0.5337210000000 1.0
C      1  0.4763920000000  0.5242990000000  0.5381450000000 1.0
C      1  0.4588720000000  0.5227800000000  0.4895680000000 1.0
C      1  0.4977160000000  0.5247250000000  0.4550070000000 1.0
C      1  0.5408070000000  0.5240490000000  0.4834830000000 1.0
C      1  0.5263760000000  0.5372720000000  0.4610450000000 1.0
C      1  0.4722140000000  0.5364520000000  0.4636740000000 1.0
C      1  0.4571950000000  0.5358950000000  0.5159730000000 1.0
C      1  0.5016670000000  0.5373330000000  0.5466830000000 1.0
C      1  0.5437410000000  0.5368340000000  0.5124400000000 1.0
C      1  0.4508950000000  0.5210550000000  0.5557610000000 1.0
C      1  0.4333240000000  0.5201810000000  0.4717210000000 1.0
C      1  0.5078360000000  0.5215040000000  0.4256230000000 1.0
C      1  0.5717500000000  0.5206770000000  0.4839970000000 1.0
C      1  0.5373920000000  0.5201120000000  0.5633210000000 1.0
C      1  0.4489610000000  0.5232680000000  0.4485550000000 1.0
C      1  0.4346900000000  0.5232350000000  0.5329090000000 1.0
C      1  0.5112880000000  0.5243620000000  0.5729640000000 1.0
C      1  0.5717270000000  0.5236080000000  0.5118880000000 1.0
C      1  0.5345610000000  0.5248320000000  0.4338590000000 1.0
C      1  0.5241600000000  0.5665590000000  0.4661980000000 1.0
C      1  0.5385890000000  0.5663530000000  0.5121750000000 1.0
C      1  0.5000450000000  0.5665960000000  0.5411800000000 1.0
C      1  0.4610190000000  0.5654680000000  0.5128690000000 1.0
C      1  0.4759240000000  0.5659000000000  0.4671140000000 1.0
C      1  0.5243290000000  0.5772000000000  0.5335770000000 1.0
C      1  0.5394550000000  0.5771930000000  0.4868580000000 1.0
C      1  0.4999280000000  0.5765570000000  0.4576250000000 1.0
C      1  0.4601850000000  0.5760780000000  0.4871760000000 1.0
C      1  0.4750120000000  0.5763850000000  0.5339100000000 1.0
C      1  0.4091240000000  0.5019760000000  0.4989820000000 1.0
C      1  0.4730990000000  0.5027610000000  0.4124000000000 1.0
C      1  0.4703860000000  0.5023920000000  0.5872470000000 1.0
C      1  0.5754360000000  0.5015410000000  0.4461590000000 1.0
C      1  0.5718740000000  0.5018980000000  0.5546500000000 1.0
END
