TITL C-101410-5182-7 0.0645434056758186 125000 -327.090817485241 0 0 48 (C1) n - 1
REM
REM in /rds/project/t2_vol4/rds-t2-cs072/BORA/CARBON/from-Arr/AIRSS/Generating-Clusters/GAP-ML-2020/Higher-Symm/SD-CG/HFTN-CG
REM
REM
REM
REM
REM
REM ./C.cell (b20cbc046b6831c77cfcea5457e17084)
REM AIRSS Version 0.9.1 bugfix July 2018 build 013d7b7c2542+ Fri, 06 Jul 2018 19:26:36 +0100
REM compiler GCC version 9.3.0
REM options -cpp -mtune=generic -march=x86-64 -g -O0
REM seed -1180505084 -1902340636 -1945868382 1222513225 1303892996 -552466365 -964730039 1257142869 990627442 -794941033 1037346583 -1826279488 744784395 -931744645 -425262565 877509349 720902779 1862772026 -687640414 -445447812 -355072918 55177472 740849304 161902910 2030970678 -739857560 -1769816698 1315956549 -1293967922 -1847247900 -1669486679 1061566195 -687268149
REM
CELL 1.54180   50.00000   50.00000   50.00000   90.00000   90.00000   90.00000
LATT -1
SFAC C  
C      1  0.4893980000000  0.4969570000000  0.4943570000000 1.0
C      1  0.5107590000000  0.5042700000000  0.5068660000000 1.0
C      1  0.5592080000000  0.4590130000000  0.5095500000000 1.0
C      1  0.4415230000000  0.5408080000000  0.5087850000000 1.0
C      1  0.5338810000000  0.5384990000000  0.5369610000000 1.0
C      1  0.4662090000000  0.4607840000000  0.5390660000000 1.0
C      1  0.4631050000000  0.5081570000000  0.4544720000000 1.0
C      1  0.5359320000000  0.4912410000000  0.4545860000000 1.0
C      1  0.5105930000000  0.4529510000000  0.5253750000000 1.0
C      1  0.4898480000000  0.5476060000000  0.5247380000000 1.0
C      1  0.5673840000000  0.4582370000000  0.4691620000000 1.0
C      1  0.4328110000000  0.5411150000000  0.4698240000000 1.0
C      1  0.5470860000000  0.5096280000000  0.4745240000000 1.0
C      1  0.4499430000000  0.4890940000000  0.4729780000000 1.0
C      1  0.4411960000000  0.4718240000000  0.5418910000000 1.0
C      1  0.5588320000000  0.5282690000000  0.5415010000000 1.0
C      1  0.5391170000000  0.5369420000000  0.4695040000000 1.0
C      1  0.4604300000000  0.4630150000000  0.4702720000000 1.0
C      1  0.4442390000000  0.5132890000000  0.5160560000000 1.0
C      1  0.5572410000000  0.4862330000000  0.5175110000000 1.0
C      1  0.5422640000000  0.4634590000000  0.4591610000000 1.0
C      1  0.4574180000000  0.5359840000000  0.4583130000000 1.0
C      1  0.4895260000000  0.5277560000000  0.5468660000000 1.0
C      1  0.5109960000000  0.4730390000000  0.5471480000000 1.0
C      1  0.5278200000000  0.4953910000000  0.5531000000000 1.0
C      1  0.4725880000000  0.5053450000000  0.5538940000000 1.0
C      1  0.5128180000000  0.5057940000000  0.4444080000000 1.0
C      1  0.4865000000000  0.4938450000000  0.4454170000000 1.0
C      1  0.5022960000000  0.5535320000000  0.4694100000000 1.0
C      1  0.4977370000000  0.4471260000000  0.4707890000000 1.0
C      1  0.5178960000000  0.5517250000000  0.5165810000000 1.0
C      1  0.4825270000000  0.4484930000000  0.5177670000000 1.0
C      1  0.5548090000000  0.4995170000000  0.5423990000000 1.0
C      1  0.4458840000000  0.5003140000000  0.5414470000000 1.0
C      1  0.4203470000000  0.5490410000000  0.4908750000000 1.0
C      1  0.5794140000000  0.4509440000000  0.4907690000000 1.0
C      1  0.4843980000000  0.4789550000000  0.5542360000000 1.0
C      1  0.5161460000000  0.5215670000000  0.5528530000000 1.0
C      1  0.5391970000000  0.5000770000000  0.4999210000000 1.0
C      1  0.4604150000000  0.4990510000000  0.4974220000000 1.0
C      1  0.4755900000000  0.4468540000000  0.4899550000000 1.0
C      1  0.5242910000000  0.5540070000000  0.4887510000000 1.0
C      1  0.5245550000000  0.4469750000000  0.4776740000000 1.0
C      1  0.4755460000000  0.5526900000000  0.4765260000000 1.0
C      1  0.4688330000000  0.5527330000000  0.5053450000000 1.0
C      1  0.5316580000000  0.4476080000000  0.5061010000000 1.0
C      1  0.5160550000000  0.5342690000000  0.4516290000000 1.0
C      1  0.4837430000000  0.4659790000000  0.4532630000000 1.0
END
