TITL C-100751-6449-9 -24.4762906579417 125000 -772.017932683383 0 0 110 (C1) n - 1
REM
REM in /rds/project/t2_vol4/rds-t2-cs072/BORA/CARBON/from-Arr/AIRSS/Generating-Clusters/GAP-ML-2020/Higher-Symm/SD-CG/HFTN-CG
REM
REM
REM
REM
REM
REM ./C.cell (b20cbc046b6831c77cfcea5457e17084)
REM AIRSS Version 0.9.1 bugfix July 2018 build 013d7b7c2542+ Fri, 06 Jul 2018 19:26:36 +0100
REM compiler GCC version 9.3.0
REM options -cpp -mtune=generic -march=x86-64 -g -O0
REM seed 2041890580 -724184373 -635182000 -857910945 860229466 409237579 882416031 364149096 -1454360293 1377881719 -523008717 1227395643 -1692883118 -1406603537 957227525 -181654402 1323451354 1301698523 754068698 313932833 473610974 1732111157 -1116570435 -555857488 1015180184 2004460252 469142323 1325386689 -1750327644 -1955842494 -1046932501 71018465 -1438703876
REM
CELL 1.54180   50.00000   50.00000   50.00000   90.00000   90.00000   90.00000
LATT -1
SFAC C  
C      1  0.4644480000000  0.4137000000000  0.5112740000000 1.0
C      1  0.4576580000000  0.4310500000000  0.5567320000000 1.0
C      1  0.4592820000000  0.4739580000000  0.5844850000000 1.0
C      1  0.4558490000000  0.5232270000000  0.5865090000000 1.0
C      1  0.4584620000000  0.5670540000000  0.5596180000000 1.0
C      1  0.4568790000000  0.5891940000000  0.5154790000000 1.0
C      1  0.4603030000000  0.5823470000000  0.4653540000000 1.0
C      1  0.4603120000000  0.5508850000000  0.4258010000000 1.0
C      1  0.4632320000000  0.5022910000000  0.4112260000000 1.0
C      1  0.4606850000000  0.4542260000000  0.4221510000000 1.0
C      1  0.4654380000000  0.4214940000000  0.4604550000000 1.0
C      1  0.5504560000000  0.4844520000000  0.4447160000000 1.0
C      1  0.5511440000000  0.4602840000000  0.4609630000000 1.0
C      1  0.5615390000000  0.4163460000000  0.4999820000000 1.0
C      1  0.5424250000000  0.4321890000000  0.5417560000000 1.0
C      1  0.5507730000000  0.4559190000000  0.5589310000000 1.0
C      1  0.5489670000000  0.5155270000000  0.5580950000000 1.0
C      1  0.5311690000000  0.5333380000000  0.5437300000000 1.0
C      1  0.5488790000000  0.5490790000000  0.5203600000000 1.0
C      1  0.5445270000000  0.5510310000000  0.4900300000000 1.0
C      1  0.5587570000000  0.5314120000000  0.4724550000000 1.0
C      1  0.5502630000000  0.5161760000000  0.4483080000000 1.0
C      1  0.5183360000000  0.5552030000000  0.4472080000000 1.0
C      1  0.5205380000000  0.5265160000000  0.4399380000000 1.0
C      1  0.5425340000000  0.4782780000000  0.4191060000000 1.0
C      1  0.5256340000000  0.4440060000000  0.4680890000000 1.0
C      1  0.5303120000000  0.4272240000000  0.4938980000000 1.0
C      1  0.5290140000000  0.4440850000000  0.5171280000000 1.0
C      1  0.5285360000000  0.4719400000000  0.5699580000000 1.0
C      1  0.5364870000000  0.4997650000000  0.5778580000000 1.0
C      1  0.5307080000000  0.5588740000000  0.5611130000000 1.0
C      1  0.5386700000000  0.5735110000000  0.5384300000000 1.0
C      1  0.5191410000000  0.5611160000000  0.4758130000000 1.0
C      1  0.5818360000000  0.5486720000000  0.4727920000000 1.0
C      1  0.5691540000000  0.5229190000000  0.4261750000000 1.0
C      1  0.5835170000000  0.5133910000000  0.4079680000000 1.0
C      1  0.5719610000000  0.4433450000000  0.4654510000000 1.0
C      1  0.5797460000000  0.4241800000000  0.4806490000000 1.0
C      1  0.5627420000000  0.4151000000000  0.5269700000000 1.0
C      1  0.5734340000000  0.4684900000000  0.5518320000000 1.0
C      1  0.5872860000000  0.4888610000000  0.5457020000000 1.0
C      1  0.5737730000000  0.5138220000000  0.5438570000000 1.0
C      1  0.5742850000000  0.5353480000000  0.5256060000000 1.0
C      1  0.5731570000000  0.5717170000000  0.4810960000000 1.0
C      1  0.4370190000000  0.4718520000000  0.5413240000000 1.0
C      1  0.4350330000000  0.4991830000000  0.5503080000000 1.0
C      1  0.4352720000000  0.5272610000000  0.5431350000000 1.0
C      1  0.4340950000000  0.5468480000000  0.5219450000000 1.0
C      1  0.4358720000000  0.5513800000000  0.4934690000000 1.0
C      1  0.4372220000000  0.5397390000000  0.4667890000000 1.0
C      1  0.4380270000000  0.5157930000000  0.4505350000000 1.0
C      1  0.4373990000000  0.4869000000000  0.4494080000000 1.0
C      1  0.4391330000000  0.4621420000000  0.4644540000000 1.0
C      1  0.4401470000000  0.4498060000000  0.4905760000000 1.0
C      1  0.4375550000000  0.4533410000000  0.5189230000000 1.0
C      1  0.5101360000000  0.4386070000000  0.4198050000000 1.0
C      1  0.5020350000000  0.3924660000000  0.4727800000000 1.0
C      1  0.4981550000000  0.4053640000000  0.5447570000000 1.0
C      1  0.5050110000000  0.4306150000000  0.5774610000000 1.0
C      1  0.4949280000000  0.4993530000000  0.6036470000000 1.0
C      1  0.5041270000000  0.5391850000000  0.5936110000000 1.0
C      1  0.4950280000000  0.5955780000000  0.5458680000000 1.0
C      1  0.5069410000000  0.5999320000000  0.5062440000000 1.0
C      1  0.4975610000000  0.5992380000000  0.4373870000000 1.0
C      1  0.4986860000000  0.5430410000000  0.3976620000000 1.0
C      1  0.4991600000000  0.4728170000000  0.3986230000000 1.0
C      1  0.5216110000000  0.4174710000000  0.5576780000000 1.0
C      1  0.5078020000000  0.4569940000000  0.5865360000000 1.0
C      1  0.5192420000000  0.5138750000000  0.5948460000000 1.0
C      1  0.5073440000000  0.5622630000000  0.5774510000000 1.0
C      1  0.5209150000000  0.5937580000000  0.5312850000000 1.0
C      1  0.5078500000000  0.5886440000000  0.4810520000000 1.0
C      1  0.5025380000000  0.5733210000000  0.4309680000000 1.0
C      1  0.5090820000000  0.5212270000000  0.4100380000000 1.0
C      1  0.5248780000000  0.4615130000000  0.4084190000000 1.0
C      1  0.5129300000000  0.4273160000000  0.4446940000000 1.0
C      1  0.5099780000000  0.4036000000000  0.4962130000000 1.0
C      1  0.4956770000000  0.4705750000000  0.4978400000000 1.0
C      1  0.5091740000000  0.4635990000000  0.5201250000000 1.0
C      1  0.5072890000000  0.4784470000000  0.5435870000000 1.0
C      1  0.4942250000000  0.5015150000000  0.5428250000000 1.0
C      1  0.5024340000000  0.5257480000000  0.5362010000000 1.0
C      1  0.4916540000000  0.5434410000000  0.5185860000000 1.0
C      1  0.4962570000000  0.5414220000000  0.4920080000000 1.0
C      1  0.4918430000000  0.5182220000000  0.4801740000000 1.0
C      1  0.5007950000000  0.5088480000000  0.4568440000000 1.0
C      1  0.4969960000000  0.4819460000000  0.4529690000000 1.0
C      1  0.5030410000000  0.4644020000000  0.4729380000000 1.0
C      1  0.4502850000000  0.4804070000000  0.4233120000000 1.0
C      1  0.4532720000000  0.4427290000000  0.4466370000000 1.0
C      1  0.4556080000000  0.4245310000000  0.4867960000000 1.0
C      1  0.4497020000000  0.4286710000000  0.5300290000000 1.0
C      1  0.4495840000000  0.4570340000000  0.5640510000000 1.0
C      1  0.4463470000000  0.4982610000000  0.5780110000000 1.0
C      1  0.4479560000000  0.5415370000000  0.5662980000000 1.0
C      1  0.4461430000000  0.5715670000000  0.5346020000000 1.0
C      1  0.4492150000000  0.5779820000000  0.4907270000000 1.0
C      1  0.4507950000000  0.5605990000000  0.4502140000000 1.0
C      1  0.4521020000000  0.5239950000000  0.4254800000000 1.0
C      1  0.4855740000000  0.5777430000000  0.5653680000000 1.0
C      1  0.4813310000000  0.6020400000000  0.5214390000000 1.0
C      1  0.4866920000000  0.5943480000000  0.4619870000000 1.0
C      1  0.4843090000000  0.5602030000000  0.4125470000000 1.0
C      1  0.4908800000000  0.4991130000000  0.4027060000000 1.0
C      1  0.4850480000000  0.4499310000000  0.4087770000000 1.0
C      1  0.4920770000000  0.4102860000000  0.4549710000000 1.0
C      1  0.4903660000000  0.4027840000000  0.5178890000000 1.0
C      1  0.4816980000000  0.4183950000000  0.5643280000000 1.0
C      1  0.4864830000000  0.4739100000000  0.5961310000000 1.0
C      1  0.4801910000000  0.5238060000000  0.6006640000000 1.0
END
