TITL C-101417-5356-8 -0.0598822713390208 125000 -551.294515365799 0 0 81 (C1) n - 1
REM
REM in /rds/project/t2_vol4/rds-t2-cs072/BORA/CARBON/from-Arr/AIRSS/Generating-Clusters/GAP-ML-2020/Higher-Symm/SD-CG/HFTN-CG
REM
REM
REM
REM
REM
REM ./C.cell (b20cbc046b6831c77cfcea5457e17084)
REM AIRSS Version 0.9.1 bugfix July 2018 build 013d7b7c2542+ Fri, 06 Jul 2018 19:26:36 +0100
REM compiler GCC version 9.3.0
REM options -cpp -mtune=generic -march=x86-64 -g -O0
REM seed -354207409 -1737285586 562827797 1757268055 376566536 -1377892311 -1270153771 373829598 1793478716 -1691291422 53720002 296193135 -1931898735 431527615 -398629464 -1068875979 -1143393696 -208104081 1235334863 -438977293 1411467165 -464674901 -695741800 77496298 1941094823 -767599157 750539079 -489370517 2063584699 196013851 -519419398 1632140399 519825763
REM
CELL 1.54180   50.00000   50.00000   50.00000   90.00000   90.00000   90.00000
LATT -1
SFAC C  
C      1  0.5690030000000  0.5366800000000  0.5130990000000 1.0
C      1  0.4632300000000  0.5713080000000  0.5110660000000 1.0
C      1  0.4296330000000  0.4644180000000  0.5126360000000 1.0
C      1  0.5384230000000  0.4286390000000  0.5113270000000 1.0
C      1  0.5688590000000  0.5364040000000  0.4849190000000 1.0
C      1  0.4643430000000  0.5700700000000  0.4828940000000 1.0
C      1  0.4305670000000  0.4647800000000  0.4844920000000 1.0
C      1  0.5378980000000  0.4302700000000  0.4825120000000 1.0
C      1  0.5283250000000  0.4761680000000  0.4745220000000 1.0
C      1  0.5215570000000  0.5279110000000  0.4733880000000 1.0
C      1  0.4731230000000  0.5227990000000  0.4739250000000 1.0
C      1  0.4772290000000  0.4718030000000  0.4754760000000 1.0
C      1  0.5281680000000  0.4801080000000  0.5297090000000 1.0
C      1  0.5226110000000  0.5296890000000  0.5242800000000 1.0
C      1  0.4708080000000  0.5253430000000  0.5249300000000 1.0
C      1  0.4746290000000  0.4757250000000  0.5291810000000 1.0
C      1  0.5304610000000  0.4878610000000  0.5593380000000 1.0
C      1  0.5126210000000  0.5104540000000  0.5657140000000 1.0
C      1  0.4840420000000  0.5049770000000  0.5661160000000 1.0
C      1  0.4753810000000  0.4781410000000  0.5589300000000 1.0
C      1  0.5164400000000  0.4976550000000  0.4336970000000 1.0
C      1  0.5134610000000  0.5263980000000  0.4433800000000 1.0
C      1  0.4795010000000  0.5201060000000  0.4440990000000 1.0
C      1  0.4879730000000  0.4921690000000  0.4343540000000 1.0
C      1  0.4910870000000  0.5661430000000  0.4748450000000 1.0
C      1  0.4347950000000  0.4913680000000  0.4756730000000 1.0
C      1  0.5114210000000  0.4314440000000  0.4720950000000 1.0
C      1  0.5647770000000  0.5099800000000  0.4760120000000 1.0
C      1  0.4890790000000  0.5679940000000  0.5216240000000 1.0
C      1  0.4322280000000  0.4911460000000  0.5221080000000 1.0
C      1  0.5134080000000  0.4225720000000  0.5199950000000 1.0
C      1  0.5656420000000  0.5103150000000  0.5225090000000 1.0
C      1  0.5494790000000  0.4569900000000  0.5166170000000 1.0
C      1  0.5423120000000  0.5504360000000  0.5130010000000 1.0
C      1  0.4499770000000  0.5449940000000  0.5132270000000 1.0
C      1  0.4562220000000  0.4512250000000  0.5160760000000 1.0
C      1  0.5499700000000  0.4573950000000  0.4845630000000 1.0
C      1  0.5425080000000  0.5500870000000  0.4821950000000 1.0
C      1  0.4508040000000  0.5433970000000  0.4826950000000 1.0
C      1  0.4570490000000  0.4509850000000  0.4851950000000 1.0
C      1  0.4270420000000  0.5357020000000  0.5294460000000 1.0
C      1  0.4664930000000  0.4261010000000  0.5282970000000 1.0
C      1  0.5749440000000  0.4656700000000  0.5293590000000 1.0
C      1  0.5336920000000  0.5734390000000  0.5300570000000 1.0
C      1  0.4263360000000  0.5356870000000  0.4689170000000 1.0
C      1  0.4661340000000  0.4287040000000  0.4675240000000 1.0
C      1  0.5730930000000  0.4661520000000  0.4684590000000 1.0
C      1  0.5342950000000  0.5748110000000  0.4689130000000 1.0
C      1  0.5605550000000  0.4694600000000  0.4431720000000 1.0
C      1  0.5332730000000  0.5722770000000  0.4412790000000 1.0
C      1  0.4320620000000  0.5375370000000  0.4417820000000 1.0
C      1  0.4678070000000  0.4428060000000  0.4428100000000 1.0
C      1  0.5725870000000  0.4673290000000  0.5566800000000 1.0
C      1  0.5311010000000  0.5611300000000  0.5553350000000 1.0
C      1  0.4391590000000  0.5317560000000  0.5551450000000 1.0
C      1  0.4701130000000  0.4324600000000  0.5548420000000 1.0
C      1  0.5814720000000  0.4886710000000  0.4843740000000 1.0
C      1  0.5116760000000  0.5834300000000  0.4848640000000 1.0
C      1  0.4178530000000  0.5126780000000  0.4842710000000 1.0
C      1  0.4881350000000  0.4167640000000  0.4811440000000 1.0
C      1  0.5820780000000  0.4888310000000  0.5130830000000 1.0
C      1  0.5114580000000  0.5835180000000  0.5137130000000 1.0
C      1  0.4170380000000  0.5132730000000  0.5132780000000 1.0
C      1  0.4882190000000  0.4142790000000  0.5104880000000 1.0
C      1  0.4645090000000  0.4967590000000  0.4853510000000 1.0
C      1  0.5045250000000  0.4602940000000  0.4817670000000 1.0
C      1  0.5348670000000  0.5035260000000  0.4848540000000 1.0
C      1  0.4962790000000  0.5366340000000  0.4852690000000 1.0
C      1  0.4627250000000  0.4984060000000  0.5151320000000 1.0
C      1  0.5047130000000  0.4497540000000  0.5096390000000 1.0
C      1  0.5355450000000  0.5047370000000  0.5147450000000 1.0
C      1  0.4955490000000  0.5380100000000  0.5150760000000 1.0
C      1  0.5516340000000  0.4748410000000  0.5703540000000 1.0
C      1  0.5230270000000  0.5349410000000  0.5538170000000 1.0
C      1  0.4651910000000  0.5243640000000  0.5546320000000 1.0
C      1  0.4714770000000  0.4530890000000  0.5708600000000 1.0
C      1  0.5349430000000  0.4783140000000  0.4447350000000 1.0
C      1  0.5248590000000  0.5503600000000  0.4310350000000 1.0
C      1  0.4561020000000  0.5335610000000  0.4335200000000 1.0
C      1  0.4754060000000  0.4689020000000  0.4453140000000 1.0
C      1  0.5022000000000  0.4705540000000  0.5264430000000 1.0
END
