TITL C-102469-7281-1 -0.0149550093558491 125000 -407.256694851139 0 0 60 (C1) n - 1
REM
REM in /rds/project/t2_vol4/rds-t2-cs072/BORA/CARBON/from-Arr/AIRSS/Generating-Clusters/GAP-ML-2020/Higher-Symm/SD-CG/HFTN-CG
REM
REM
REM
REM
REM
REM ./C.cell (b20cbc046b6831c77cfcea5457e17084)
REM AIRSS Version 0.9.1 bugfix July 2018 build 013d7b7c2542+ Fri, 06 Jul 2018 19:26:36 +0100
REM compiler GCC version 9.3.0
REM options -cpp -mtune=generic -march=x86-64 -g -O0
REM seed 1853612617 -847988917 -1821929342 -1447390822 -119273802 -1176347121 -1264026418 1951147971 -1571257452 -2091739118 562109973 815900701 -1368602466 -2097044598 280482754 -1957927091 1873874967 -360653824 758307132 286950710 -686167686 -1390759422 -398458316 -2078210488 706836522 1630831356 -1298211471 1155006846 -2026896407 -1890723481 -2045255396 -233646586 -1811436124
REM
CELL 1.54180   50.00000   50.00000   50.00000   90.00000   90.00000   90.00000
LATT -1
SFAC C  
C      1  0.5099850000000  0.5353730000000  0.5482310000000 1.0
C      1  0.5227860000000  0.5518470000000  0.4625180000000 1.0
C      1  0.4774220000000  0.4341700000000  0.5079150000000 1.0
C      1  0.4929420000000  0.4734540000000  0.5241550000000 1.0
C      1  0.5733880000000  0.5116000000000  0.5050310000000 1.0
C      1  0.5203980000000  0.5268540000000  0.5211160000000 1.0
C      1  0.4770740000000  0.4485870000000  0.4419930000000 1.0
C      1  0.5109880000000  0.5700160000000  0.5045770000000 1.0
C      1  0.4610840000000  0.5331600000000  0.5475380000000 1.0
C      1  0.4571970000000  0.4873880000000  0.4623660000000 1.0
C      1  0.4857380000000  0.5672240000000  0.5188430000000 1.0
C      1  0.4964230000000  0.4907670000000  0.4334180000000 1.0
C      1  0.5610480000000  0.5226240000000  0.4815950000000 1.0
C      1  0.5619490000000  0.5012010000000  0.5306220000000 1.0
C      1  0.4725400000000  0.5037150000000  0.4414430000000 1.0
C      1  0.4420430000000  0.4975110000000  0.4873270000000 1.0
C      1  0.4800660000000  0.5311530000000  0.4452010000000 1.0
C      1  0.4447970000000  0.4788890000000  0.5089400000000 1.0
C      1  0.5008360000000  0.4634070000000  0.4373600000000 1.0
C      1  0.4709530000000  0.4638250000000  0.5051730000000 1.0
C      1  0.5396000000000  0.4884050000000  0.4499920000000 1.0
C      1  0.5271990000000  0.4618620000000  0.4501690000000 1.0
C      1  0.4901450000000  0.4541560000000  0.5475880000000 1.0
C      1  0.4989980000000  0.4326610000000  0.5296390000000 1.0
C      1  0.5323770000000  0.4991820000000  0.5260310000000 1.0
C      1  0.5369860000000  0.4457060000000  0.4695290000000 1.0
C      1  0.5582130000000  0.5211860000000  0.5539620000000 1.0
C      1  0.5392460000000  0.5370070000000  0.5597070000000 1.0
C      1  0.5194910000000  0.5064250000000  0.4389900000000 1.0
C      1  0.5269330000000  0.4354440000000  0.5224160000000 1.0
C      1  0.4987360000000  0.5094080000000  0.5573470000000 1.0
C      1  0.5314700000000  0.4513460000000  0.4966850000000 1.0
C      1  0.5599090000000  0.4960430000000  0.4689730000000 1.0
C      1  0.4650440000000  0.5499120000000  0.4608770000000 1.0
C      1  0.4635210000000  0.4348480000000  0.4626520000000 1.0
C      1  0.4489130000000  0.5474670000000  0.4860940000000 1.0
C      1  0.5671730000000  0.4723650000000  0.5210400000000 1.0
C      1  0.4670570000000  0.4215370000000  0.4862590000000 1.0
C      1  0.4841370000000  0.5500950000000  0.5412830000000 1.0
C      1  0.4415900000000  0.5214330000000  0.5285690000000 1.0
C      1  0.4556220000000  0.4858960000000  0.5571430000000 1.0
C      1  0.5180490000000  0.4791560000000  0.5065430000000 1.0
C      1  0.5725480000000  0.4847100000000  0.4933830000000 1.0
C      1  0.4527420000000  0.4600050000000  0.4518820000000 1.0
C      1  0.4673900000000  0.4613430000000  0.5598950000000 1.0
C      1  0.5432120000000  0.5442930000000  0.4816400000000 1.0
C      1  0.4702730000000  0.5101950000000  0.5637390000000 1.0
C      1  0.5094650000000  0.5330720000000  0.4451200000000 1.0
C      1  0.5019490000000  0.4958400000000  0.4887370000000 1.0
C      1  0.4956490000000  0.5169620000000  0.5068700000000 1.0
C      1  0.5495410000000  0.4509820000000  0.5225670000000 1.0
C      1  0.4804280000000  0.4776480000000  0.4803670000000 1.0
C      1  0.5184880000000  0.4907410000000  0.5508650000000 1.0
C      1  0.5319770000000  0.5508750000000  0.5073820000000 1.0
C      1  0.4405290000000  0.5240900000000  0.4992250000000 1.0
C      1  0.5061240000000  0.5709450000000  0.4765350000000 1.0
C      1  0.4393060000000  0.4926770000000  0.5339270000000 1.0
C      1  0.4859490000000  0.5007050000000  0.5299980000000 1.0
C      1  0.4654120000000  0.5683890000000  0.4985460000000 1.0
C      1  0.4789520000000  0.5722230000000  0.4724760000000 1.0
END
