TITL C-109984-9566-7 -199.150349863552 125000 -590.139559807966 0 0 86 (C1) n - 1
REM
REM in /rds/project/t2_vol4/rds-t2-cs072/BORA/CARBON/from-Arr/AIRSS/Generating-Clusters/GAP-ML-2020/Higher-Symm/SD-CG/HFTN-CG
REM
REM
REM
REM
REM
REM ./C.cell (b20cbc046b6831c77cfcea5457e17084)
REM AIRSS Version 0.9.1 bugfix July 2018 build 013d7b7c2542+ Fri, 06 Jul 2018 19:26:36 +0100
REM compiler GCC version 9.3.0
REM options -cpp -mtune=generic -march=x86-64 -g -O0
REM seed 1470133890 369454597 -861779672 1295734253 1271527566 -1904657279 -748166292 -613990082 244447859 728505354 2096478867 268120567 503450317 -1545188609 1190054937 2081327556 1044863579 473915704 -2074938616 2121002924 -65783110 -580762235 2077576568 -870747447 269483006 588559192 1045035123 2126742679 -107376492 -1463130441 769553676 -1638782614 748272625
REM
CELL 1.54180   50.00000   50.00000   50.00000   90.00000   90.00000   90.00000
LATT -1
SFAC C  
C      1  0.4534070000000  0.4798540000000  0.5586620000000 1.0
C      1  0.5783350000000  0.4836560000000  0.5095000000000 1.0
C      1  0.4709540000000  0.4801960000000  0.4291910000000 1.0
C      1  0.5232530000000  0.4752080000000  0.4852470000000 1.0
C      1  0.4762010000000  0.4674430000000  0.4887810000000 1.0
C      1  0.5023900000000  0.4696350000000  0.5258110000000 1.0
C      1  0.5563190000000  0.4690110000000  0.4261830000000 1.0
C      1  0.4067060000000  0.4558550000000  0.4871860000000 1.0
C      1  0.5340430000000  0.4689710000000  0.5814450000000 1.0
C      1  0.4732200000000  0.4951340000000  0.4916630000000 1.0
C      1  0.4989610000000  0.4975850000000  0.5265930000000 1.0
C      1  0.5180890000000  0.5029430000000  0.4866990000000 1.0
C      1  0.4993370000000  0.4762930000000  0.4263990000000 1.0
C      1  0.4364710000000  0.4717280000000  0.5360550000000 1.0
C      1  0.5656460000000  0.4788840000000  0.5358090000000 1.0
C      1  0.4566090000000  0.5683500000000  0.4543360000000 1.0
C      1  0.4880980000000  0.5685150000000  0.5723370000000 1.0
C      1  0.5723890000000  0.5667410000000  0.4837040000000 1.0
C      1  0.5532960000000  0.5284870000000  0.5457160000000 1.0
C      1  0.5125840000000  0.5274770000000  0.4285280000000 1.0
C      1  0.4314470000000  0.5206630000000  0.5146830000000 1.0
C      1  0.5592550000000  0.5008870000000  0.5530990000000 1.0
C      1  0.5164230000000  0.4992890000000  0.4230300000000 1.0
C      1  0.4241320000000  0.4919220000000  0.5196330000000 1.0
C      1  0.4885280000000  0.4165070000000  0.4864050000000 1.0
C      1  0.4924560000000  0.4171240000000  0.5137860000000 1.0
C      1  0.5124330000000  0.4307330000000  0.4964310000000 1.0
C      1  0.5466640000000  0.4595210000000  0.4750330000000 1.0
C      1  0.4560710000000  0.4530990000000  0.4710860000000 1.0
C      1  0.4982150000000  0.4543220000000  0.5507130000000 1.0
C      1  0.4815790000000  0.4752720000000  0.5665580000000 1.0
C      1  0.5679980000000  0.4795640000000  0.4814670000000 1.0
C      1  0.4502550000000  0.4737790000000  0.4489770000000 1.0
C      1  0.4996710000000  0.5594280000000  0.4600450000000 1.0
C      1  0.4721300000000  0.5775620000000  0.5284570000000 1.0
C      1  0.5357230000000  0.5570360000000  0.5103990000000 1.0
C      1  0.5515960000000  0.4538020000000  0.5402500000000 1.0
C      1  0.5118280000000  0.4524820000000  0.4364610000000 1.0
C      1  0.4397400000000  0.4472620000000  0.5221080000000 1.0
C      1  0.4925250000000  0.5091400000000  0.4761530000000 1.0
C      1  0.4733260000000  0.5054120000000  0.5181480000000 1.0
C      1  0.5176140000000  0.5134730000000  0.5130060000000 1.0
C      1  0.5403990000000  0.4946430000000  0.5745200000000 1.0
C      1  0.5442860000000  0.4936200000000  0.4295810000000 1.0
C      1  0.4135260000000  0.4821360000000  0.4940780000000 1.0
C      1  0.4744960000000  0.5745840000000  0.5006260000000 1.0
C      1  0.5140790000000  0.5547160000000  0.5425160000000 1.0
C      1  0.5290630000000  0.5594110000000  0.4598290000000 1.0
C      1  0.4594900000000  0.5315350000000  0.5210700000000 1.0
C      1  0.5110270000000  0.5424600000000  0.5161100000000 1.0
C      1  0.4869320000000  0.5361280000000  0.4766490000000 1.0
C      1  0.5289780000000  0.5361230000000  0.5589220000000 1.0
C      1  0.5358210000000  0.5366300000000  0.4430210000000 1.0
C      1  0.4188590000000  0.5250340000000  0.4909010000000 1.0
C      1  0.4591970000000  0.5539070000000  0.5411870000000 1.0
C      1  0.5585990000000  0.5443570000000  0.5221600000000 1.0
C      1  0.4911230000000  0.5453900000000  0.4352110000000 1.0
C      1  0.4690600000000  0.5204000000000  0.5750770000000 1.0
C      1  0.5874640000000  0.5208830000000  0.4882750000000 1.0
C      1  0.4475700000000  0.5197860000000  0.4351690000000 1.0
C      1  0.5551020000000  0.5146760000000  0.4461260000000 1.0
C      1  0.4170270000000  0.5032460000000  0.4739060000000 1.0
C      1  0.5190260000000  0.5137720000000  0.5751620000000 1.0
C      1  0.4329380000000  0.4485710000000  0.4920000000000 1.0
C      1  0.5279740000000  0.4542700000000  0.5594770000000 1.0
C      1  0.5406420000000  0.4566390000000  0.4449870000000 1.0
C      1  0.4559320000000  0.4292260000000  0.5354370000000 1.0
C      1  0.5539080000000  0.4363240000000  0.5190880000000 1.0
C      1  0.4944440000000  0.4330460000000  0.4446080000000 1.0
C      1  0.4825580000000  0.4289370000000  0.5385760000000 1.0
C      1  0.5428900000000  0.4348080000000  0.4949400000000 1.0
C      1  0.4753970000000  0.4290820000000  0.4632710000000 1.0
C      1  0.4962880000000  0.5772750000000  0.5468390000000 1.0
C      1  0.5442150000000  0.5667860000000  0.4833240000000 1.0
C      1  0.4756030000000  0.5780290000000  0.4717180000000 1.0
C      1  0.5986620000000  0.5031870000000  0.5069520000000 1.0
C      1  0.4653810000000  0.5053460000000  0.4203040000000 1.0
C      1  0.4476310000000  0.5056590000000  0.5660720000000 1.0
C      1  0.4683720000000  0.5488130000000  0.5684000000000 1.0
C      1  0.5790690000000  0.5454850000000  0.5009140000000 1.0
C      1  0.4611690000000  0.5459190000000  0.4372430000000 1.0
C      1  0.4347700000000  0.4980840000000  0.4517310000000 1.0
C      1  0.4918010000000  0.5020210000000  0.5758270000000 1.0
C      1  0.5710660000000  0.5051180000000  0.4686530000000 1.0
C      1  0.4822200000000  0.5459150000000  0.5031410000000 1.0
C      1  0.5033040000000  0.4597120000000  0.4981590000000 1.0
END
