TITL C-101422-5150-9 -0.0181923238190152 125000 -43.7962931390369 0 0 7 (C2v) n - 1
REM
REM in /rds/project/t2_vol4/rds-t2-cs072/BORA/CARBON/from-Arr/AIRSS/Generating-Clusters/GAP-ML-2020/Higher-Symm/SD-CG/HFTN-CG
REM
REM
REM
REM
REM
REM ./C.cell (b20cbc046b6831c77cfcea5457e17084)
REM AIRSS Version 0.9.1 bugfix July 2018 build 013d7b7c2542+ Fri, 06 Jul 2018 19:26:36 +0100
REM compiler GCC version 9.3.0
REM options -cpp -mtune=generic -march=x86-64 -g -O0
REM seed 206322968 -101398678 -1676834060 -771832533 599676697 330649509 1642492576 -1990023586 297400457 1810676211 -726796953 1445007853 -396708255 -5048640 -426717528 2099589999 -1894463302 1299862677 -865734153 -894042494 -781217033 1339340752 1118837478 1894925302 712343080 -1777465981 813703888 1831199348 1505176393 958493921 -1534067436 1733273765 1770419318
REM
CELL 1.54180   50.00000   50.00000   50.00000   90.00000   90.00000   90.00000
LATT -1
SFAC C  
C      1  0.5068030000000  0.4725250000000  0.5374550000000 1.0
C      1  0.5096460000000  0.4568340000000  0.5570680000000 1.0
C      1  0.4949680000000  0.5451760000000  0.4670490000000 1.0
C      1  0.4959050000000  0.5253390000000  0.4510420000000 1.0
C      1  0.5011170000000  0.5039060000000  0.4982310000000 1.0
C      1  0.4981320000000  0.5203830000000  0.4776380000000 1.0
C      1  0.5039030000000  0.4885330000000  0.5174470000000 1.0
END
