TITL C-111514-3811-3 -1548.77671086237 125000 -896.386197352664 0 0 128 (Cs) n - 1
REM
REM in /rds/project/t2_vol4/rds-t2-cs072/BORA/CARBON/from-Arr/AIRSS/Generating-Clusters/GAP-ML-2020/Higher-Symm/SD-CG/HFTN-CG
REM
REM
REM
REM
REM
REM ./C.cell (b20cbc046b6831c77cfcea5457e17084)
REM AIRSS Version 0.9.1 bugfix July 2018 build 013d7b7c2542+ Fri, 06 Jul 2018 19:26:36 +0100
REM compiler GCC version 9.3.0
REM options -cpp -mtune=generic -march=x86-64 -g -O0
REM seed -174161646 -1378771526 1838387017 -806053518 787442411 -2090548581 -1745007992 -926886983 1205479924 -1830118596 560859412 -705771482 -918530697 -276823801 1304157970 -1994967856 2097472295 256258803 -1656770313 -8493599 -1982265300 466408921 1457155389 1749138777 -307799189 -837867276 -1768880277 -692576006 608530711 1168352701 -52872639 1803822147 -301228635
REM
CELL 1.54180   50.00000   50.00000   50.00000   90.00000   90.00000   90.00000
LATT -1
SFAC C  
C      1  0.5284630000000  0.4842150000000  0.4191860000000 1.0
C      1  0.5274620000000  0.5167770000000  0.5811420000000 1.0
C      1  0.4738180000000  0.4844740000000  0.4180220000000 1.0
C      1  0.4726250000000  0.5169020000000  0.5819300000000 1.0
C      1  0.5284570000000  0.4842160000000  0.5808160000000 1.0
C      1  0.5274680000000  0.5167770000000  0.4188600000000 1.0
C      1  0.4738120000000  0.4844740000000  0.5819770000000 1.0
C      1  0.4726310000000  0.5169010000000  0.4180680000000 1.0
C      1  0.4491060000000  0.5157300000000  0.4845740000000 1.0
C      1  0.4542310000000  0.4854040000000  0.5152920000000 1.0
C      1  0.5444090000000  0.5183960000000  0.4852020000000 1.0
C      1  0.5524300000000  0.4881080000000  0.5156120000000 1.0
C      1  0.4491050000000  0.5157300000000  0.5154220000000 1.0
C      1  0.4542320000000  0.4854040000000  0.4847050000000 1.0
C      1  0.5444080000000  0.5183960000000  0.5148010000000 1.0
C      1  0.5524310000000  0.4881080000000  0.4843910000000 1.0
C      1  0.5105970000000  0.5514940000000  0.5153880000000 1.0
C      1  0.5181160000000  0.4496440000000  0.4848450000000 1.0
C      1  0.4807160000000  0.5545980000000  0.5155940000000 1.0
C      1  0.4879610000000  0.4514800000000  0.4846920000000 1.0
C      1  0.5105990000000  0.5514940000000  0.4846120000000 1.0
C      1  0.5181150000000  0.4496440000000  0.5151570000000 1.0
C      1  0.4807170000000  0.5545980000000  0.4844040000000 1.0
C      1  0.4879590000000  0.4514800000000  0.5153080000000 1.0
C      1  0.5131900000000  0.5162770000000  0.5505410000000 1.0
C      1  0.5161250000000  0.4855330000000  0.4496660000000 1.0
C      1  0.4833910000000  0.5169970000000  0.5522240000000 1.0
C      1  0.4862050000000  0.4863920000000  0.4494370000000 1.0
C      1  0.5131940000000  0.5162770000000  0.4494600000000 1.0
C      1  0.5161210000000  0.4855330000000  0.5503360000000 1.0
C      1  0.4833950000000  0.5169960000000  0.4477740000000 1.0
C      1  0.4862010000000  0.4863920000000  0.5505620000000 1.0
C      1  0.4445430000000  0.4858390000000  0.5808360000000 1.0
C      1  0.4431420000000  0.5140490000000  0.4204700000000 1.0
C      1  0.5577010000000  0.4865580000000  0.5782060000000 1.0
C      1  0.5567520000000  0.5147960000000  0.4207720000000 1.0
C      1  0.4445480000000  0.4858380000000  0.4191600000000 1.0
C      1  0.4431360000000  0.5140500000000  0.5795260000000 1.0
C      1  0.5577070000000  0.4865570000000  0.4217980000000 1.0
C      1  0.5567460000000  0.5147960000000  0.5792320000000 1.0
C      1  0.5194580000000  0.5262460000000  0.5252700000000 1.0
C      1  0.5282330000000  0.4745010000000  0.4739140000000 1.0
C      1  0.4667860000000  0.5335090000000  0.5318060000000 1.0
C      1  0.4789200000000  0.4768150000000  0.4747110000000 1.0
C      1  0.5194600000000  0.5262460000000  0.4747320000000 1.0
C      1  0.5282310000000  0.4745020000000  0.5260880000000 1.0
C      1  0.4667880000000  0.5335090000000  0.4681910000000 1.0
C      1  0.4789180000000  0.4768150000000  0.5252880000000 1.0
C      1  0.5791400000000  0.5201030000000  0.4629960000000 1.0
C      1  0.5746570000000  0.4903580000000  0.5349420000000 1.0
C      1  0.4156630000000  0.5098470000000  0.4607200000000 1.0
C      1  0.4192430000000  0.4799700000000  0.5396990000000 1.0
C      1  0.5791370000000  0.5201030000000  0.5370100000000 1.0
C      1  0.5746600000000  0.4903570000000  0.4650630000000 1.0
C      1  0.4156600000000  0.5098470000000  0.5392740000000 1.0
C      1  0.4192460000000  0.4799690000000  0.4602950000000 1.0
C      1  0.4825430000000  0.4033340000000  0.5144810000000 1.0
C      1  0.4888610000000  0.6025900000000  0.4853160000000 1.0
C      1  0.5115740000000  0.4006050000000  0.5146280000000 1.0
C      1  0.5183260000000  0.5993130000000  0.4855560000000 1.0
C      1  0.4825440000000  0.4033340000000  0.4855190000000 1.0
C      1  0.4888600000000  0.6025900000000  0.5146820000000 1.0
C      1  0.5115750000000  0.4006050000000  0.4853730000000 1.0
C      1  0.5183250000000  0.5993130000000  0.5144440000000 1.0
C      1  0.4713640000000  0.4409380000000  0.4256080000000 1.0
C      1  0.4720170000000  0.5590510000000  0.5715520000000 1.0
C      1  0.5307870000000  0.4406320000000  0.4281120000000 1.0
C      1  0.5300760000000  0.5607100000000  0.5743580000000 1.0
C      1  0.4713590000000  0.4409380000000  0.5743910000000 1.0
C      1  0.4720230000000  0.5590500000000  0.4284450000000 1.0
C      1  0.5307820000000  0.4406330000000  0.5718910000000 1.0
C      1  0.5300810000000  0.5607090000000  0.4256430000000 1.0
C      1  0.5149830000000  0.5414640000000  0.4102010000000 1.0
C      1  0.5161380000000  0.4594510000000  0.5884270000000 1.0
C      1  0.4859190000000  0.5415040000000  0.4104120000000 1.0
C      1  0.4870930000000  0.4597710000000  0.5894200000000 1.0
C      1  0.5149760000000  0.5414650000000  0.5897990000000 1.0
C      1  0.5161440000000  0.4594500000000  0.4115750000000 1.0
C      1  0.4859130000000  0.5415050000000  0.5895870000000 1.0
C      1  0.4870990000000  0.4597700000000  0.4105800000000 1.0
C      1  0.5700670000000  0.4717760000000  0.5579310000000 1.0
C      1  0.5710840000000  0.5312970000000  0.4381740000000 1.0
C      1  0.4298940000000  0.4695270000000  0.5635370000000 1.0
C      1  0.4293460000000  0.5272670000000  0.4404930000000 1.0
C      1  0.5700710000000  0.4717760000000  0.4420740000000 1.0
C      1  0.5710800000000  0.5312980000000  0.5618310000000 1.0
C      1  0.4298990000000  0.4695270000000  0.4364580000000 1.0
C      1  0.4293420000000  0.5272680000000  0.5595020000000 1.0
C      1  0.5142760000000  0.4242230000000  0.5563610000000 1.0
C      1  0.5153460000000  0.5767080000000  0.4432180000000 1.0
C      1  0.4861700000000  0.4254660000000  0.5565130000000 1.0
C      1  0.4872260000000  0.5772550000000  0.4430070000000 1.0
C      1  0.5142800000000  0.4242230000000  0.4436410000000 1.0
C      1  0.5153420000000  0.5767080000000  0.5567820000000 1.0
C      1  0.4861740000000  0.4254650000000  0.4434870000000 1.0
C      1  0.4872220000000  0.5772560000000  0.5569910000000 1.0
C      1  0.4457850000000  0.4464200000000  0.5602980000000 1.0
C      1  0.4486140000000  0.5500310000000  0.4476030000000 1.0
C      1  0.5559500000000  0.4458880000000  0.5561040000000 1.0
C      1  0.5554810000000  0.5551160000000  0.4402290000000 1.0
C      1  0.4457890000000  0.4464190000000  0.4396980000000 1.0
C      1  0.4486110000000  0.5500310000000  0.5523930000000 1.0
C      1  0.5559540000000  0.4458870000000  0.4439010000000 1.0
C      1  0.5554760000000  0.5551170000000  0.5597740000000 1.0
C      1  0.5737160000000  0.4221580000000  0.5129030000000 1.0
C      1  0.5669170000000  0.5395700000000  0.4839430000000 1.0
C      1  0.4326800000000  0.4629540000000  0.5170170000000 1.0
C      1  0.4184710000000  0.5205660000000  0.4862180000000 1.0
C      1  0.5737160000000  0.4221580000000  0.4871030000000 1.0
C      1  0.5669160000000  0.5395700000000  0.5160610000000 1.0
C      1  0.4326810000000  0.4629540000000  0.4829790000000 1.0
C      1  0.4184700000000  0.5205660000000  0.5137760000000 1.0
C      1  0.5547470000000  0.5628790000000  0.4668820000000 1.0
C      1  0.5559040000000  0.4273110000000  0.5337850000000 1.0
C      1  0.4483640000000  0.5733950000000  0.4629350000000 1.0
C      1  0.4457350000000  0.4397350000000  0.5334080000000 1.0
C      1  0.5547450000000  0.5628800000000  0.5331210000000 1.0
C      1  0.5559060000000  0.4273110000000  0.4662200000000 1.0
C      1  0.4483620000000  0.5733950000000  0.5370600000000 1.0
C      1  0.4457370000000  0.4397340000000  0.4665890000000 1.0
C      1  0.4731920000000  0.4267840000000  0.4705300000000 1.0
C      1  0.4744760000000  0.5821920000000  0.5305480000000 1.0
C      1  0.5262840000000  0.4212200000000  0.4701250000000 1.0
C      1  0.5275110000000  0.5758900000000  0.5296100000000 1.0
C      1  0.4731900000000  0.4267850000000  0.5294680000000 1.0
C      1  0.4744780000000  0.5821910000000  0.4694490000000 1.0
C      1  0.5262820000000  0.4212200000000  0.5298780000000 1.0
C      1  0.5275130000000  0.5758900000000  0.4703910000000 1.0
END
