TITL C-110373-4516-11 178.399838813681 125000 -989.011749831236 0 0 145 (C5) n - 1
REM
REM in /rds/project/t2_vol4/rds-t2-cs072/BORA/CARBON/from-Arr/AIRSS/Generating-Clusters/GAP-ML-2020/Higher-Symm/SD-CG/HFTN-CG
REM
REM
REM
REM
REM
REM ./C.cell (b20cbc046b6831c77cfcea5457e17084)
REM AIRSS Version 0.9.1 bugfix July 2018 build 013d7b7c2542+ Fri, 06 Jul 2018 19:26:36 +0100
REM compiler GCC version 9.3.0
REM options -cpp -mtune=generic -march=x86-64 -g -O0
REM seed -526544989 1873143752 -791425285 -643599346 871791618 1056580473 -1599736479 -803752526 300386009 2113378740 358876394 -1967675023 -1846058540 -1604950373 -1902992907 -1174150297 65492170 -910140762 -2013282796 1954257837 192964917 -805133934 -90570275 802221289 1029799952 -1151478382 -695424520 916479263 1792623132 -940824645 315339330 -2021159517 -2020761089
REM
CELL 1.54180   50.00000   50.00000   50.00000   90.00000   90.00000   90.00000
LATT -1
SFAC C  
C      1  0.5269180000000  0.4523790000000  0.4832380000000 1.0
C      1  0.5268600000000  0.5012300000000  0.4494980000000 1.0
C      1  0.5268350000000  0.5484150000000  0.4855320000000 1.0
C      1  0.5268780000000  0.5287250000000  0.5415430000000 1.0
C      1  0.5269290000000  0.4693720000000  0.5401250000000 1.0
C      1  0.5269330000000  0.4523760000000  0.5167300000000 1.0
C      1  0.5269060000000  0.5012230000000  0.5504770000000 1.0
C      1  0.5268480000000  0.5484130000000  0.5144490000000 1.0
C      1  0.5268400000000  0.5287310000000  0.4584360000000 1.0
C      1  0.5268920000000  0.4693770000000  0.4598450000000 1.0
C      1  0.5019260000000  0.5624740000000  0.5264350000000 1.0
C      1  0.5020050000000  0.4941650000000  0.5675820000000 1.0
C      1  0.5020340000000  0.4339230000000  0.5153310000000 1.0
C      1  0.5019730000000  0.4650010000000  0.4418920000000 1.0
C      1  0.5019060000000  0.5444500000000  0.4487540000000 1.0
C      1  0.5019020000000  0.5624770000000  0.4735710000000 1.0
C      1  0.5019430000000  0.4941750000000  0.4324150000000 1.0
C      1  0.5020200000000  0.4339260000000  0.4846570000000 1.0
C      1  0.5020260000000  0.4649930000000  0.5581010000000 1.0
C      1  0.5019530000000  0.5444420000000  0.5512500000000 1.0
C      1  0.4266310000000  0.5002990000000  0.5456080000000 1.0
C      1  0.4266540000000  0.4567050000000  0.5144620000000 1.0
C      1  0.4266170000000  0.4728550000000  0.4633760000000 1.0
C      1  0.4265700000000  0.5264310000000  0.4629490000000 1.0
C      1  0.4265780000000  0.5433930000000  0.5137720000000 1.0
C      1  0.4265890000000  0.5003060000000  0.4544590000000 1.0
C      1  0.4266410000000  0.4567070000000  0.4855990000000 1.0
C      1  0.4266510000000  0.4728500000000  0.5366870000000 1.0
C      1  0.4266040000000  0.5264260000000  0.5371210000000 1.0
C      1  0.4265660000000  0.5433950000000  0.4863010000000 1.0
C      1  0.5691530000000  0.5790120000000  0.4856260000000 1.0
C      1  0.5692280000000  0.5380980000000  0.5706230000000 1.0
C      1  0.5693040000000  0.4446190000000  0.5579760000000 1.0
C      1  0.5692760000000  0.4277590000000  0.4651640000000 1.0
C      1  0.5691830000000  0.5108190000000  0.4204490000000 1.0
C      1  0.5691660000000  0.5790100000000  0.5143210000000 1.0
C      1  0.5691630000000  0.5381080000000  0.4293190000000 1.0
C      1  0.5692510000000  0.4446270000000  0.4419510000000 1.0
C      1  0.5693080000000  0.4277540000000  0.5347610000000 1.0
C      1  0.5692560000000  0.5108070000000  0.5794880000000 1.0
C      1  0.4630100000000  0.5684710000000  0.4112390000000 1.0
C      1  0.4630360000000  0.6055690000000  0.5377330000000 1.0
C      1  0.4631650000000  0.4967300000000  0.6121040000000 1.0
C      1  0.4632200000000  0.3923670000000  0.5315740000000 1.0
C      1  0.4631240000000  0.4367050000000  0.4074330000000 1.0
C      1  0.4630920000000  0.5684580000000  0.5888040000000 1.0
C      1  0.4630010000000  0.6055740000000  0.4623160000000 1.0
C      1  0.4630630000000  0.4967470000000  0.3879290000000 1.0
C      1  0.4631910000000  0.3923710000000  0.4684430000000 1.0
C      1  0.4632090000000  0.4366910000000  0.5925910000000 1.0
C      1  0.4804180000000  0.5466250000000  0.4013720000000 1.0
C      1  0.4804160000000  0.6082060000000  0.5138860000000 1.0
C      1  0.4805360000000  0.5202270000000  0.6072220000000 1.0
C      1  0.4806120000000  0.4042730000000  0.5523920000000 1.0
C      1  0.4805390000000  0.4205880000000  0.4251700000000 1.0
C      1  0.4805090000000  0.5466100000000  0.5986520000000 1.0
C      1  0.4804030000000  0.6082070000000  0.4861470000000 1.0
C      1  0.4804370000000  0.5202430000000  0.3927980000000 1.0
C      1  0.4805640000000  0.4042810000000  0.4476110000000 1.0
C      1  0.4806080000000  0.4205760000000  0.5748360000000 1.0
C      1  0.5565860000000  0.4691090000000  0.4477070000000 1.0
C      1  0.5565270000000  0.5401970000000  0.4543950000000 1.0
C      1  0.5565460000000  0.5558040000000  0.5240710000000 1.0
C      1  0.5566160000000  0.4943610000000  0.5604450000000 1.0
C      1  0.5566410000000  0.4407810000000  0.5132500000000 1.0
C      1  0.5566350000000  0.4691010000000  0.5522350000000 1.0
C      1  0.5565690000000  0.5401900000000  0.5455580000000 1.0
C      1  0.5565240000000  0.5558070000000  0.4758840000000 1.0
C      1  0.5565610000000  0.4943700000000  0.4395010000000 1.0
C      1  0.5566290000000  0.4407820000000  0.4866890000000 1.0
C      1  0.4768540000000  0.5012640000000  0.5515250000000 1.0
C      1  0.4768820000000  0.4513840000000  0.5171500000000 1.0
C      1  0.4768400000000  0.4686630000000  0.4590890000000 1.0
C      1  0.4767870000000  0.5292210000000  0.4575800000000 1.0
C      1  0.4767950000000  0.5493700000000  0.5147080000000 1.0
C      1  0.4768070000000  0.5012720000000  0.4484960000000 1.0
C      1  0.4768660000000  0.4513870000000  0.4828630000000 1.0
C      1  0.4768780000000  0.4686570000000  0.5409270000000 1.0
C      1  0.4768260000000  0.5292150000000  0.5424450000000 1.0
C      1  0.4767820000000  0.5493720000000  0.4853200000000 1.0
C      1  0.4855630000000  0.3867940000000  0.4863180000000 1.0
C      1  0.4854380000000  0.4780270000000  0.3881230000000 1.0
C      1  0.4853580000000  0.5996090000000  0.4445460000000 1.0
C      1  0.4854330000000  0.5835180000000  0.5776140000000 1.0
C      1  0.4855600000000  0.4519910000000  0.6034300000000 1.0
C      1  0.4855760000000  0.3867920000000  0.5136780000000 1.0
C      1  0.4855410000000  0.4780110000000  0.6118870000000 1.0
C      1  0.4854080000000  0.5996010000000  0.5554810000000 1.0
C      1  0.4853620000000  0.5835290000000  0.4224110000000 1.0
C      1  0.4854650000000  0.4520060000000  0.3965750000000 1.0
C      1  0.5032710000000  0.5590420000000  0.5799180000000 1.0
C      1  0.5033730000000  0.4422390000000  0.5808440000000 1.0
C      1  0.5033550000000  0.4052650000000  0.4700430000000 1.0
C      1  0.5032410000000  0.4992160000000  0.4006400000000 1.0
C      1  0.5031890000000  0.5942560000000  0.4685460000000 1.0
C      1  0.5031970000000  0.5590540000000  0.4200870000000 1.0
C      1  0.5032990000000  0.4422510000000  0.4191440000000 1.0
C      1  0.5033820000000  0.4052600000000  0.5299390000000 1.0
C      1  0.5033320000000  0.4992020000000  0.5993570000000 1.0
C      1  0.5032170000000  0.5942510000000  0.5314640000000 1.0
C      1  0.4461180000000  0.4574370000000  0.4162310000000 1.0
C      1  0.4460300000000  0.5665070000000  0.4336950000000 1.0
C      1  0.4460650000000  0.5836020000000  0.5428240000000 1.0
C      1  0.4461740000000  0.4850970000000  0.5928050000000 1.0
C      1  0.4462070000000  0.4071230000000  0.5145660000000 1.0
C      1  0.4461940000000  0.4574250000000  0.5838110000000 1.0
C      1  0.4460910000000  0.5664980000000  0.5663630000000 1.0
C      1  0.4460260000000  0.5836090000000  0.4572370000000 1.0
C      1  0.4460890000000  0.4851110000000  0.4072410000000 1.0
C      1  0.4461930000000  0.4071250000000  0.4854690000000 1.0
C      1  0.5499570000000  0.5454200000000  0.4082560000000 1.0
C      1  0.5499570000000  0.6012980000000  0.5147880000000 1.0
C      1  0.5500700000000  0.5172470000000  0.6008510000000 1.0
C      1  0.5501400000000  0.4094230000000  0.5475090000000 1.0
C      1  0.5500700000000  0.4268350000000  0.4284790000000 1.0
C      1  0.5500410000000  0.5454060000000  0.5917040000000 1.0
C      1  0.5499440000000  0.6013000000000  0.4851800000000 1.0
C      1  0.5499780000000  0.5172620000000  0.3991050000000 1.0
C      1  0.5500970000000  0.4094300000000  0.4524310000000 1.0
C      1  0.5501360000000  0.4268240000000  0.5714640000000 1.0
C      1  0.4494380000000  0.5600890000000  0.4755820000000 1.0
C      1  0.4494880000000  0.5417830000000  0.5496590000000 1.0
C      1  0.4495570000000  0.4656750000000  0.5551410000000 1.0
C      1  0.4495500000000  0.4369430000000  0.4844510000000 1.0
C      1  0.4494760000000  0.4952940000000  0.4352810000000 1.0
C      1  0.4494610000000  0.5600850000000  0.5244730000000 1.0
C      1  0.4494430000000  0.5417900000000  0.4503930000000 1.0
C      1  0.4495070000000  0.4656830000000  0.4449000000000 1.0
C      1  0.4495640000000  0.4369400000000  0.5155850000000 1.0
C      1  0.4495360000000  0.4952840000000  0.5647640000000 1.0
C      1  0.5319640000000  0.5669660000000  0.4177060000000 1.0
C      1  0.5319910000000  0.5989650000000  0.5382210000000 1.0
C      1  0.5321140000000  0.4942370000000  0.6058940000000 1.0
C      1  0.5321630000000  0.3975130000000  0.5272050000000 1.0
C      1  0.5320700000000  0.4424620000000  0.4108980000000 1.0
C      1  0.5320400000000  0.5669540000000  0.5822730000000 1.0
C      1  0.5319560000000  0.5989710000000  0.4617630000000 1.0
C      1  0.5320170000000  0.4942530000000  0.3940740000000 1.0
C      1  0.5321380000000  0.3975170000000  0.4727500000000 1.0
C      1  0.5321520000000  0.4424490000000  0.5890630000000 1.0
C      1  0.5396290000000  0.3933940000000  0.4999740000000 1.0
C      1  0.5394310000000  0.5863150000000  0.4373060000000 1.0
C      1  0.5395180000000  0.4670890000000  0.3985570000000 1.0
C      1  0.5394890000000  0.5863050000000  0.5626700000000 1.0
C      1  0.5396110000000  0.4670740000000  0.6014010000000 1.0
END
