TITL C-114861-6568-9 0.0284110429153148 125000 -207.969660448291 0 0 31 (Cs) n - 1
REM
REM in /rds/project/t2_vol4/rds-t2-cs072/BORA/CARBON/from-Arr/AIRSS/Generating-Clusters/GAP-ML-2020/Higher-Symm/SD-CG/HFTN-CG
REM
REM
REM
REM
REM
REM ./C.cell (b20cbc046b6831c77cfcea5457e17084)
REM AIRSS Version 0.9.1 bugfix July 2018 build 013d7b7c2542+ Fri, 06 Jul 2018 19:26:36 +0100
REM compiler GCC version 9.3.0
REM options -cpp -mtune=generic -march=x86-64 -g -O0
REM seed -300517719 48951917 1688603071 490965535 -1585588050 -964358341 -2024126954 -2000115310 1491163601 -1233893136 -2018620418 1299196022 -514145579 -1527065200 565086572 -2043663678 220757193 -89810488 833793188 -335868639 255508273 622595005 700243177 986941622 -188198276 -92315600 264655538 1065673232 516823354 1703860672 -705414168 536042956 720394697
REM
CELL 1.54180   50.00000   50.00000   50.00000   90.00000   90.00000   90.00000
LATT -1
SFAC C  
C      1  0.4674830000000  0.5018130000000  0.5386690000000 1.0
C      1  0.5327890000000  0.5022900000000  0.4618030000000 1.0
C      1  0.5322720000000  0.5019560000000  0.5395740000000 1.0
C      1  0.4679940000000  0.5021430000000  0.4618450000000 1.0
C      1  0.4749800000000  0.5283540000000  0.5284470000000 1.0
C      1  0.5252420000000  0.5279890000000  0.4728260000000 1.0
C      1  0.5248700000000  0.5277490000000  0.5286730000000 1.0
C      1  0.4753520000000  0.5285950000000  0.4723950000000 1.0
C      1  0.4313360000000  0.5186740000000  0.4858320000000 1.0
C      1  0.5689990000000  0.5184780000000  0.5153810000000 1.0
C      1  0.5691910000000  0.5186020000000  0.4866240000000 1.0
C      1  0.4311460000000  0.5185520000000  0.5143400000000 1.0
C      1  0.4442540000000  0.4940180000000  0.4764780000000 1.0
C      1  0.5566560000000  0.4941310000000  0.5248330000000 1.0
C      1  0.5569760000000  0.4943370000000  0.4768000000000 1.0
C      1  0.4439410000000  0.4938150000000  0.5236530000000 1.0
C      1  0.4517470000000  0.5397740000000  0.4856830000000 1.0
C      1  0.5482580000000  0.5388050000000  0.5155640000000 1.0
C      1  0.5484520000000  0.5389300000000  0.4863400000000 1.0
C      1  0.4515520000000  0.5396480000000  0.5149420000000 1.0
C      1  0.4875640000000  0.4870500000000  0.4491620000000 1.0
C      1  0.5120600000000  0.4869970000000  0.5514010000000 1.0
C      1  0.5127370000000  0.4874350000000  0.4495810000000 1.0
C      1  0.4868840000000  0.4866100000000  0.5514820000000 1.0
C      1  0.4999580000000  0.5333000000000  0.5163210000000 1.0
C      1  0.5001670000000  0.5334350000000  0.4848940000000 1.0
C      1  0.4455910000000  0.4761260000000  0.4999990000000 1.0
C      1  0.5588000000000  0.4795860000000  0.5007670000000 1.0
C      1  0.4801090000000  0.4384170000000  0.5000660000000 1.0
C      1  0.4595920000000  0.4533950000000  0.4999940000000 1.0
C      1  0.5031190000000  0.4264660000000  0.5001680000000 1.0
END
