TITL C-114839-6381-1 237.992914383693 125000 -1135.27425503345 0 0 160 (C5) n - 1
REM
REM in /rds/project/t2_vol4/rds-t2-cs072/BORA/CARBON/from-Arr/AIRSS/Generating-Clusters/GAP-ML-2020/Higher-Symm/SD-CG/HFTN-CG
REM
REM
REM
REM
REM
REM ./C.cell (b20cbc046b6831c77cfcea5457e17084)
REM AIRSS Version 0.9.1 bugfix July 2018 build 013d7b7c2542+ Fri, 06 Jul 2018 19:26:36 +0100
REM compiler GCC version 9.3.0
REM options -cpp -mtune=generic -march=x86-64 -g -O0
REM seed 1765365591 845186691 -1061580670 -561197508 1090684889 -1830271766 -1969864150 -789043572 -473450892 -384831703 -1923074502 -179539603 1797829342 523467476 -1790600684 -1107887607 2099535222 2069697989 538802758 -288738714 976467002 -365706514 -544459247 -1483115544 -1475375206 1851044621 1011751674 1471001597 -1233064338 1593123591 -229096830 -1465792493 1196331720
REM
CELL 1.54180   50.00000   50.00000   50.00000   90.00000   90.00000   90.00000
LATT -1
SFAC C  
C      1  0.5558460000000  0.5255130000000  0.5697230000000 1.0
C      1  0.4509420000000  0.5255080000000  0.5746570000000 1.0
C      1  0.4138320000000  0.5254890000000  0.4764120000000 1.0
C      1  0.4958010000000  0.5254830000000  0.4107590000000 1.0
C      1  0.5835710000000  0.5254980000000  0.4684280000000 1.0
C      1  0.5109610000000  0.5422020000000  0.5979440000000 1.0
C      1  0.4102290000000  0.5421860000000  0.5406890000000 1.0
C      1  0.4335540000000  0.5421690000000  0.4271940000000 1.0
C      1  0.5487020000000  0.5421740000000  0.4143050000000 1.0
C      1  0.5965420000000  0.5421940000000  0.5198340000000 1.0
C      1  0.5271520000000  0.5283400000000  0.5630760000000 1.0
C      1  0.4483960000000  0.5283320000000  0.5453130000000 1.0
C      1  0.4409530000000  0.5283190000000  0.4649230000000 1.0
C      1  0.5151080000000  0.5283180000000  0.4330020000000 1.0
C      1  0.5683820000000  0.5283310000000  0.4936640000000 1.0
C      1  0.5633090000000  0.5686380000000  0.5431020000000 1.0
C      1  0.4785570000000  0.5686380000000  0.5735260000000 1.0
C      1  0.4234330000000  0.5686230000000  0.5023240000000 1.0
C      1  0.4741160000000  0.5686130000000  0.4278940000000 1.0
C      1  0.5605640000000  0.5686230000000  0.4530970000000 1.0
C      1  0.3975980000000  0.5305420000000  0.5186240000000 1.0
C      1  0.4506380000000  0.5305270000000  0.4083640000000 1.0
C      1  0.5718920000000  0.5305370000000  0.4247350000000 1.0
C      1  0.5937910000000  0.5305580000000  0.5451130000000 1.0
C      1  0.4860720000000  0.5305610000000  0.6031400000000 1.0
C      1  0.4752520000000  0.6253120000000  0.4956940000000 1.0
C      1  0.4964230000000  0.6253100000000  0.4751250000000 1.0
C      1  0.5225270000000  0.6253140000000  0.4889040000000 1.0
C      1  0.5174890000000  0.6253180000000  0.5179890000000 1.0
C      1  0.4882720000000  0.6253170000000  0.5221850000000 1.0
C      1  0.4835930000000  0.4987970000000  0.4114100000000 1.0
C      1  0.5791850000000  0.4988100000000  0.4570200000000 1.0
C      1  0.5653460000000  0.4988270000000  0.5620280000000 1.0
C      1  0.4612010000000  0.4988240000000  0.5813150000000 1.0
C      1  0.4106750000000  0.4988060000000  0.4882280000000 1.0
C      1  0.5292790000000  0.4130090000000  0.5548990000000 1.0
C      1  0.4568530000000  0.4130030000000  0.5448160000000 1.0
C      1  0.4440610000000  0.4129900000000  0.4728190000000 1.0
C      1  0.5085820000000  0.4129880000000  0.4384050000000 1.0
C      1  0.5612490000000  0.4130000000000  0.4891330000000 1.0
C      1  0.6025700000000  0.4958120000000  0.5010500000000 1.0
C      1  0.5306980000000  0.4958240000000  0.5978750000000 1.0
C      1  0.4164030000000  0.4958110000000  0.5594410000000 1.0
C      1  0.4176360000000  0.4957910000000  0.4388620000000 1.0
C      1  0.5326940000000  0.4957920000000  0.4027750000000 1.0
C      1  0.5361850000000  0.5782730000000  0.5419540000000 1.0
C      1  0.4712660000000  0.5782700000000  0.5473740000000 1.0
C      1  0.4460500000000  0.5782580000000  0.4873070000000 1.0
C      1  0.4953850000000  0.5782540000000  0.4447640000000 1.0
C      1  0.5510910000000  0.5782630000000  0.4785370000000 1.0
C      1  0.5255820000000  0.5470750000000  0.5024460000000 1.0
C      1  0.5055700000000  0.5470780000000  0.5250830000000 1.0
C      1  0.4778560000000  0.5470740000000  0.5130460000000 1.0
C      1  0.4807400000000  0.5470690000000  0.4829690000000 1.0
C      1  0.5102370000000  0.5470700000000  0.4764170000000 1.0
C      1  0.5013590000000  0.4684140000000  0.4751480000000 1.0
C      1  0.5240620000000  0.4684190000000  0.4936150000000 1.0
C      1  0.5135140000000  0.4684230000000  0.5209130000000 1.0
C      1  0.4842930000000  0.4684210000000  0.5193170000000 1.0
C      1  0.4767810000000  0.4684150000000  0.4910330000000 1.0
C      1  0.5741650000000  0.4636990000000  0.5220610000000 1.0
C      1  0.5019440000000  0.4637040000000  0.5773540000000 1.0
C      1  0.4270400000000  0.4636910000000  0.5257550000000 1.0
C      1  0.4529670000000  0.4636780000000  0.4385710000000 1.0
C      1  0.5438950000000  0.4636830000000  0.4362880000000 1.0
C      1  0.4058990000000  0.4839550000000  0.5357140000000 1.0
C      1  0.4369590000000  0.4839380000000  0.4215420000000 1.0
C      1  0.5551400000000  0.4839440000000  0.4158000000000 1.0
C      1  0.5971210000000  0.4839640000000  0.5264230000000 1.0
C      1  0.5048850000000  0.4839710000000  0.6005340000000 1.0
C      1  0.5205000000000  0.3861460000000  0.4866230000000 1.0
C      1  0.5190790000000  0.3861500000000  0.5153700000000 1.0
C      1  0.4913010000000  0.3861500000000  0.5229010000000 1.0
C      1  0.4755540000000  0.3861450000000  0.4988100000000 1.0
C      1  0.4936000000000  0.3861420000000  0.4763890000000 1.0
C      1  0.4966550000000  0.4367400000000  0.4276730000000 1.0
C      1  0.5677660000000  0.4367520000000  0.4744720000000 1.0
C      1  0.5452320000000  0.4367640000000  0.5565640000000 1.0
C      1  0.4601940000000  0.4367590000000  0.5605010000000 1.0
C      1  0.4301720000000  0.4367450000000  0.4808410000000 1.0
C      1  0.4820450000000  0.5166450000000  0.4824850000000 1.0
C      1  0.5111060000000  0.5166460000000  0.4775100000000 1.0
C      1  0.5248180000000  0.5166510000000  0.5036120000000 1.0
C      1  0.5042310000000  0.5166530000000  0.5247180000000 1.0
C      1  0.4777960000000  0.5166500000000  0.5116610000000 1.0
C      1  0.5555610000000  0.5562820000000  0.4980100000000 1.0
C      1  0.5190510000000  0.5562890000000  0.5522240000000 1.0
C      1  0.4562090000000  0.5562820000000  0.5342530000000 1.0
C      1  0.4538800000000  0.5562710000000  0.4689330000000 1.0
C      1  0.5152830000000  0.5562710000000  0.4465340000000 1.0
C      1  0.5778280000000  0.5454710000000  0.4489480000000 1.0
C      1  0.5725950000000  0.5454880000000  0.5582400000000 1.0
C      1  0.4670340000000  0.5454870000000  0.5870360000000 1.0
C      1  0.4070280000000  0.5454680000000  0.4955410000000 1.0
C      1  0.4755020000000  0.5454580000000  0.4101980000000 1.0
C      1  0.5114500000000  0.5044030000000  0.5500840000000 1.0
C      1  0.4559040000000  0.5043960000000  0.5263660000000 1.0
C      1  0.4612970000000  0.5043870000000  0.4662100000000 1.0
C      1  0.5201760000000  0.5043880000000  0.4527500000000 1.0
C      1  0.5511720000000  0.5043980000000  0.5045870000000 1.0
C      1  0.4380390000000  0.4818940000000  0.5710620000000 1.0
C      1  0.4132730000000  0.4818750000000  0.4630320000000 1.0
C      1  0.5083620000000  0.4818710000000  0.4060950000000 1.0
C      1  0.5918970000000  0.4818880000000  0.4789350000000 1.0
C      1  0.5484350000000  0.4819020000000  0.5808910000000 1.0
C      1  0.4716870000000  0.5942690000000  0.4949460000000 1.0
C      1  0.4960390000000  0.5942670000000  0.4715050000000 1.0
C      1  0.5258570000000  0.5942710000000  0.4874220000000 1.0
C      1  0.5199340000000  0.5942760000000  0.5207000000000 1.0
C      1  0.4864550000000  0.5942750000000  0.5253500000000 1.0
C      1  0.5594810000000  0.4136020000000  0.5181840000000 1.0
C      1  0.5011030000000  0.4136060000000  0.5621940000000 1.0
C      1  0.4412080000000  0.4135960000000  0.5202730000000 1.0
C      1  0.4625680000000  0.4135850000000  0.4503560000000 1.0
C      1  0.5356650000000  0.4135890000000  0.4490640000000 1.0
C      1  0.5524110000000  0.4375270000000  0.4495670000000 1.0
C      1  0.5641730000000  0.4375410000000  0.5342640000000 1.0
C      1  0.4872550000000  0.4375430000000  0.5716240000000 1.0
C      1  0.4279560000000  0.4375290000000  0.5100160000000 1.0
C      1  0.4682240000000  0.4375190000000  0.4345810000000 1.0
C      1  0.4502140000000  0.3985900000000  0.4973920000000 1.0
C      1  0.4871160000000  0.3985850000000  0.4518510000000 1.0
C      1  0.5418310000000  0.3985910000000  0.4728740000000 1.0
C      1  0.5387450000000  0.3986010000000  0.5314070000000 1.0
C      1  0.4821230000000  0.3986000000000  0.5465600000000 1.0
C      1  0.4868420000000  0.4886860000000  0.5623610000000 1.0
C      1  0.4366280000000  0.4886740000000  0.5067570000000 1.0
C      1  0.4739930000000  0.4886650000000  0.4418180000000 1.0
C      1  0.5473000000000  0.4886720000000  0.4572870000000 1.0
C      1  0.5552410000000  0.4886850000000  0.5317860000000 1.0
C      1  0.5279800000000  0.5241810000000  0.4057550000000 1.0
C      1  0.5982730000000  0.5242010000000  0.4974860000000 1.0
C      1  0.5327540000000  0.5242120000000  0.5926850000000 1.0
C      1  0.4219680000000  0.5242000000000  0.5597910000000 1.0
C      1  0.4190170000000  0.5241810000000  0.4442620000000 1.0
C      1  0.4688330000000  0.4811190000000  0.5400640000000 1.0
C      1  0.4522690000000  0.4811090000000  0.4827400000000 1.0
C      1  0.5016700000000  0.4811060000000  0.4492720000000 1.0
C      1  0.5487640000000  0.4811150000000  0.4859130000000 1.0
C      1  0.5284700000000  0.4811230000000  0.5420260000000 1.0
C      1  0.4776430000000  0.4378380000000  0.4908070000000 1.0
C      1  0.5018470000000  0.4378370000000  0.4759000000000 1.0
C      1  0.5235030000000  0.4378410000000  0.4943130000000 1.0
C      1  0.5126840000000  0.4378450000000  0.5205990000000 1.0
C      1  0.4843410000000  0.4378430000000  0.5184320000000 1.0
C      1  0.5321700000000  0.4621550000000  0.5665320000000 1.0
C      1  0.4466730000000  0.4621470000000  0.5511580000000 1.0
C      1  0.4348750000000  0.4621320000000  0.4650940000000 1.0
C      1  0.5130800000000  0.4621310000000  0.4272780000000 1.0
C      1  0.5732120000000  0.4621450000000  0.4899700000000 1.0
C      1  0.4274200000000  0.5628490000000  0.5292450000000 1.0
C      1  0.4497460000000  0.5628360000000  0.4400060000000 1.0
C      1  0.5415160000000  0.5628400000000  0.4336630000000 1.0
C      1  0.5759070000000  0.5628560000000  0.5189810000000 1.0
C      1  0.5053920000000  0.5628620000000  0.5780540000000 1.0
C      1  0.5747840000000  0.5020870000000  0.4278210000000 1.0
C      1  0.5917550000000  0.5021080000000  0.5488190000000 1.0
C      1  0.4819240000000  0.5021100000000  0.6023500000000 1.0
C      1  0.3970730000000  0.5020910000000  0.5144360000000 1.0
C      1  0.4544640000000  0.5020770000000  0.4065720000000 1.0
END
