TITL C-110373-4516-3 199.480678577781 125000 -279.361917939741 0 0 42 (S4) n - 1
REM
REM in /rds/project/t2_vol4/rds-t2-cs072/BORA/CARBON/from-Arr/AIRSS/Generating-Clusters/GAP-ML-2020/Higher-Symm/SD-CG/HFTN-CG
REM
REM
REM
REM
REM
REM ./C.cell (b20cbc046b6831c77cfcea5457e17084)
REM AIRSS Version 0.9.1 bugfix July 2018 build 013d7b7c2542+ Fri, 06 Jul 2018 19:26:36 +0100
REM compiler GCC version 9.3.0
REM options -cpp -mtune=generic -march=x86-64 -g -O0
REM seed 795853753 -122694657 1101323269 -842299970 -328755470 167582036 -1506781472 -716053645 -1750747073 896190095 251900484 -720023683 -941404811 1239266403 -1894164514 1967935316 -1615450232 577815870 -1358217525 26825245 -520398765 -1158822570 14061443 414029290 1716232303 -1181302877 -1121408267 -1241692254 -1199470596 173018055 972913048 -1576621249 55220264
REM
CELL 1.54180   50.00000   50.00000   50.00000   90.00000   90.00000   90.00000
LATT -1
SFAC C  
C      1  0.4764860000000  0.4712090000000  0.5173930000000 1.0
C      1  0.4825930000000  0.5287930000000  0.4774390000000 1.0
C      1  0.5225440000000  0.4712070000000  0.4835430000000 1.0
C      1  0.5164420000000  0.5287910000000  0.5234970000000 1.0
C      1  0.4653830000000  0.5148870000000  0.5719600000000 1.0
C      1  0.4280240000000  0.4851170000000  0.4663340000000 1.0
C      1  0.5336510000000  0.5148840000000  0.4289760000000 1.0
C      1  0.5710080000000  0.4851120000000  0.5346020000000 1.0
C      1  0.4724790000000  0.5482600000000  0.5121520000000 1.0
C      1  0.4878310000000  0.4517420000000  0.4734290000000 1.0
C      1  0.5265580000000  0.5482570000000  0.4887840000000 1.0
C      1  0.5111990000000  0.4517410000000  0.5275080000000 1.0
C      1  0.4418530000000  0.5103990000000  0.5621630000000 1.0
C      1  0.4378210000000  0.4896050000000  0.4428040000000 1.0
C      1  0.5571810000000  0.5103940000000  0.4387730000000 1.0
C      1  0.5612110000000  0.4896010000000  0.5581320000000 1.0
C      1  0.5066320000000  0.5190910000000  0.5486650000000 1.0
C      1  0.4513190000000  0.4809110000000  0.5075830000000 1.0
C      1  0.4924030000000  0.5190910000000  0.4522720000000 1.0
C      1  0.5477120000000  0.4809070000000  0.4933530000000 1.0
C      1  0.4631650000000  0.4782230000000  0.4442680000000 1.0
C      1  0.5557170000000  0.5217760000000  0.4641180000000 1.0
C      1  0.5358660000000  0.4782200000000  0.5566680000000 1.0
C      1  0.4433180000000  0.5217810000000  0.5368190000000 1.0
C      1  0.4595140000000  0.5292270000000  0.4942430000000 1.0
C      1  0.5057410000000  0.4707740000000  0.4604650000000 1.0
C      1  0.5395210000000  0.5292240000000  0.5066930000000 1.0
C      1  0.4932900000000  0.4707750000000  0.5404710000000 1.0
C      1  0.5558420000000  0.4682540000000  0.5173730000000 1.0
C      1  0.4826130000000  0.5317450000000  0.5567950000000 1.0
C      1  0.4431890000000  0.4682580000000  0.4835640000000 1.0
C      1  0.5164220000000  0.5317430000000  0.4441410000000 1.0
C      1  0.5099660000000  0.4904150000000  0.5559280000000 1.0
C      1  0.4440570000000  0.5095870000000  0.5109180000000 1.0
C      1  0.4890660000000  0.4904160000000  0.4450080000000 1.0
C      1  0.5549770000000  0.5095820000000  0.4900180000000 1.0
C      1  0.4617630000000  0.4560820000000  0.4653000000000 1.0
C      1  0.5346870000000  0.5439180000000  0.4627170000000 1.0
C      1  0.5372660000000  0.4560800000000  0.5356360000000 1.0
C      1  0.4643500000000  0.5439200000000  0.5382190000000 1.0
C      1  0.4995150000000  0.4576140000000  0.5004680000000 1.0
C      1  0.4995180000000  0.5423860000000  0.5004680000000 1.0
END
