TITL C-114855-6420-10 -0.0946185535001282 125000 -91.2547684558235 0 0 15 (C2v) n - 1
REM
REM in /rds/project/t2_vol4/rds-t2-cs072/BORA/CARBON/from-Arr/AIRSS/Generating-Clusters/GAP-ML-2020/Higher-Symm/SD-CG/HFTN-CG
REM
REM
REM
REM
REM
REM ./C.cell (b20cbc046b6831c77cfcea5457e17084)
REM AIRSS Version 0.9.1 bugfix July 2018 build 013d7b7c2542+ Fri, 06 Jul 2018 19:26:36 +0100
REM compiler GCC version 9.3.0
REM options -cpp -mtune=generic -march=x86-64 -g -O0
REM seed -407226135 1957497347 -1009960852 -2020951502 661479287 -1668531696 2094907797 387359617 -844750334 -143444888 -787675044 2015577759 -1297808850 1291361547 -2104525825 -837821410 -804631532 -380677374 523190359 -331539836 1089024345 1466604397 -1070776708 -1855988027 1092674362 -1024140962 -41717537 596306488 535314216 755374456 1655151355 -1536934913 -18797356
REM
CELL 1.54180   50.00000   50.00000   50.00000   90.00000   90.00000   90.00000
LATT -1
SFAC C  
C      1  0.5468050000000  0.4977780000000  0.4736530000000 1.0
C      1  0.4739170000000  0.4967170000000  0.4540930000000 1.0
C      1  0.4557090000000  0.4948450000000  0.5231800000000 1.0
C      1  0.5277980000000  0.4959430000000  0.5402880000000 1.0
C      1  0.5477420000000  0.4967250000000  0.5230000000000 1.0
C      1  0.4757370000000  0.4948790000000  0.5403900000000 1.0
C      1  0.4564100000000  0.4959320000000  0.4738310000000 1.0
C      1  0.5292030000000  0.4978470000000  0.4539840000000 1.0
C      1  0.5017790000000  0.4953100000000  0.5450170000000 1.0
C      1  0.5015770000000  0.4971240000000  0.4613340000000 1.0
C      1  0.4457610000000  0.4951840000000  0.4982470000000 1.0
C      1  0.5575710000000  0.4974680000000  0.4980280000000 1.0
C      1  0.5011220000000  0.5230560000000  0.4992300000000 1.0
C      1  0.5022120000000  0.4695740000000  0.4980680000000 1.0
C      1  0.5016520000000  0.4964540000000  0.4922150000000 1.0
END
