TITL C-110351-4962-6 52.4023130882185 125000 -476.285991584401 0 0 69 (C1) n - 1
REM
REM in /rds/project/t2_vol4/rds-t2-cs072/BORA/CARBON/from-Arr/AIRSS/Generating-Clusters/GAP-ML-2020/Higher-Symm/SD-CG/HFTN-CG
REM
REM
REM
REM
REM
REM ./C.cell (b20cbc046b6831c77cfcea5457e17084)
REM AIRSS Version 0.9.1 bugfix July 2018 build 013d7b7c2542+ Fri, 06 Jul 2018 19:26:36 +0100
REM compiler GCC version 9.3.0
REM options -cpp -mtune=generic -march=x86-64 -g -O0
REM seed -1394399244 -526506807 -624560899 -197081669 -1990862294 483695159 1981718469 -316073979 -783631405 -1134008003 1996688671 -1039111146 1121623450 1423460271 -540762453 -1768320789 1015960990 -1293709109 1869249984 2083458386 -1413167247 2042186031 1802089259 959829632 564755039 1891402815 -1968842623 -1297909241 27832695 -2146040304 604780637 1485491158 942678152
REM
CELL 1.54180   50.00000   50.00000   50.00000   90.00000   90.00000   90.00000
LATT -1
SFAC C  
C      1  0.4942730000000  0.4429440000000  0.5381070000000 1.0
C      1  0.4491580000000  0.4978370000000  0.5134380000000 1.0
C      1  0.5369310000000  0.5642290000000  0.5140740000000 1.0
C      1  0.4478000000000  0.4522960000000  0.5267940000000 1.0
C      1  0.4954820000000  0.5166900000000  0.4143400000000 1.0
C      1  0.4408450000000  0.4590930000000  0.5523850000000 1.0
C      1  0.4719830000000  0.4369670000000  0.5205900000000 1.0
C      1  0.4811500000000  0.5583980000000  0.4674020000000 1.0
C      1  0.5078050000000  0.4827630000000  0.4880550000000 1.0
C      1  0.4572760000000  0.5406850000000  0.5209200000000 1.0
C      1  0.5296480000000  0.5355440000000  0.5574850000000 1.0
C      1  0.5000010000000  0.5113420000000  0.5222880000000 1.0
C      1  0.4981520000000  0.4222440000000  0.4794030000000 1.0
C      1  0.5546410000000  0.4905900000000  0.4562230000000 1.0
C      1  0.4846810000000  0.5611420000000  0.5535760000000 1.0
C      1  0.4413700000000  0.5429310000000  0.4940100000000 1.0
C      1  0.5318960000000  0.4648840000000  0.5547190000000 1.0
C      1  0.4726180000000  0.5153460000000  0.4310700000000 1.0
C      1  0.5633920000000  0.5140890000000  0.4714420000000 1.0
C      1  0.4453080000000  0.4918150000000  0.4616860000000 1.0
C      1  0.4869220000000  0.4647230000000  0.4382180000000 1.0
C      1  0.5018410000000  0.5200480000000  0.4610580000000 1.0
C      1  0.5545520000000  0.5597220000000  0.4918800000000 1.0
C      1  0.5132350000000  0.5270570000000  0.4334980000000 1.0
C      1  0.5339080000000  0.5099680000000  0.5687670000000 1.0
C      1  0.4686040000000  0.5087660000000  0.4924020000000 1.0
C      1  0.5091110000000  0.4988350000000  0.5777770000000 1.0
C      1  0.5656140000000  0.4968710000000  0.5360740000000 1.0
C      1  0.5591120000000  0.4610430000000  0.4981600000000 1.0
C      1  0.4694660000000  0.5672690000000  0.5320780000000 1.0
C      1  0.5214540000000  0.5055110000000  0.4174300000000 1.0
C      1  0.4822930000000  0.5800710000000  0.5096920000000 1.0
C      1  0.4875760000000  0.5156150000000  0.5700140000000 1.0
C      1  0.5373780000000  0.4428380000000  0.5080870000000 1.0
C      1  0.4997840000000  0.5479510000000  0.4893130000000 1.0
C      1  0.4410990000000  0.4722010000000  0.5071000000000 1.0
C      1  0.4822350000000  0.5296940000000  0.5077990000000 1.0
C      1  0.5707600000000  0.5099710000000  0.4980920000000 1.0
C      1  0.5328640000000  0.4492420000000  0.4614830000000 1.0
C      1  0.5235950000000  0.4460110000000  0.5337570000000 1.0
C      1  0.5238870000000  0.4338280000000  0.4840920000000 1.0
C      1  0.4702940000000  0.4895990000000  0.4453780000000 1.0
C      1  0.4576520000000  0.4442720000000  0.4721280000000 1.0
C      1  0.5092050000000  0.4716800000000  0.5704320000000 1.0
C      1  0.5335720000000  0.4867060000000  0.4359770000000 1.0
C      1  0.5706130000000  0.4836910000000  0.5106630000000 1.0
C      1  0.4736930000000  0.4311350000000  0.4930350000000 1.0
C      1  0.5477410000000  0.5385320000000  0.4757900000000 1.0
C      1  0.4623070000000  0.4747750000000  0.5595840000000 1.0
C      1  0.5096180000000  0.5704010000000  0.5051490000000 1.0
C      1  0.4713890000000  0.5337510000000  0.4544450000000 1.0
C      1  0.5169250000000  0.4645410000000  0.4425930000000 1.0
C      1  0.4396120000000  0.5682420000000  0.4855030000000 1.0
C      1  0.4866290000000  0.4595390000000  0.5602100000000 1.0
C      1  0.4436770000000  0.4684750000000  0.4786530000000 1.0
C      1  0.5175790000000  0.5032630000000  0.5031780000000 1.0
C      1  0.4638600000000  0.5041160000000  0.5580930000000 1.0
C      1  0.5453130000000  0.5439330000000  0.5342080000000 1.0
C      1  0.4662850000000  0.5753570000000  0.4845880000000 1.0
C      1  0.5489350000000  0.4886250000000  0.5565110000000 1.0
C      1  0.5199720000000  0.5284900000000  0.4818290000000 1.0
C      1  0.4999590000000  0.5405880000000  0.5617350000000 1.0
C      1  0.4924290000000  0.4198130000000  0.4520120000000 1.0
C      1  0.4881040000000  0.4952970000000  0.4725560000000 1.0
C      1  0.4510070000000  0.5153270000000  0.5356590000000 1.0
C      1  0.4750430000000  0.4410100000000  0.4476200000000 1.0
C      1  0.5635680000000  0.5234860000000  0.5243580000000 1.0
C      1  0.4505310000000  0.5210180000000  0.4732780000000 1.0
C      1  0.5547880000000  0.4652740000000  0.4700570000000 1.0
END
