TITL C-114844-6528-6 30.8437411948404 125000 -851.978234828238 0 0 121 (C1) n - 1
REM
REM in /rds/project/t2_vol4/rds-t2-cs072/BORA/CARBON/from-Arr/AIRSS/Generating-Clusters/GAP-ML-2020/Higher-Symm/SD-CG/HFTN-CG
REM
REM
REM
REM
REM
REM ./C.cell (b20cbc046b6831c77cfcea5457e17084)
REM AIRSS Version 0.9.1 bugfix July 2018 build 013d7b7c2542+ Fri, 06 Jul 2018 19:26:36 +0100
REM compiler GCC version 9.3.0
REM options -cpp -mtune=generic -march=x86-64 -g -O0
REM seed 750114446 1938723055 1442882381 -1775980793 44412605 -1538200574 -1839990966 1710250167 -1806882752 -1885929253 -1061267524 -573475131 574822461 1464690434 -2052237351 1105509842 -631550642 -1118009156 1144908919 -924325618 993508807 1685639131 193328266 -650338665 -1428610540 1674241477 -213415169 -1151484921 812497321 1273080381 316023738 -1025668663 1682726237
REM
CELL 1.54180   50.00000   50.00000   50.00000   90.00000   90.00000   90.00000
LATT -1
SFAC C  
C      1  0.4972250000000  0.4315840000000  0.5742330000000 1.0
C      1  0.4413060000000  0.4693630000000  0.5736300000000 1.0
C      1  0.4437340000000  0.5367530000000  0.5763510000000 1.0
C      1  0.5050330000000  0.5660180000000  0.5737430000000 1.0
C      1  0.5616650000000  0.5292380000000  0.5763910000000 1.0
C      1  0.5573760000000  0.4619980000000  0.5754570000000 1.0
C      1  0.4993030000000  0.4305630000000  0.4223500000000 1.0
C      1  0.4412320000000  0.4650350000000  0.4236180000000 1.0
C      1  0.4443510000000  0.5320470000000  0.4262310000000 1.0
C      1  0.5039100000000  0.5646430000000  0.4270020000000 1.0
C      1  0.5612760000000  0.5296950000000  0.4233730000000 1.0
C      1  0.5583870000000  0.4626360000000  0.4228360000000 1.0
C      1  0.5680940000000  0.4889070000000  0.4230730000000 1.0
C      1  0.5267750000000  0.4360350000000  0.4229170000000 1.0
C      1  0.4601640000000  0.4444470000000  0.4231040000000 1.0
C      1  0.4342030000000  0.5059410000000  0.4258040000000 1.0
C      1  0.4755790000000  0.5600550000000  0.4274080000000 1.0
C      1  0.5435110000000  0.5515910000000  0.4228870000000 1.0
C      1  0.5674950000000  0.4881530000000  0.5759490000000 1.0
C      1  0.5248890000000  0.4363070000000  0.5745460000000 1.0
C      1  0.4588900000000  0.4473840000000  0.5720480000000 1.0
C      1  0.4340700000000  0.5104730000000  0.5764810000000 1.0
C      1  0.4764630000000  0.5627440000000  0.5737230000000 1.0
C      1  0.5443530000000  0.5515330000000  0.5769840000000 1.0
C      1  0.4196590000000  0.5697610000000  0.5128860000000 1.0
C      1  0.5137280000000  0.5779900000000  0.5142320000000 1.0
C      1  0.5727860000000  0.5330930000000  0.5147790000000 1.0
C      1  0.5658440000000  0.4571550000000  0.5141380000000 1.0
C      1  0.4994900000000  0.4194720000000  0.5130230000000 1.0
C      1  0.4201240000000  0.4666930000000  0.5158410000000 1.0
C      1  0.4206830000000  0.5686850000000  0.4875730000000 1.0
C      1  0.5135160000000  0.5769660000000  0.4862810000000 1.0
C      1  0.5726650000000  0.5329470000000  0.4852590000000 1.0
C      1  0.5659100000000  0.4574380000000  0.4848320000000 1.0
C      1  0.4995510000000  0.4196090000000  0.4836380000000 1.0
C      1  0.4092050000000  0.4634340000000  0.4912570000000 1.0
C      1  0.5298840000000  0.5685000000000  0.4425690000000 1.0
C      1  0.5751450000000  0.5106520000000  0.4416970000000 1.0
C      1  0.5493920000000  0.4414350000000  0.4412650000000 1.0
C      1  0.4766330000000  0.4272540000000  0.4409520000000 1.0
C      1  0.4273860000000  0.4828390000000  0.4431530000000 1.0
C      1  0.4518450000000  0.5534520000000  0.4445570000000 1.0
C      1  0.5306530000000  0.5688230000000  0.5576050000000 1.0
C      1  0.5753180000000  0.5101850000000  0.5579690000000 1.0
C      1  0.5481290000000  0.4410600000000  0.5567660000000 1.0
C      1  0.4751170000000  0.4290430000000  0.5548010000000 1.0
C      1  0.4258190000000  0.4893140000000  0.5577950000000 1.0
C      1  0.4519200000000  0.5572150000000  0.5569740000000 1.0
C      1  0.5831870000000  0.5107810000000  0.5311150000000 1.0
C      1  0.5537520000000  0.4353650000000  0.5300350000000 1.0
C      1  0.4748360000000  0.4205110000000  0.5282310000000 1.0
C      1  0.4154620000000  0.4897600000000  0.5321350000000 1.0
C      1  0.4438470000000  0.5589400000000  0.5286120000000 1.0
C      1  0.5376240000000  0.5754170000000  0.5311210000000 1.0
C      1  0.5833190000000  0.5109880000000  0.4684870000000 1.0
C      1  0.5544780000000  0.4357750000000  0.4681030000000 1.0
C      1  0.4751990000000  0.4203930000000  0.4677360000000 1.0
C      1  0.4250900000000  0.4797430000000  0.4722700000000 1.0
C      1  0.4446260000000  0.5555410000000  0.4726560000000 1.0
C      1  0.5370560000000  0.5751250000000  0.4689920000000 1.0
C      1  0.5222220000000  0.4906220000000  0.5315030000000 1.0
C      1  0.5004090000000  0.4722710000000  0.5297710000000 1.0
C      1  0.4735390000000  0.4805720000000  0.5237320000000 1.0
C      1  0.4695120000000  0.5187920000000  0.5282380000000 1.0
C      1  0.4939950000000  0.5324660000000  0.5303540000000 1.0
C      1  0.5190220000000  0.5188910000000  0.5311540000000 1.0
C      1  0.5233620000000  0.4910340000000  0.4678250000000 1.0
C      1  0.5014330000000  0.4734120000000  0.4677060000000 1.0
C      1  0.4746800000000  0.4832960000000  0.4694750000000 1.0
C      1  0.4725810000000  0.5122140000000  0.4790670000000 1.0
C      1  0.4945170000000  0.5307800000000  0.4718940000000 1.0
C      1  0.5196860000000  0.5188410000000  0.4691950000000 1.0
C      1  0.5112520000000  0.5258610000000  0.6055110000000 1.0
C      1  0.5290730000000  0.5033420000000  0.6056820000000 1.0
C      1  0.5188190000000  0.4766210000000  0.6052280000000 1.0
C      1  0.4905400000000  0.4722940000000  0.6042800000000 1.0
C      1  0.4729800000000  0.4947910000000  0.6045380000000 1.0
C      1  0.4829760000000  0.5216920000000  0.6049580000000 1.0
C      1  0.5107300000000  0.5252570000000  0.3942940000000 1.0
C      1  0.5294170000000  0.5034540000000  0.3931700000000 1.0
C      1  0.5196650000000  0.4765290000000  0.3927310000000 1.0
C      1  0.4914180000000  0.4713000000000  0.3930340000000 1.0
C      1  0.4728040000000  0.4929720000000  0.3946880000000 1.0
C      1  0.4826420000000  0.5198720000000  0.3953760000000 1.0
C      1  0.5410270000000  0.5315090000000  0.4854970000000 1.0
C      1  0.5463630000000  0.4818400000000  0.4848150000000 1.0
C      1  0.5089890000000  0.4489780000000  0.4837260000000 1.0
C      1  0.4516250000000  0.4649850000000  0.4807490000000 1.0
C      1  0.4454910000000  0.5271260000000  0.4844250000000 1.0
C      1  0.4918480000000  0.5605760000000  0.4772680000000 1.0
C      1  0.5404620000000  0.5315770000000  0.5145170000000 1.0
C      1  0.5462180000000  0.4819520000000  0.5144610000000 1.0
C      1  0.5088540000000  0.4490180000000  0.5130910000000 1.0
C      1  0.4500730000000  0.4629280000000  0.5129630000000 1.0
C      1  0.4437210000000  0.5303000000000  0.5176410000000 1.0
C      1  0.4916840000000  0.5635240000000  0.5249130000000 1.0
C      1  0.5199760000000  0.5490970000000  0.5925490000000 1.0
C      1  0.5539970000000  0.5069790000000  0.5935420000000 1.0
C      1  0.5344100000000  0.4572480000000  0.5925090000000 1.0
C      1  0.4814090000000  0.4494360000000  0.5907500000000 1.0
C      1  0.4484950000000  0.4907140000000  0.5921600000000 1.0
C      1  0.4675170000000  0.5416080000000  0.5924930000000 1.0
C      1  0.5189250000000  0.5484500000000  0.4077110000000 1.0
C      1  0.5541320000000  0.5075970000000  0.4057380000000 1.0
C      1  0.5358140000000  0.4574020000000  0.4052420000000 1.0
C      1  0.4831610000000  0.4476640000000  0.4053990000000 1.0
C      1  0.4481900000000  0.4878840000000  0.4071730000000 1.0
C      1  0.4671340000000  0.5384220000000  0.4091950000000 1.0
C      1  0.4672600000000  0.5682300000000  0.4868080000000 1.0
C      1  0.5556330000000  0.5594640000000  0.4851400000000 1.0
C      1  0.5772410000000  0.4871350000000  0.4850090000000 1.0
C      1  0.5312700000000  0.4265310000000  0.4839790000000 1.0
C      1  0.4550120000000  0.4348910000000  0.4829660000000 1.0
C      1  0.4243120000000  0.5070730000000  0.4866790000000 1.0
C      1  0.4671150000000  0.5701260000000  0.5142340000000 1.0
C      1  0.5558040000000  0.5594240000000  0.5149240000000 1.0
C      1  0.5770150000000  0.4870570000000  0.5145010000000 1.0
C      1  0.5308720000000  0.4264530000000  0.5133310000000 1.0
C      1  0.4554370000000  0.4337710000000  0.5112050000000 1.0
C      1  0.4214220000000  0.5109950000000  0.5145680000000 1.0
C      1  0.4784880000000  0.5029740000000  0.5075040000000 1.0
END
