TITL C-110005-9486-3 -35.5305343323022 125000 -394.549702413228 0 0 55 (C1) n - 1
REM
REM in /rds/project/t2_vol4/rds-t2-cs072/BORA/CARBON/from-Arr/AIRSS/Generating-Clusters/GAP-ML-2020/Higher-Symm/SD-CG/HFTN-CG
REM
REM
REM
REM
REM
REM ./C.cell (b20cbc046b6831c77cfcea5457e17084)
REM AIRSS Version 0.9.1 bugfix July 2018 build 013d7b7c2542+ Fri, 06 Jul 2018 19:26:36 +0100
REM compiler GCC version 9.3.0
REM options -cpp -mtune=generic -march=x86-64 -g -O0
REM seed -1233833782 1325147460 368817628 1580042772 841285420 -630643683 120877660 1142252557 1237608402 -1333094952 845569258 1439572852 -1856334276 -1315226290 120490150 -1397685377 1562321525 -1044970167 -172624972 920163187 -1065211810 -986318889 -1394589080 355077276 -1584310719 988172712 -764598898 -652795925 -1096178945 1536281551 2016576537 1228081987 1341060854
REM
CELL 1.54180   50.00000   50.00000   50.00000   90.00000   90.00000   90.00000
LATT -1
SFAC C  
C      1  0.5128620000000  0.4387810000000  0.4930220000000 1.0
C      1  0.5123520000000  0.4461620000000  0.5472480000000 1.0
C      1  0.5176910000000  0.4728860000000  0.5572490000000 1.0
C      1  0.5210420000000  0.5301720000000  0.5483840000000 1.0
C      1  0.5231830000000  0.5493470000000  0.5266070000000 1.0
C      1  0.5231130000000  0.5798140000000  0.4765090000000 1.0
C      1  0.5220690000000  0.5314060000000  0.4482610000000 1.0
C      1  0.5202490000000  0.5029530000000  0.4402330000000 1.0
C      1  0.5161080000000  0.4526590000000  0.4679900000000 1.0
C      1  0.5558320000000  0.4564880000000  0.5090940000000 1.0
C      1  0.5609410000000  0.4763930000000  0.5290110000000 1.0
C      1  0.5712570000000  0.5002540000000  0.5149850000000 1.0
C      1  0.5616130000000  0.5225830000000  0.5289560000000 1.0
C      1  0.5660950000000  0.5553610000000  0.4972770000000 1.0
C      1  0.5569940000000  0.5588920000000  0.4720610000000 1.0
C      1  0.5597550000000  0.5089720000000  0.4635710000000 1.0
C      1  0.5701280000000  0.4952960000000  0.4863310000000 1.0
C      1  0.5608850000000  0.4673850000000  0.4838390000000 1.0
C      1  0.5463340000000  0.5862080000000  0.4677110000000 1.0
C      1  0.5488070000000  0.5352630000000  0.4583530000000 1.0
C      1  0.5431780000000  0.4899420000000  0.4491530000000 1.0
C      1  0.5419380000000  0.4649180000000  0.4626140000000 1.0
C      1  0.5351980000000  0.4374920000000  0.5120200000000 1.0
C      1  0.5317160000000  0.4292950000000  0.5380650000000 1.0
C      1  0.5425760000000  0.4851050000000  0.5499130000000 1.0
C      1  0.5440180000000  0.5137280000000  0.5492790000000 1.0
C      1  0.5512870000000  0.5466650000000  0.5176090000000 1.0
C      1  0.4951120000000  0.4903150000000  0.5630600000000 1.0
C      1  0.4970110000000  0.5187790000000  0.5571440000000 1.0
C      1  0.5003880000000  0.5554520000000  0.5102720000000 1.0
C      1  0.5026030000000  0.5627520000000  0.4821410000000 1.0
C      1  0.4985320000000  0.5444590000000  0.4589690000000 1.0
C      1  0.4959810000000  0.4888380000000  0.4397040000000 1.0
C      1  0.4931200000000  0.4633970000000  0.4545300000000 1.0
C      1  0.4870020000000  0.4375400000000  0.5055730000000 1.0
C      1  0.4867310000000  0.4409200000000  0.5346320000000 1.0
C      1  0.4745250000000  0.5064860000000  0.4375850000000 1.0
C      1  0.4672660000000  0.4580070000000  0.4652830000000 1.0
C      1  0.4643540000000  0.4461840000000  0.4910400000000 1.0
C      1  0.4656480000000  0.4542690000000  0.5462580000000 1.0
C      1  0.4691630000000  0.4793230000000  0.5606950000000 1.0
C      1  0.4748530000000  0.5318080000000  0.5463020000000 1.0
C      1  0.4762380000000  0.5462130000000  0.5213160000000 1.0
C      1  0.4384740000000  0.5251670000000  0.4891580000000 1.0
C      1  0.4748170000000  0.5323220000000  0.4512260000000 1.0
C      1  0.4471800000000  0.4914930000000  0.5447560000000 1.0
C      1  0.4506870000000  0.5179160000000  0.5378810000000 1.0
C      1  0.4515970000000  0.5331600000000  0.5126940000000 1.0
C      1  0.4484050000000  0.5260390000000  0.4624700000000 1.0
C      1  0.4486900000000  0.5004220000000  0.4480830000000 1.0
C      1  0.4451150000000  0.4764760000000  0.4616530000000 1.0
C      1  0.4302950000000  0.4782320000000  0.4860700000000 1.0
C      1  0.4416460000000  0.4589600000000  0.5041410000000 1.0
C      1  0.4438160000000  0.4653340000000  0.5308030000000 1.0
C      1  0.4207040000000  0.5024220000000  0.4940150000000 1.0
END
