TITL C-114845-6486-3 499.325003709953 125000 -840.919682625301 0 0 123 (Cs) n - 1
REM
REM in /rds/project/t2_vol4/rds-t2-cs072/BORA/CARBON/from-Arr/AIRSS/Generating-Clusters/GAP-ML-2020/Higher-Symm/SD-CG/HFTN-CG
REM
REM
REM
REM
REM
REM ./C.cell (b20cbc046b6831c77cfcea5457e17084)
REM AIRSS Version 0.9.1 bugfix July 2018 build 013d7b7c2542+ Fri, 06 Jul 2018 19:26:36 +0100
REM compiler GCC version 9.3.0
REM options -cpp -mtune=generic -march=x86-64 -g -O0
REM seed -593984453 -542604289 921471289 1304498938 336595483 1436594557 1534343269 107128688 -1826012076 386166508 -50014242 -1826446756 -1405985436 -1184205577 -1939834066 -1343354108 697462424 882063437 972156535 1166210810 -469489764 -1891427347 92442037 701755079 1519126752 -1498329424 -51413603 -1851755528 661878887 -755483109 178802348 1786361763 341581892
REM
CELL 1.54180   50.00000   50.00000   50.00000   90.00000   90.00000   90.00000
LATT -1
SFAC C  
C      1  0.5145390000000  0.5047960000000  0.5309430000000 1.0
C      1  0.4850590000000  0.5051530000000  0.4690610000000 1.0
C      1  0.5149780000000  0.5051540000000  0.4690610000000 1.0
C      1  0.4854960000000  0.5047950000000  0.5309420000000 1.0
C      1  0.5656290000000  0.4783820000000  0.5545680000000 1.0
C      1  0.4336440000000  0.4774610000000  0.4460470000000 1.0
C      1  0.5663980000000  0.4774700000000  0.4460500000000 1.0
C      1  0.4344080000000  0.4783740000000  0.5545660000000 1.0
C      1  0.4759650000000  0.5547900000000  0.4833930000000 1.0
C      1  0.5170850000000  0.5536830000000  0.5153890000000 1.0
C      1  0.4829440000000  0.5536810000000  0.5153880000000 1.0
C      1  0.5240650000000  0.5547930000000  0.4833940000000 1.0
C      1  0.5339100000000  0.5828430000000  0.4746630000000 1.0
C      1  0.4697730000000  0.5798730000000  0.5259850000000 1.0
C      1  0.5302520000000  0.5798770000000  0.5259860000000 1.0
C      1  0.4661170000000  0.5828390000000  0.4746620000000 1.0
C      1  0.4188270000000  0.5725250000000  0.5286350000000 1.0
C      1  0.5844200000000  0.5750650000000  0.4762150000000 1.0
C      1  0.4156080000000  0.5750550000000  0.4762120000000 1.0
C      1  0.5811990000000  0.5725360000000  0.5286380000000 1.0
C      1  0.4471790000000  0.5009220000000  0.5661490000000 1.0
C      1  0.5538180000000  0.4995930000000  0.4337590000000 1.0
C      1  0.4462220000000  0.4995870000000  0.4337570000000 1.0
C      1  0.5528540000000  0.5009290000000  0.5661520000000 1.0
C      1  0.4854040000000  0.4731980000000  0.4058380000000 1.0
C      1  0.5145390000000  0.4739070000000  0.5947680000000 1.0
C      1  0.4854970000000  0.4739050000000  0.5947680000000 1.0
C      1  0.5146400000000  0.4732000000000  0.4058380000000 1.0
C      1  0.5256100000000  0.4831730000000  0.5147090000000 1.0
C      1  0.4742760000000  0.4833050000000  0.4855620000000 1.0
C      1  0.5257630000000  0.4833080000000  0.4855630000000 1.0
C      1  0.4744280000000  0.4831700000000  0.5147080000000 1.0
C      1  0.4849570000000  0.4564350000000  0.5246800000000 1.0
C      1  0.5151340000000  0.4565170000000  0.4759500000000 1.0
C      1  0.4849090000000  0.4565150000000  0.4759490000000 1.0
C      1  0.5150840000000  0.4564370000000  0.5246810000000 1.0
C      1  0.4470340000000  0.4524110000000  0.4437880000000 1.0
C      1  0.5525970000000  0.4531000000000  0.5572080000000 1.0
C      1  0.4474430000000  0.4530930000000  0.5572060000000 1.0
C      1  0.5530110000000  0.4524180000000  0.4437900000000 1.0
C      1  0.5565600000000  0.5201100000000  0.5156450000000 1.0
C      1  0.4419440000000  0.5195700000000  0.4846200000000 1.0
C      1  0.5580910000000  0.5195770000000  0.4846230000000 1.0
C      1  0.4434730000000  0.5201030000000  0.5156420000000 1.0
C      1  0.5766210000000  0.4505300000000  0.5152190000000 1.0
C      1  0.4232530000000  0.4503980000000  0.4860000000000 1.0
C      1  0.5767900000000  0.4504080000000  0.4860040000000 1.0
C      1  0.4234200000000  0.4505200000000  0.5152160000000 1.0
C      1  0.5155830000000  0.4614450000000  0.4466760000000 1.0
C      1  0.4843540000000  0.4615000000000  0.5539420000000 1.0
C      1  0.5156840000000  0.4615020000000  0.5539420000000 1.0
C      1  0.4844600000000  0.4614430000000  0.4466760000000 1.0
C      1  0.4713710000000  0.4970690000000  0.4172130000000 1.0
C      1  0.5279510000000  0.4980100000000  0.5831830000000 1.0
C      1  0.4720820000000  0.4980070000000  0.5831820000000 1.0
C      1  0.5286690000000  0.4970730000000  0.4172140000000 1.0
C      1  0.5567210000000  0.4384820000000  0.5317070000000 1.0
C      1  0.4431390000000  0.4382190000000  0.4694640000000 1.0
C      1  0.5569070000000  0.4382270000000  0.4694660000000 1.0
C      1  0.4433220000000  0.4384750000000  0.5317040000000 1.0
C      1  0.5150950000000  0.4904360000000  0.4428710000000 1.0
C      1  0.4849350000000  0.4903980000000  0.5574070000000 1.0
C      1  0.5151000000000  0.4904000000000  0.5574070000000 1.0
C      1  0.4849450000000  0.4904340000000  0.4428710000000 1.0
C      1  0.4855620000000  0.4070440000000  0.4857250000000 1.0
C      1  0.5144860000000  0.4070710000000  0.5153470000000 1.0
C      1  0.4855610000000  0.4070690000000  0.5153470000000 1.0
C      1  0.5144860000000  0.4070460000000  0.4857260000000 1.0
C      1  0.4451090000000  0.4903070000000  0.5155570000000 1.0
C      1  0.5554330000000  0.4899860000000  0.4850280000000 1.0
C      1  0.4446060000000  0.4899790000000  0.4850260000000 1.0
C      1  0.5549280000000  0.4903140000000  0.5155590000000 1.0
C      1  0.5316050000000  0.4322160000000  0.5161490000000 1.0
C      1  0.4684060000000  0.4322010000000  0.4847590000000 1.0
C      1  0.5316390000000  0.4322050000000  0.4847610000000 1.0
C      1  0.4684390000000  0.4322120000000  0.5161480000000 1.0
C      1  0.4722410000000  0.4499930000000  0.5778670000000 1.0
C      1  0.5279420000000  0.4493710000000  0.4232200000000 1.0
C      1  0.4721040000000  0.4493680000000  0.4232190000000 1.0
C      1  0.5277980000000  0.4499960000000  0.5778680000000 1.0
C      1  0.5581490000000  0.5819960000000  0.5165740000000 1.0
C      1  0.4394190000000  0.5852370000000  0.4864390000000 1.0
C      1  0.5606070000000  0.5852450000000  0.4864410000000 1.0
C      1  0.4418760000000  0.5819890000000  0.5165710000000 1.0
C      1  0.4644730000000  0.5300380000000  0.4686800000000 1.0
C      1  0.5322390000000  0.5302810000000  0.5304130000000 1.0
C      1  0.4677920000000  0.5302770000000  0.5304120000000 1.0
C      1  0.5355610000000  0.5300420000000  0.4686820000000 1.0
C      1  0.4768370000000  0.5277430000000  0.5821240000000 1.0
C      1  0.5242670000000  0.5270000000000  0.4187540000000 1.0
C      1  0.4757700000000  0.5269960000000  0.4187530000000 1.0
C      1  0.5231920000000  0.5277460000000  0.5821250000000 1.0
C      1  0.5800020000000  0.4776900000000  0.5273930000000 1.0
C      1  0.4194960000000  0.4774000000000  0.4735440000000 1.0
C      1  0.5805440000000  0.4774100000000  0.4735480000000 1.0
C      1  0.4200360000000  0.4776800000000  0.5273890000000 1.0
C      1  0.5128540000000  0.4254540000000  0.4139560000000 1.0
C      1  0.4871970000000  0.4259270000000  0.5871840000000 1.0
C      1  0.5128450000000  0.4259290000000  0.5871850000000 1.0
C      1  0.4871960000000  0.4254520000000  0.4139550000000 1.0
C      1  0.5937790000000  0.5513090000000  0.4868590000000 1.0
C      1  0.4073140000000  0.5506680000000  0.5165340000000 1.0
C      1  0.5927150000000  0.5506800000000  0.5165380000000 1.0
C      1  0.4062510000000  0.5512970000000  0.4868550000000 1.0
C      1  0.5865800000000  0.5247880000000  0.4778180000000 1.0
C      1  0.4150250000000  0.5244000000000  0.5239920000000 1.0
C      1  0.5850080000000  0.5244110000000  0.5239950000000 1.0
C      1  0.4134540000000  0.5247770000000  0.4778140000000 1.0
C      1  0.5975030000000  0.4992200000000  0.4864370000000 1.0
C      1  0.4033740000000  0.4992650000000  0.5150070000000 1.0
C      1  0.5966620000000  0.4992780000000  0.5150110000000 1.0
C      1  0.4025350000000  0.4992080000000  0.4864330000000 1.0
C      1  0.5129120000000  0.5971830000000  0.4648060000000 1.0
C      1  0.4871300000000  0.5966080000000  0.5380120000000 1.0
C      1  0.5128920000000  0.5966090000000  0.5380120000000 1.0
C      1  0.4871130000000  0.5971810000000  0.4648060000000 1.0
C      1  0.4571410000000  0.5286670000000  0.5598690000000 1.0
C      1  0.5447080000000  0.5276790000000  0.4398380000000 1.0
C      1  0.4553270000000  0.5276730000000  0.4398360000000 1.0
C      1  0.5428890000000  0.5286720000000  0.5598710000000 1.0
C      1  0.5000180000000  0.5377680000000  0.4152810000000 1.0
C      1  0.5000140000000  0.5402620000000  0.5896930000000 1.0
C      1  0.5000160000000  0.5522510000000  0.4693110000000 1.0
END
