TITL C-110358-4396-1 -0.0760473995778356 125000 -832.430779461701 0 0 117 (C1) n - 1
REM
REM in /rds/project/t2_vol4/rds-t2-cs072/BORA/CARBON/from-Arr/AIRSS/Generating-Clusters/GAP-ML-2020/Higher-Symm/SD-CG/HFTN-CG
REM
REM
REM
REM
REM
REM ./C.cell (b20cbc046b6831c77cfcea5457e17084)
REM AIRSS Version 0.9.1 bugfix July 2018 build 013d7b7c2542+ Fri, 06 Jul 2018 19:26:36 +0100
REM compiler GCC version 9.3.0
REM options -cpp -mtune=generic -march=x86-64 -g -O0
REM seed -875898955 1120652339 697705760 -777260540 -1201402761 1208873259 -883290372 -1616074419 -1736831057 181046103 -1801055340 462939126 -215465237 641591057 731460645 -1439752512 1889855740 1089252917 -1929064430 170446342 -2032086820 1247274216 -529343354 -2067323030 -1835265178 -1691728480 353302680 -816227490 1077150664 1275281109 600956730 -1080704290 -455050282
REM
CELL 1.54180   50.00000   50.00000   50.00000   90.00000   90.00000   90.00000
LATT -1
SFAC C  
C      1  0.4744220000000  0.5724920000000  0.4603280000000 1.0
C      1  0.5199990000000  0.5719750000000  0.4998450000000 1.0
C      1  0.4928310000000  0.5729740000000  0.5178640000000 1.0
C      1  0.4883570000000  0.4295710000000  0.4841360000000 1.0
C      1  0.5472200000000  0.4279810000000  0.4972630000000 1.0
C      1  0.4907140000000  0.4299230000000  0.5167160000000 1.0
C      1  0.5360780000000  0.4571060000000  0.4973720000000 1.0
C      1  0.4889070000000  0.4598210000000  0.5296870000000 1.0
C      1  0.4810640000000  0.4573800000000  0.4727030000000 1.0
C      1  0.5320720000000  0.5416920000000  0.4951390000000 1.0
C      1  0.4860180000000  0.5456850000000  0.5300770000000 1.0
C      1  0.4800570000000  0.5433060000000  0.4711030000000 1.0
C      1  0.5107380000000  0.4219610000000  0.4645310000000 1.0
C      1  0.5384900000000  0.4197140000000  0.5241290000000 1.0
C      1  0.4622260000000  0.4216430000000  0.5169330000000 1.0
C      1  0.5020850000000  0.5801540000000  0.4543280000000 1.0
C      1  0.5341190000000  0.5800140000000  0.5247590000000 1.0
C      1  0.4650210000000  0.5810320000000  0.5079240000000 1.0
C      1  0.5007950000000  0.5289600000000  0.5940180000000 1.0
C      1  0.4149250000000  0.5298160000000  0.4530940000000 1.0
C      1  0.5773640000000  0.5315740000000  0.4612740000000 1.0
C      1  0.4951100000000  0.4700150000000  0.5857820000000 1.0
C      1  0.4162140000000  0.4712980000000  0.4551150000000 1.0
C      1  0.5838720000000  0.4730910000000  0.4523450000000 1.0
C      1  0.4314090000000  0.5699010000000  0.4761390000000 1.0
C      1  0.5478800000000  0.5694580000000  0.4618230000000 1.0
C      1  0.5170160000000  0.5669540000000  0.5651140000000 1.0
C      1  0.4355990000000  0.4344810000000  0.4827100000000 1.0
C      1  0.5550900000000  0.4333760000000  0.4522530000000 1.0
C      1  0.5086570000000  0.4310970000000  0.5601670000000 1.0
C      1  0.4057060000000  0.5160400000000  0.4769100000000 1.0
C      1  0.5666670000000  0.5177670000000  0.4377310000000 1.0
C      1  0.5243810000000  0.5132410000000  0.5903700000000 1.0
C      1  0.4061420000000  0.4862560000000  0.4779440000000 1.0
C      1  0.5678850000000  0.4881670000000  0.4339900000000 1.0
C      1  0.5209740000000  0.4831740000000  0.5882350000000 1.0
C      1  0.5198390000000  0.5226290000000  0.4772520000000 1.0
C      1  0.5093340000000  0.5264400000000  0.5311420000000 1.0
C      1  0.4664670000000  0.5265630000000  0.4896870000000 1.0
C      1  0.5259710000000  0.4743290000000  0.4769160000000 1.0
C      1  0.5110590000000  0.4778570000000  0.5292190000000 1.0
C      1  0.4691190000000  0.4773970000000  0.4920570000000 1.0
C      1  0.5020330000000  0.5323730000000  0.4559050000000 1.0
C      1  0.5369730000000  0.5311360000000  0.5231540000000 1.0
C      1  0.4606760000000  0.5352010000000  0.5176390000000 1.0
C      1  0.5043280000000  0.4679360000000  0.4570540000000 1.0
C      1  0.5379780000000  0.4673710000000  0.5242780000000 1.0
C      1  0.4627950000000  0.4713010000000  0.5196320000000 1.0
C      1  0.4219730000000  0.5580410000000  0.4996730000000 1.0
C      1  0.5399340000000  0.5573780000000  0.4366500000000 1.0
C      1  0.5425660000000  0.5536270000000  0.5632690000000 1.0
C      1  0.4244160000000  0.4470630000000  0.5063850000000 1.0
C      1  0.5398130000000  0.4464640000000  0.4327520000000 1.0
C      1  0.5345600000000  0.4422340000000  0.5664780000000 1.0
C      1  0.5633990000000  0.4815990000000  0.5310410000000 1.0
C      1  0.4426670000000  0.4883150000000  0.5375280000000 1.0
C      1  0.4958790000000  0.4844600000000  0.4320740000000 1.0
C      1  0.5628110000000  0.5134000000000  0.5322700000000 1.0
C      1  0.4430840000000  0.5200620000000  0.5375270000000 1.0
C      1  0.4947660000000  0.5170290000000  0.4312020000000 1.0
C      1  0.4470340000000  0.5150990000000  0.4178870000000 1.0
C      1  0.5995610000000  0.5134710000000  0.5011570000000 1.0
C      1  0.4531520000000  0.5170850000000  0.5864560000000 1.0
C      1  0.4475350000000  0.4860840000000  0.4183720000000 1.0
C      1  0.5993000000000  0.4846760000000  0.4978420000000 1.0
C      1  0.4498450000000  0.4881710000000  0.5856310000000 1.0
C      1  0.5619910000000  0.5106670000000  0.5618290000000 1.0
C      1  0.4157690000000  0.5179940000000  0.5239890000000 1.0
C      1  0.5220480000000  0.5161090000000  0.4173220000000 1.0
C      1  0.5614400000000  0.4823600000000  0.5618720000000 1.0
C      1  0.4161640000000  0.4896520000000  0.5242620000000 1.0
C      1  0.5222300000000  0.4878980000000  0.4171060000000 1.0
C      1  0.5823660000000  0.4670800000000  0.5111260000000 1.0
C      1  0.4438740000000  0.4735590000000  0.5633980000000 1.0
C      1  0.4688010000000  0.4710250000000  0.4276370000000 1.0
C      1  0.5837550000000  0.5283730000000  0.5176090000000 1.0
C      1  0.4524500000000  0.5326150000000  0.5633110000000 1.0
C      1  0.4678340000000  0.5320020000000  0.4247430000000 1.0
C      1  0.5754710000000  0.4482440000000  0.4645080000000 1.0
C      1  0.4856350000000  0.4500770000000  0.5627200000000 1.0
C      1  0.4346160000000  0.4492920000000  0.4585650000000 1.0
C      1  0.5619270000000  0.5511560000000  0.4807460000000 1.0
C      1  0.4959690000000  0.5526820000000  0.5778180000000 1.0
C      1  0.4312370000000  0.5536530000000  0.4532100000000 1.0
C      1  0.4215740000000  0.4856690000000  0.4318720000000 1.0
C      1  0.5998490000000  0.4880390000000  0.4690360000000 1.0
C      1  0.4757750000000  0.4853560000000  0.5984880000000 1.0
C      1  0.4208610000000  0.5143110000000  0.4309920000000 1.0
C      1  0.5980290000000  0.5167970000000  0.4723160000000 1.0
C      1  0.4782130000000  0.5143260000000  0.6006990000000 1.0
C      1  0.5725760000000  0.5531540000000  0.5098460000000 1.0
C      1  0.4746540000000  0.5494330000000  0.5591900000000 1.0
C      1  0.4582850000000  0.5534540000000  0.4423660000000 1.0
C      1  0.5712290000000  0.4469200000000  0.4931790000000 1.0
C      1  0.4552720000000  0.4483530000000  0.5574200000000 1.0
C      1  0.4613190000000  0.4535980000000  0.4488340000000 1.0
C      1  0.5513510000000  0.5585840000000  0.5336510000000 1.0
C      1  0.4453020000000  0.5618140000000  0.5161200000000 1.0
C      1  0.5119850000000  0.5581480000000  0.4395180000000 1.0
C      1  0.5463120000000  0.4412090000000  0.5408050000000 1.0
C      1  0.4456730000000  0.4424850000000  0.5278740000000 1.0
C      1  0.5135280000000  0.4418660000000  0.4437840000000 1.0
C      1  0.5117390000000  0.4184840000000  0.5337830000000 1.0
C      1  0.4593940000000  0.4198600000000  0.4890530000000 1.0
C      1  0.5382030000000  0.4190720000000  0.4712740000000 1.0
C      1  0.5114400000000  0.5819390000000  0.5411160000000 1.0
C      1  0.4569800000000  0.5831290000000  0.4806510000000 1.0
C      1  0.5238680000000  0.5823570000000  0.4725520000000 1.0
C      1  0.5450680000000  0.5314050000000  0.4256480000000 1.0
C      1  0.5454370000000  0.5276010000000  0.5766160000000 1.0
C      1  0.4096680000000  0.5319840000000  0.5006220000000 1.0
C      1  0.5454770000000  0.4731460000000  0.4233940000000 1.0
C      1  0.5418900000000  0.4680620000000  0.5768050000000 1.0
C      1  0.4104050000000  0.4725640000000  0.5029790000000 1.0
C      1  0.5029550000000  0.5016960000000  0.5381280000000 1.0
C      1  0.5330230000000  0.4995290000000  0.4800350000000 1.0
C      1  0.4641220000000  0.5014200000000  0.4815970000000 1.0
END
