TITL C-111530-3860-8 -0.0237989450580366 125000 -801.029713306369 0 0 116 (C2v) n - 1
REM
REM in /rds/project/t2_vol4/rds-t2-cs072/BORA/CARBON/from-Arr/AIRSS/Generating-Clusters/GAP-ML-2020/Higher-Symm/SD-CG/HFTN-CG
REM
REM
REM
REM
REM
REM ./C.cell (b20cbc046b6831c77cfcea5457e17084)
REM AIRSS Version 0.9.1 bugfix July 2018 build 013d7b7c2542+ Fri, 06 Jul 2018 19:26:36 +0100
REM compiler GCC version 9.3.0
REM options -cpp -mtune=generic -march=x86-64 -g -O0
REM seed -994479942 332572500 -466619310 -2114563417 1123863538 -1721941243 485375094 357542371 1870160518 -892717066 -2043583340 1510538543 -31969261 -1225150930 317774653 1063640196 -1815685665 610050837 -1602378722 -1790312542 1589210646 -1095971264 -200725591 -30250283 -1092139707 -1500108703 74013193 1357715057 1127146915 -644000561 472070279 -1119126037 -1280284707
REM
CELL 1.54180   50.00000   50.00000   50.00000   90.00000   90.00000   90.00000
LATT -1
SFAC C  
C      1  0.4275510000000  0.4458520000000  0.5436520000000 1.0
C      1  0.5724470000000  0.5541390000000  0.5436680000000 1.0
C      1  0.5724370000000  0.4458390000000  0.5436560000000 1.0
C      1  0.4275600000000  0.5541510000000  0.5436640000000 1.0
C      1  0.4657840000000  0.5142460000000  0.5798000000000 1.0
C      1  0.5342110000000  0.4857370000000  0.5797990000000 1.0
C      1  0.5342130000000  0.5142400000000  0.5798020000000 1.0
C      1  0.4657820000000  0.4857430000000  0.5797970000000 1.0
C      1  0.5790350000000  0.5139880000000  0.5677270000000 1.0
C      1  0.4209610000000  0.4859980000000  0.5677190000000 1.0
C      1  0.4209630000000  0.5140020000000  0.5677220000000 1.0
C      1  0.5790330000000  0.4859840000000  0.5677240000000 1.0
C      1  0.4859680000000  0.4858470000000  0.4129460000000 1.0
C      1  0.5140370000000  0.5141720000000  0.4129500000000 1.0
C      1  0.5140350000000  0.4858440000000  0.4129470000000 1.0
C      1  0.4859710000000  0.5141740000000  0.4129490000000 1.0
C      1  0.4437140000000  0.5682700000000  0.5238590000000 1.0
C      1  0.5562850000000  0.4317250000000  0.5238480000000 1.0
C      1  0.5562960000000  0.5682600000000  0.5238630000000 1.0
C      1  0.4437020000000  0.4317350000000  0.5238450000000 1.0
C      1  0.4846940000000  0.5294640000000  0.4800810000000 1.0
C      1  0.5153080000000  0.4705400000000  0.4800750000000 1.0
C      1  0.5153130000000  0.5294620000000  0.4800810000000 1.0
C      1  0.4846880000000  0.4705430000000  0.4800740000000 1.0
C      1  0.4734330000000  0.5267410000000  0.5307370000000 1.0
C      1  0.5265660000000  0.4732520000000  0.5307330000000 1.0
C      1  0.5265700000000  0.5267360000000  0.5307390000000 1.0
C      1  0.4734280000000  0.4732570000000  0.5307320000000 1.0
C      1  0.5502010000000  0.4356010000000  0.4973150000000 1.0
C      1  0.4497990000000  0.5644000000000  0.4973260000000 1.0
C      1  0.4497880000000  0.4356090000000  0.4973120000000 1.0
C      1  0.5502120000000  0.5643910000000  0.4973290000000 1.0
C      1  0.4426000000000  0.4846030000000  0.5231190000000 1.0
C      1  0.5573980000000  0.5153920000000  0.5231260000000 1.0
C      1  0.5573960000000  0.4845930000000  0.5231230000000 1.0
C      1  0.4426030000000  0.5154020000000  0.5231220000000 1.0
C      1  0.5626890000000  0.5273910000000  0.4691140000000 1.0
C      1  0.4373120000000  0.4726160000000  0.4691040000000 1.0
C      1  0.4373170000000  0.5274020000000  0.4691100000000 1.0
C      1  0.5626850000000  0.4726050000000  0.4691080000000 1.0
C      1  0.5575810000000  0.5569220000000  0.4707550000000 1.0
C      1  0.4424200000000  0.4430840000000  0.4707400000000 1.0
C      1  0.4424300000000  0.5569320000000  0.4707520000000 1.0
C      1  0.5575710000000  0.4430740000000  0.4707430000000 1.0
C      1  0.4670830000000  0.5156390000000  0.4595650000000 1.0
C      1  0.5329190000000  0.4843700000000  0.4595640000000 1.0
C      1  0.5329220000000  0.5156330000000  0.4595670000000 1.0
C      1  0.4670800000000  0.4843750000000  0.4595620000000 1.0
C      1  0.5323940000000  0.5741670000000  0.5423670000000 1.0
C      1  0.4676040000000  0.4258240000000  0.5423500000000 1.0
C      1  0.4676170000000  0.5741730000000  0.5423650000000 1.0
C      1  0.5323810000000  0.4258180000000  0.5423510000000 1.0
C      1  0.4769780000000  0.5587410000000  0.4877870000000 1.0
C      1  0.5230220000000  0.4412620000000  0.4877760000000 1.0
C      1  0.5230330000000  0.5587370000000  0.4877880000000 1.0
C      1  0.4769680000000  0.4412660000000  0.4877740000000 1.0
C      1  0.4862010000000  0.5532070000000  0.5372240000000 1.0
C      1  0.5137970000000  0.4467850000000  0.5372130000000 1.0
C      1  0.5138060000000  0.5532050000000  0.5372250000000 1.0
C      1  0.4861920000000  0.4467870000000  0.5372130000000 1.0
C      1  0.5677360000000  0.5140220000000  0.4946260000000 1.0
C      1  0.4322640000000  0.4859790000000  0.4946190000000 1.0
C      1  0.4322670000000  0.5140340000000  0.4946220000000 1.0
C      1  0.5677340000000  0.4859670000000  0.4946230000000 1.0
C      1  0.5776540000000  0.5140550000000  0.4475810000000 1.0
C      1  0.4223490000000  0.4859570000000  0.4475730000000 1.0
C      1  0.4223510000000  0.5140680000000  0.4475760000000 1.0
C      1  0.5776520000000  0.4859430000000  0.4475780000000 1.0
C      1  0.5344240000000  0.5267420000000  0.4288410000000 1.0
C      1  0.4655810000000  0.4732730000000  0.4288330000000 1.0
C      1  0.4655850000000  0.5267480000000  0.4288390000000 1.0
C      1  0.5344190000000  0.4732670000000  0.4288350000000 1.0
C      1  0.5138790000000  0.4247470000000  0.4655610000000 1.0
C      1  0.4861230000000  0.5752610000000  0.4655770000000 1.0
C      1  0.4861100000000  0.4247490000000  0.4655610000000 1.0
C      1  0.5138920000000  0.5752580000000  0.4655770000000 1.0
C      1  0.5378460000000  0.5682510000000  0.4516120000000 1.0
C      1  0.4621560000000  0.4317590000000  0.4515950000000 1.0
C      1  0.4621680000000  0.5682580000000  0.4516090000000 1.0
C      1  0.5378350000000  0.4317520000000  0.4515970000000 1.0
C      1  0.5151720000000  0.4851750000000  0.5065690000000 1.0
C      1  0.4848280000000  0.5148240000000  0.5065710000000 1.0
C      1  0.4848250000000  0.4851770000000  0.5065680000000 1.0
C      1  0.5151740000000  0.5148210000000  0.5065720000000 1.0
C      1  0.4223680000000  0.5267160000000  0.5418330000000 1.0
C      1  0.5776300000000  0.4732750000000  0.5418310000000 1.0
C      1  0.5776350000000  0.5267020000000  0.5418370000000 1.0
C      1  0.4223630000000  0.4732890000000  0.5418270000000 1.0
C      1  0.4416490000000  0.5294440000000  0.5814990000000 1.0
C      1  0.5583470000000  0.4705390000000  0.5814960000000 1.0
C      1  0.5583520000000  0.5294330000000  0.5815020000000 1.0
C      1  0.4416430000000  0.4705490000000  0.5814930000000 1.0
C      1  0.5595570000000  0.5561840000000  0.5700210000000 1.0
C      1  0.4404390000000  0.4438010000000  0.5700050000000 1.0
C      1  0.4404490000000  0.5561940000000  0.5700170000000 1.0
C      1  0.5595470000000  0.4437910000000  0.5700090000000 1.0
C      1  0.4845480000000  0.5165190000000  0.5565330000000 1.0
C      1  0.5154490000000  0.4834690000000  0.5565300000000 1.0
C      1  0.5154520000000  0.5165160000000  0.5565340000000 1.0
C      1  0.4845450000000  0.4834720000000  0.5565290000000 1.0
C      1  0.5611700000000  0.5140210000000  0.4232210000000 1.0
C      1  0.4388340000000  0.4859960000000  0.4232150000000 1.0
C      1  0.4388370000000  0.5140310000000  0.4232180000000 1.0
C      1  0.5611680000000  0.4859850000000  0.4232180000000 1.0
C      1  0.5319870000000  0.4438960000000  0.4270170000000 1.0
C      1  0.4680170000000  0.5561200000000  0.4270270000000 1.0
C      1  0.4680070000000  0.4439010000000  0.4270150000000 1.0
C      1  0.5319970000000  0.5561140000000  0.4270290000000 1.0
C      1  0.4583740000000  0.5769790000000  0.5688240000000 1.0
C      1  0.5416220000000  0.4230070000000  0.5688100000000 1.0
C      1  0.5416360000000  0.5769710000000  0.5688260000000 1.0
C      1  0.4583600000000  0.4230140000000  0.5688080000000 1.0
C      1  0.4875330000000  0.5686060000000  0.4102770000000 1.0
C      1  0.5124720000000  0.4314130000000  0.4102630000000 1.0
C      1  0.5124840000000  0.5686040000000  0.4102780000000 1.0
C      1  0.4875210000000  0.4314150000000  0.4102620000000 1.0
END
