TITL C-110360-4485-2 -0.0233000159069721 125000 -73.1440643977047 0 0 11 (Cs) n - 1
REM
REM in /rds/project/t2_vol4/rds-t2-cs072/BORA/CARBON/from-Arr/AIRSS/Generating-Clusters/GAP-ML-2020/Higher-Symm/SD-CG/HFTN-CG
REM
REM
REM
REM
REM
REM ./C.cell (b20cbc046b6831c77cfcea5457e17084)
REM AIRSS Version 0.9.1 bugfix July 2018 build 013d7b7c2542+ Fri, 06 Jul 2018 19:26:36 +0100
REM compiler GCC version 9.3.0
REM options -cpp -mtune=generic -march=x86-64 -g -O0
REM seed -1439702184 -641666540 -302081239 -476919626 -144661970 -971209472 1570966826 -1857559794 857826559 1889642731 -1397671553 1119881557 1518880187 -935951435 1397614128 -1551827106 390979620 446328805 2080457500 -320710098 -1501730375 -495204284 997808944 -323217057 17035654 1521252098 144479113 -309069694 -1044110191 -1497931378 -1220734864 1182824551 -177541582
REM
CELL 1.54180   50.00000   50.00000   50.00000   90.00000   90.00000   90.00000
LATT -1
SFAC C  
C      1  0.5000000000000  0.5322570000000  0.4667990000000 1.0
C      1  0.5000000000000  0.5091870000000  0.4546300000000 1.0
C      1  0.5000000000000  0.4831990000000  0.4568660000000 1.0
C      1  0.5000000000000  0.4625460000000  0.4727960000000 1.0
C      1  0.5000000000000  0.4537840000000  0.4973640000000 1.0
C      1  0.5000000000000  0.4596960000000  0.5227680000000 1.0
C      1  0.5000000000000  0.4784030000000  0.5409440000000 1.0
C      1  0.5000000000000  0.5039680000000  0.5461200000000 1.0
C      1  0.5000000000000  0.5282720000000  0.5366540000000 1.0
C      1  0.5000000000000  0.5436010000000  0.5155500000000 1.0
C      1  0.5000000000000  0.5450860000000  0.4895090000000 1.0
END
