TITL C-110367-4955-2 -0.0134655243167423 125000 -552.638642456508 0 0 81 (C1) n - 1
REM
REM in /rds/project/t2_vol4/rds-t2-cs072/BORA/CARBON/from-Arr/AIRSS/Generating-Clusters/GAP-ML-2020/Higher-Symm/SD-CG/HFTN-CG
REM
REM
REM
REM
REM
REM ./C.cell (b20cbc046b6831c77cfcea5457e17084)
REM AIRSS Version 0.9.1 bugfix July 2018 build 013d7b7c2542+ Fri, 06 Jul 2018 19:26:36 +0100
REM compiler GCC version 9.3.0
REM options -cpp -mtune=generic -march=x86-64 -g -O0
REM seed -1286331575 -1618416563 1015729616 -239947589 -1965261855 448705646 -1949568079 1270835275 -1680138835 1807967663 2026749232 317585040 -796459029 -1010500515 -315764584 -833067174 1518011754 -1360053266 -1832787624 -1348202980 -2066379083 -1896790662 1850372260 -848868481 -1321179980 -1532234468 2038148200 1141217675 -2040108517 1194468570 549513133 -429139687 1688237556
REM
CELL 1.54180   50.00000   50.00000   50.00000   90.00000   90.00000   90.00000
LATT -1
SFAC C  
C      1  0.4738100000000  0.4788990000000  0.4930600000000 1.0
C      1  0.4968680000000  0.4793080000000  0.4705740000000 1.0
C      1  0.5299760000000  0.4764200000000  0.4909050000000 1.0
C      1  0.5184730000000  0.4766620000000  0.5226200000000 1.0
C      1  0.4872100000000  0.4789470000000  0.5233100000000 1.0
C      1  0.5607760000000  0.4886090000000  0.5382290000000 1.0
C      1  0.4784390000000  0.4881130000000  0.5734500000000 1.0
C      1  0.4231140000000  0.4882900000000  0.5030710000000 1.0
C      1  0.4726030000000  0.4887540000000  0.4279860000000 1.0
C      1  0.5555210000000  0.4894150000000  0.4539310000000 1.0
C      1  0.5649060000000  0.4595420000000  0.5043170000000 1.0
C      1  0.5147440000000  0.4606580000000  0.5627570000000 1.0
C      1  0.4456280000000  0.4614340000000  0.5333630000000 1.0
C      1  0.4503590000000  0.4612380000000  0.4583380000000 1.0
C      1  0.5234900000000  0.4610910000000  0.4394270000000 1.0
C      1  0.4388450000000  0.4864390000000  0.5451270000000 1.0
C      1  0.4364930000000  0.4858720000000  0.4557430000000 1.0
C      1  0.5221830000000  0.4857550000000  0.4249410000000 1.0
C      1  0.5800290000000  0.4842200000000  0.5001120000000 1.0
C      1  0.5229760000000  0.4858030000000  0.5742680000000 1.0
C      1  0.4794000000000  0.5248510000000  0.4946520000000 1.0
C      1  0.5014120000000  0.5260330000000  0.4744130000000 1.0
C      1  0.5287390000000  0.5237220000000  0.4869230000000 1.0
C      1  0.5244880000000  0.5233660000000  0.5170580000000 1.0
C      1  0.4940550000000  0.5252810000000  0.5210920000000 1.0
C      1  0.5443960000000  0.4510130000000  0.4836620000000 1.0
C      1  0.5281010000000  0.4516060000000  0.5369590000000 1.0
C      1  0.4740920000000  0.4540830000000  0.5371990000000 1.0
C      1  0.4559960000000  0.4540700000000  0.4866500000000 1.0
C      1  0.4983020000000  0.4538440000000  0.4533860000000 1.0
C      1  0.4459840000000  0.5302800000000  0.4435580000000 1.0
C      1  0.5357430000000  0.5302820000000  0.4323690000000 1.0
C      1  0.5773390000000  0.5301340000000  0.5167760000000 1.0
C      1  0.5056080000000  0.5306090000000  0.5773680000000 1.0
C      1  0.4290420000000  0.5305340000000  0.5318620000000 1.0
C      1  0.4485910000000  0.5018200000000  0.4357110000000 1.0
C      1  0.5443910000000  0.5022300000000  0.4311350000000 1.0
C      1  0.5815330000000  0.5008490000000  0.5235550000000 1.0
C      1  0.5010380000000  0.5015740000000  0.5835060000000 1.0
C      1  0.4227260000000  0.5018870000000  0.5279170000000 1.0
C      1  0.4764170000000  0.4330850000000  0.4927030000000 1.0
C      1  0.4990390000000  0.4328140000000  0.4750920000000 1.0
C      1  0.5228480000000  0.4316880000000  0.4912650000000 1.0
C      1  0.5145960000000  0.4320020000000  0.5190000000000 1.0
C      1  0.4859870000000  0.4329550000000  0.5197190000000 1.0
C      1  0.5711050000000  0.5031630000000  0.4810910000000 1.0
C      1  0.5374500000000  0.5047060000000  0.5591920000000 1.0
C      1  0.4595510000000  0.5035800000000  0.5558330000000 1.0
C      1  0.4326390000000  0.5029890000000  0.4791800000000 1.0
C      1  0.4987330000000  0.5028120000000  0.4270590000000 1.0
C      1  0.4726480000000  0.4623260000000  0.4405800000000 1.0
C      1  0.5471630000000  0.4608100000000  0.4548460000000 1.0
C      1  0.5570560000000  0.4596650000000  0.5315620000000 1.0
C      1  0.4864050000000  0.4617310000000  0.5633650000000 1.0
C      1  0.4355460000000  0.4622010000000  0.5068780000000 1.0
C      1  0.5342250000000  0.5475860000000  0.5349750000000 1.0
C      1  0.4719950000000  0.5530700000000  0.5490690000000 1.0
C      1  0.4420020000000  0.5525190000000  0.4895020000000 1.0
C      1  0.4916090000000  0.5515980000000  0.4438540000000 1.0
C      1  0.5459370000000  0.5474040000000  0.4781010000000 1.0
C      1  0.5426680000000  0.4991840000000  0.4791550000000 1.0
C      1  0.5337900000000  0.4994220000000  0.5313370000000 1.0
C      1  0.4825300000000  0.5035110000000  0.5366710000000 1.0
C      1  0.4603560000000  0.5035190000000  0.4915790000000 1.0
C      1  0.4973140000000  0.5036390000000  0.4566280000000 1.0
C      1  0.4506350000000  0.5323080000000  0.5504880000000 1.0
C      1  0.4336060000000  0.5318720000000  0.4694540000000 1.0
C      1  0.5079630000000  0.5322830000000  0.4267960000000 1.0
C      1  0.5717200000000  0.5316490000000  0.4894340000000 1.0
C      1  0.5287610000000  0.5323380000000  0.5614710000000 1.0
C      1  0.4967980000000  0.5571330000000  0.4735460000000 1.0
C      1  0.5202840000000  0.5650350000000  0.4900660000000 1.0
C      1  0.5142280000000  0.5652450000000  0.5175950000000 1.0
C      1  0.4862450000000  0.5564790000000  0.5221300000000 1.0
C      1  0.4723150000000  0.5546410000000  0.4941530000000 1.0
C      1  0.4655600000000  0.5478890000000  0.4377920000000 1.0
C      1  0.5475170000000  0.5470800000000  0.4499530000000 1.0
C      1  0.5623520000000  0.5476760000000  0.5313590000000 1.0
C      1  0.4875970000000  0.5500730000000  0.5714380000000 1.0
C      1  0.4273810000000  0.5497070000000  0.5121870000000 1.0
C      1  0.5032470000000  0.4827510000000  0.4980050000000 1.0
END
