TITL C-110006-9515-6 -18.9622598236789 125000 -113.251874194238 0 0 17 (D3h) n - 1
REM
REM in /rds/project/t2_vol4/rds-t2-cs072/BORA/CARBON/from-Arr/AIRSS/Generating-Clusters/GAP-ML-2020/Higher-Symm/SD-CG/HFTN-CG
REM
REM
REM
REM
REM
REM ./C.cell (b20cbc046b6831c77cfcea5457e17084)
REM AIRSS Version 0.9.1 bugfix July 2018 build 013d7b7c2542+ Fri, 06 Jul 2018 19:26:36 +0100
REM compiler GCC version 9.3.0
REM options -cpp -mtune=generic -march=x86-64 -g -O0
REM seed 1420105837 -1304377968 1914595258 468311215 -1143506609 1484669929 518215474 1543680915 -493914820 -1363531670 -1193189730 1562459350 -1750498696 -1557903241 53226742 1195702486 -1554387145 -1803186873 -1147396499 -844532217 -1367391411 -369529068 -168962824 1961015312 -1933875150 -1618561439 -1677767449 1960350417 -1819656016 337395389 -600550538 2003322213 2069272299
REM
CELL 1.54180   50.00000   50.00000   50.00000   90.00000   90.00000   90.00000
LATT -1
SFAC C  
C      1  0.5245540000000  0.4899600000000  0.4624130000000 1.0
C      1  0.4961330000000  0.5289830000000  0.4639240000000 1.0
C      1  0.4765310000000  0.4848470000000  0.4631240000000 1.0
C      1  0.5260010000000  0.4878250000000  0.5447350000000 1.0
C      1  0.4975790000000  0.5268490000000  0.5462460000000 1.0
C      1  0.4779770000000  0.4827120000000  0.5454460000000 1.0
C      1  0.5437950000000  0.4802290000000  0.5278060000000 1.0
C      1  0.4952050000000  0.5469440000000  0.5303900000000 1.0
C      1  0.4616930000000  0.4714880000000  0.5290220000000 1.0
C      1  0.5429250000000  0.4815130000000  0.4782900000000 1.0
C      1  0.4943350000000  0.5482280000000  0.4808740000000 1.0
C      1  0.4608230000000  0.4727720000000  0.4795060000000 1.0
C      1  0.5514110000000  0.4773000000000  0.5028140000000 1.0
C      1  0.4541350000000  0.4669420000000  0.5042550000000 1.0
C      1  0.4938410000000  0.5563450000000  0.5058750000000 1.0
C      1  0.5006010000000  0.4990080000000  0.5501150000000 1.0
C      1  0.4989910000000  0.5013840000000  0.4585140000000 1.0
END
