TITL C-116605-5954-4 -294.387805489493 125000 -363.162527758748 0 0 54 (C1) n - 1
REM
REM in /rds/project/t2_vol4/rds-t2-cs072/BORA/CARBON/from-Arr/AIRSS/Generating-Clusters/GAP-ML-2020/Higher-Symm/SD-CG/HFTN-CG
REM
REM
REM
REM
REM
REM ./C.cell (b20cbc046b6831c77cfcea5457e17084)
REM AIRSS Version 0.9.1 bugfix July 2018 build 013d7b7c2542+ Fri, 06 Jul 2018 19:26:36 +0100
REM compiler GCC version 9.3.0
REM options -cpp -mtune=generic -march=x86-64 -g -O0
REM seed -736291765 449800814 1788103136 1836564535 -2050275489 -539610773 1811427443 -341518366 732610267 1759515392 -1756222406 2109050052 -1089154928 850144853 298102645 -277085210 -823315315 919708164 -1271997976 -2046685074 246871481 -309970006 1691024831 849970092 1879704634 378672076 300333273 -1171772387 302978087 1277074808 1265359157 743791279 761448858
REM
CELL 1.54180   50.00000   50.00000   50.00000   90.00000   90.00000   90.00000
LATT -1
SFAC C  
C      1  0.4338000000000  0.4605850000000  0.4919550000000 1.0
C      1  0.5655720000000  0.4874170000000  0.4652000000000 1.0
C      1  0.4343700000000  0.5250610000000  0.4727650000000 1.0
C      1  0.5662390000000  0.5391920000000  0.5081260000000 1.0
C      1  0.4343740000000  0.5122210000000  0.5351520000000 1.0
C      1  0.5657820000000  0.4746590000000  0.5266930000000 1.0
C      1  0.5133950000000  0.5106680000000  0.4815230000000 1.0
C      1  0.4851800000000  0.5158160000000  0.4841790000000 1.0
C      1  0.5128900000000  0.4906180000000  0.5183310000000 1.0
C      1  0.4853540000000  0.4900370000000  0.5179350000000 1.0
C      1  0.5306770000000  0.5001220000000  0.4999540000000 1.0
C      1  0.4678890000000  0.4995940000000  0.4995490000000 1.0
C      1  0.4602930000000  0.5464560000000  0.5169640000000 1.0
C      1  0.5415900000000  0.5089340000000  0.5478850000000 1.0
C      1  0.4589070000000  0.4607120000000  0.5319580000000 1.0
C      1  0.5404160000000  0.4524040000000  0.4832500000000 1.0
C      1  0.4584990000000  0.4909230000000  0.4518360000000 1.0
C      1  0.5408150000000  0.5387840000000  0.4683310000000 1.0
C      1  0.4199630000000  0.5343390000000  0.4936370000000 1.0
C      1  0.5806370000000  0.5230730000000  0.5249000000000 1.0
C      1  0.4213710000000  0.4904580000000  0.5259200000000 1.0
C      1  0.5810290000000  0.4651760000000  0.5061640000000 1.0
C      1  0.4193750000000  0.4771600000000  0.4756430000000 1.0
C      1  0.5786720000000  0.5093780000000  0.4738380000000 1.0
C      1  0.4580680000000  0.5376920000000  0.4654780000000 1.0
C      1  0.5404050000000  0.5482390000000  0.5149550000000 1.0
C      1  0.4586710000000  0.5100830000000  0.5487090000000 1.0
C      1  0.5414890000000  0.4624990000000  0.5325770000000 1.0
C      1  0.4595760000000  0.4517520000000  0.4850830000000 1.0
C      1  0.5412800000000  0.4893510000000  0.4520250000000 1.0
C      1  0.5277710000000  0.5341360000000  0.5379790000000 1.0
C      1  0.4743100000000  0.4831970000000  0.5461850000000 1.0
C      1  0.5276490000000  0.4472410000000  0.5099380000000 1.0
C      1  0.4723550000000  0.4664980000000  0.4624600000000 1.0
C      1  0.5252480000000  0.5162750000000  0.4538130000000 1.0
C      1  0.4750660000000  0.5473610000000  0.4892850000000 1.0
C      1  0.4343170000000  0.5358130000000  0.5169270000000 1.0
C      1  0.5659590000000  0.5029600000000  0.5359660000000 1.0
C      1  0.4346490000000  0.4675660000000  0.5203730000000 1.0
C      1  0.5663000000000  0.4637660000000  0.4831760000000 1.0
C      1  0.4336680000000  0.4968560000000  0.4636930000000 1.0
C      1  0.5651810000000  0.5320150000000  0.4797670000000 1.0
C      1  0.5001030000000  0.5201380000000  0.4405810000000 1.0
C      1  0.4999580000000  0.5599270000000  0.4866560000000 1.0
C      1  0.5012020000000  0.5344430000000  0.5406820000000 1.0
C      1  0.4995220000000  0.4791440000000  0.5592090000000 1.0
C      1  0.5011370000000  0.4429140000000  0.5124370000000 1.0
C      1  0.4989050000000  0.4663550000000  0.4605340000000 1.0
C      1  0.5259830000000  0.5538920000000  0.4895360000000 1.0
C      1  0.4747420000000  0.5338220000000  0.5393480000000 1.0
C      1  0.5243150000000  0.4834480000000  0.5461500000000 1.0
C      1  0.4746570000000  0.4466280000000  0.5104090000000 1.0
C      1  0.5254090000000  0.4658150000000  0.4615740000000 1.0
C      1  0.4750190000000  0.5163870000000  0.4528100000000 1.0
END
