TITL C-116599-951-4 0.00103295147924294 125000 -230.039096301591 0 0 35 (D2) n - 1
REM
REM in /rds/project/t2_vol4/rds-t2-cs072/BORA/CARBON/from-Arr/AIRSS/Generating-Clusters/GAP-ML-2020/Higher-Symm/SD-CG/HFTN-CG
REM
REM
REM
REM
REM
REM ./C.cell (b20cbc046b6831c77cfcea5457e17084)
REM AIRSS Version 0.9.1 bugfix July 2018 build 013d7b7c2542+ Fri, 06 Jul 2018 19:26:36 +0100
REM compiler GCC version 9.3.0
REM options -cpp -mtune=generic -march=x86-64 -g -O0
REM seed -1361298141 -800071519 -345942443 -825343652 1762715371 103749373 -1164686004 1542381441 -754661328 1554511827 -486558852 -990484455 -697361739 -1787879098 465489142 -855298177 -1940255620 1536159488 71651135 1936487108 -2056273900 -1623596865 968908428 -1262660820 33335621 -1802467707 642875947 805893087 -1808835916 -449613411 -1064972519 -234651001 514972538
REM
CELL 1.54180   50.00000   50.00000   50.00000   90.00000   90.00000   90.00000
LATT -1
SFAC C  
C      1  0.4403740000000  0.5266380000000  0.4831840000000 1.0
C      1  0.4409820000000  0.4688640000000  0.5133150000000 1.0
C      1  0.5630260000000  0.4723400000000  0.4909290000000 1.0
C      1  0.5596060000000  0.5318240000000  0.5173120000000 1.0
C      1  0.4557630000000  0.4835190000000  0.4956960000000 1.0
C      1  0.4543870000000  0.5130160000000  0.5022040000000 1.0
C      1  0.5466010000000  0.5160880000000  0.4992300000000 1.0
C      1  0.5472360000000  0.4870420000000  0.5076090000000 1.0
C      1  0.5116660000000  0.5622880000000  0.4805020000000 1.0
C      1  0.5140440000000  0.4383960000000  0.5230220000000 1.0
C      1  0.4922450000000  0.4363790000000  0.4833440000000 1.0
C      1  0.4860330000000  0.5626020000000  0.5178710000000 1.0
C      1  0.4468220000000  0.4671010000000  0.5382530000000 1.0
C      1  0.4484640000000  0.5289000000000  0.4589240000000 1.0
C      1  0.5513270000000  0.5350690000000  0.5413960000000 1.0
C      1  0.5573740000000  0.4685950000000  0.4661670000000 1.0
C      1  0.5296850000000  0.5361170000000  0.5570650000000 1.0
C      1  0.5374850000000  0.4660550000000  0.4484760000000 1.0
C      1  0.4668000000000  0.4670640000000  0.5560250000000 1.0
C      1  0.4700170000000  0.5304280000000  0.4431730000000 1.0
C      1  0.5128870000000  0.5370450000000  0.4679550000000 1.0
C      1  0.5122340000000  0.4636180000000  0.5355400000000 1.0
C      1  0.4923490000000  0.4608160000000  0.4692390000000 1.0
C      1  0.4865170000000  0.5381860000000  0.5320060000000 1.0
C      1  0.5044410000000  0.5353390000000  0.5540630000000 1.0
C      1  0.5120780000000  0.4650150000000  0.4490140000000 1.0
C      1  0.4922200000000  0.4677360000000  0.5554990000000 1.0
C      1  0.4952490000000  0.5315750000000  0.4461640000000 1.0
C      1  0.5211150000000  0.4839170000000  0.5185700000000 1.0
C      1  0.5215100000000  0.5173740000000  0.4857770000000 1.0
C      1  0.4793020000000  0.5168740000000  0.5154930000000 1.0
C      1  0.4820610000000  0.4815000000000  0.4849000000000 1.0
C      1  0.4984170000000  0.5750350000000  0.4987840000000 1.0
C      1  0.5035770000000  0.4247970000000  0.5035850000000 1.0
C      1  0.5009970000000  0.4999160000000  0.5011850000000 1.0
END
