TITL C-111506-4150-3 -459.776582010745 125000 -917.382825204302 0 0 132 (C2) n - 1
REM
REM in /rds/project/t2_vol4/rds-t2-cs072/BORA/CARBON/from-Arr/AIRSS/Generating-Clusters/GAP-ML-2020/Higher-Symm/SD-CG/HFTN-CG
REM
REM
REM
REM
REM
REM ./C.cell (b20cbc046b6831c77cfcea5457e17084)
REM AIRSS Version 0.9.1 bugfix July 2018 build 013d7b7c2542+ Fri, 06 Jul 2018 19:26:36 +0100
REM compiler GCC version 9.3.0
REM options -cpp -mtune=generic -march=x86-64 -g -O0
REM seed 654037361 -745863603 -994751812 -384786544 -801341796 -1952572307 2013139822 -926781983 -473431932 -1904103698 -429481109 -191366173 -1861642593 51069314 1240291029 85933390 2053550620 -506621287 1769903997 1977496337 1754235822 132579091 -1621714144 -698631301 -1573906580 -243633313 767288849 -1985431746 -913140611 -348878866 -1375742814 2040134160 -675436533
REM
CELL 1.54180   50.00000   50.00000   50.00000   90.00000   90.00000   90.00000
LATT -1
SFAC C  
C      1  0.5158450000000  0.4119420000000  0.4632060000000 1.0
C      1  0.4647720000000  0.4127290000000  0.5058210000000 1.0
C      1  0.5196850000000  0.4127620000000  0.5350480000000 1.0
C      1  0.5138220000000  0.5877200000000  0.5317040000000 1.0
C      1  0.4607140000000  0.5876500000000  0.4993140000000 1.0
C      1  0.5245100000000  0.5872100000000  0.4660500000000 1.0
C      1  0.5926810000000  0.5056760000000  0.4711460000000 1.0
C      1  0.4303540000000  0.5122660000000  0.4350560000000 1.0
C      1  0.4789900000000  0.5111090000000  0.5938660000000 1.0
C      1  0.5912220000000  0.4872800000000  0.5271200000000 1.0
C      1  0.4297920000000  0.4908060000000  0.5660450000000 1.0
C      1  0.4775980000000  0.4928480000000  0.4056520000000 1.0
C      1  0.4318360000000  0.4661200000000  0.4861560000000 1.0
C      1  0.5221710000000  0.4693480000000  0.5663980000000 1.0
C      1  0.5457510000000  0.4664030000000  0.4466850000000 1.0
C      1  0.4318820000000  0.5316170000000  0.5141480000000 1.0
C      1  0.5229440000000  0.5321550000000  0.4328880000000 1.0
C      1  0.5469630000000  0.5343260000000  0.5510100000000 1.0
C      1  0.4072550000000  0.4816640000000  0.4917830000000 1.0
C      1  0.5401250000000  0.4844340000000  0.5843970000000 1.0
C      1  0.5529570000000  0.4810850000000  0.4220240000000 1.0
C      1  0.4070970000000  0.5166750000000  0.5081270000000 1.0
C      1  0.5403500000000  0.5169560000000  0.4144030000000 1.0
C      1  0.5544720000000  0.5191390000000  0.5753110000000 1.0
C      1  0.4677430000000  0.5757320000000  0.5581860000000 1.0
C      1  0.5685840000000  0.5737240000000  0.4932840000000 1.0
C      1  0.4670340000000  0.5761920000000  0.4478860000000 1.0
C      1  0.4701090000000  0.4254630000000  0.4388870000000 1.0
C      1  0.5608490000000  0.4232220000000  0.5032340000000 1.0
C      1  0.4655600000000  0.4256680000000  0.5587380000000 1.0
C      1  0.4152080000000  0.5226520000000  0.4582210000000 1.0
C      1  0.5064050000000  0.5229930000000  0.5944710000000 1.0
C      1  0.5807020000000  0.5176730000000  0.4464910000000 1.0
C      1  0.4151930000000  0.4786540000000  0.5429720000000 1.0
C      1  0.5047910000000  0.4805310000000  0.4036340000000 1.0
C      1  0.5788870000000  0.4774720000000  0.5521300000000 1.0
C      1  0.5387000000000  0.4869500000000  0.5215480000000 1.0
C      1  0.4991340000000  0.4859690000000  0.4535800000000 1.0
C      1  0.4606800000000  0.4863170000000  0.5235800000000 1.0
C      1  0.5405380000000  0.5131970000000  0.4768720000000 1.0
C      1  0.4998620000000  0.5145110000000  0.5455930000000 1.0
C      1  0.4618890000000  0.5130380000000  0.4774200000000 1.0
C      1  0.5380730000000  0.5371170000000  0.4586560000000 1.0
C      1  0.4477210000000  0.5375360000000  0.4888980000000 1.0
C      1  0.5170980000000  0.5392440000000  0.5510990000000 1.0
C      1  0.5357800000000  0.4628100000000  0.5400250000000 1.0
C      1  0.4469120000000  0.4615120000000  0.5119940000000 1.0
C      1  0.5158200000000  0.4617510000000  0.4468660000000 1.0
C      1  0.4907120000000  0.5740580000000  0.4322920000000 1.0
C      1  0.4427480000000  0.5738790000000  0.5429990000000 1.0
C      1  0.5633570000000  0.5761480000000  0.5224500000000 1.0
C      1  0.4913730000000  0.4275050000000  0.5724900000000 1.0
C      1  0.4476410000000  0.4236210000000  0.4582690000000 1.0
C      1  0.5622400000000  0.4248300000000  0.4748810000000 1.0
C      1  0.5214990000000  0.5567290000000  0.4755510000000 1.0
C      1  0.4711630000000  0.5564510000000  0.4954140000000 1.0
C      1  0.5101480000000  0.5574450000000  0.5273170000000 1.0
C      1  0.5180440000000  0.4437760000000  0.5235060000000 1.0
C      1  0.4707310000000  0.4429560000000  0.5062040000000 1.0
C      1  0.5095140000000  0.4426200000000  0.4700820000000 1.0
C      1  0.4850240000000  0.4519480000000  0.4823910000000 1.0
C      1  0.4907700000000  0.4508790000000  0.5258100000000 1.0
C      1  0.5204230000000  0.4525570000000  0.4949270000000 1.0
C      1  0.4829910000000  0.5496720000000  0.5201890000000 1.0
C      1  0.4944590000000  0.5471310000000  0.4789830000000 1.0
C      1  0.5232750000000  0.5478780000000  0.5030610000000 1.0
C      1  0.4483300000000  0.5550440000000  0.4436840000000 1.0
C      1  0.4755150000000  0.5537060000000  0.5744220000000 1.0
C      1  0.5799810000000  0.5494590000000  0.4822140000000 1.0
C      1  0.4478560000000  0.4479030000000  0.5599130000000 1.0
C      1  0.4740850000000  0.4494050000000  0.4230050000000 1.0
C      1  0.5742040000000  0.4444830000000  0.5168110000000 1.0
C      1  0.5426960000000  0.5854990000000  0.5390670000000 1.0
C      1  0.5165600000000  0.5834110000000  0.4375750000000 1.0
C      1  0.4376590000000  0.5818430000000  0.5160030000000 1.0
C      1  0.5444380000000  0.4153080000000  0.4554910000000 1.0
C      1  0.5171170000000  0.4191070000000  0.5632780000000 1.0
C      1  0.4437610000000  0.4147850000000  0.4846760000000 1.0
C      1  0.4681600000000  0.4075270000000  0.5365450000000 1.0
C      1  0.5365120000000  0.4082500000000  0.5106340000000 1.0
C      1  0.4924720000000  0.4113170000000  0.4462720000000 1.0
C      1  0.4732070000000  0.5915450000000  0.4723280000000 1.0
C      1  0.5509890000000  0.5877700000000  0.4775380000000 1.0
C      1  0.4857080000000  0.5934420000000  0.5443270000000 1.0
C      1  0.5351950000000  0.4760170000000  0.4956570000000 1.0
C      1  0.4780090000000  0.4748340000000  0.4685920000000 1.0
C      1  0.4845130000000  0.4763360000000  0.5343720000000 1.0
C      1  0.5384860000000  0.5248200000000  0.5024920000000 1.0
C      1  0.4785440000000  0.5244400000000  0.5303910000000 1.0
C      1  0.4860690000000  0.5235360000000  0.4670640000000 1.0
C      1  0.4048470000000  0.5084630000000  0.4799210000000 1.0
C      1  0.5316660000000  0.5111030000000  0.5924580000000 1.0
C      1  0.5658750000000  0.5069190000000  0.4256430000000 1.0
C      1  0.4041890000000  0.4902440000000  0.5199910000000 1.0
C      1  0.5303930000000  0.4910600000000  0.4055930000000 1.0
C      1  0.5656310000000  0.4921570000000  0.5718330000000 1.0
C      1  0.4603520000000  0.5293540000000  0.5812570000000 1.0
C      1  0.5920620000000  0.5247750000000  0.4929710000000 1.0
C      1  0.4502770000000  0.5311380000000  0.4261350000000 1.0
C      1  0.4589310000000  0.4741540000000  0.4176360000000 1.0
C      1  0.5885640000000  0.4680470000000  0.5057750000000 1.0
C      1  0.4499430000000  0.4725300000000  0.5760000000000 1.0
C      1  0.5570060000000  0.5621050000000  0.5454650000000 1.0
C      1  0.5134110000000  0.5593300000000  0.4249550000000 1.0
C      1  0.4281010000000  0.5582200000000  0.5257400000000 1.0
C      1  0.5571520000000  0.4391880000000  0.4513450000000 1.0
C      1  0.5138460000000  0.4429990000000  0.5760310000000 1.0
C      1  0.4312110000000  0.4381430000000  0.4751920000000 1.0
C      1  0.5681700000000  0.5414720000000  0.4570490000000 1.0
C      1  0.4311660000000  0.5460890000000  0.4653740000000 1.0
C      1  0.5033560000000  0.5462620000000  0.5772970000000 1.0
C      1  0.5643660000000  0.4540050000000  0.5424580000000 1.0
C      1  0.4312870000000  0.4551100000000  0.5372780000000 1.0
C      1  0.5018380000000  0.4570580000000  0.4202230000000 1.0
C      1  0.4516600000000  0.5140510000000  0.5321130000000 1.0
C      1  0.5522120000000  0.5142290000000  0.5253420000000 1.0
C      1  0.4971800000000  0.5144350000000  0.4418860000000 1.0
C      1  0.4514640000000  0.4856940000000  0.4682140000000 1.0
C      1  0.5513040000000  0.4845460000000  0.4731180000000 1.0
C      1  0.4968230000000  0.4870310000000  0.5581990000000 1.0
C      1  0.4768050000000  0.6029910000000  0.5185740000000 1.0
C      1  0.5026940000000  0.6037010000000  0.5072950000000 1.0
C      1  0.5006890000000  0.5997540000000  0.4796150000000 1.0
C      1  0.4912810000000  0.3964260000000  0.5032680000000 1.0
C      1  0.5161660000000  0.3998920000000  0.4908380000000 1.0
C      1  0.4947590000000  0.3976060000000  0.5312760000000 1.0
C      1  0.5830330000000  0.5131440000000  0.5182280000000 1.0
C      1  0.4754530000000  0.5177690000000  0.4191720000000 1.0
C      1  0.4420570000000  0.5162220000000  0.5622450000000 1.0
C      1  0.5818790000000  0.4810270000000  0.4803210000000 1.0
C      1  0.4757550000000  0.4855040000000  0.5818350000000 1.0
C      1  0.4419090000000  0.4863320000000  0.4380480000000 1.0
END
