TITL C-114832-6497-1 -0.141034711326006 125000 -283.371378294695 0 0 43 (C1) n - 1
REM
REM in /rds/project/t2_vol4/rds-t2-cs072/BORA/CARBON/from-Arr/AIRSS/Generating-Clusters/GAP-ML-2020/Higher-Symm/SD-CG/HFTN-CG
REM
REM
REM
REM
REM
REM ./C.cell (b20cbc046b6831c77cfcea5457e17084)
REM AIRSS Version 0.9.1 bugfix July 2018 build 013d7b7c2542+ Fri, 06 Jul 2018 19:26:36 +0100
REM compiler GCC version 9.3.0
REM options -cpp -mtune=generic -march=x86-64 -g -O0
REM seed 334621956 900435066 877482207 -169678364 201165855 -993356138 1836733082 -1570577037 1051776081 983615687 -1100342506 -677446212 1233526146 1901231066 907924543 -585135109 -2118602561 -1548523839 -1566810537 1612479989 -2092606912 -541766072 1128624659 639042725 -1941414530 520964899 1975496633 1212550158 -1584041321 -1069928576 -132692058 912920 967405656
REM
CELL 1.54180   50.00000   50.00000   50.00000   90.00000   90.00000   90.00000
LATT -1
SFAC C  
C      1  0.5413760000000  0.4675890000000  0.5003010000000 1.0
C      1  0.5445400000000  0.5264280000000  0.5226270000000 1.0
C      1  0.5422490000000  0.5121810000000  0.4733830000000 1.0
C      1  0.4585900000000  0.5395650000000  0.5133520000000 1.0
C      1  0.4598870000000  0.4892180000000  0.4555510000000 1.0
C      1  0.4589640000000  0.4728670000000  0.5257720000000 1.0
C      1  0.4963480000000  0.5158700000000  0.5208810000000 1.0
C      1  0.4945440000000  0.5095500000000  0.4747330000000 1.0
C      1  0.4945190000000  0.4754420000000  0.5012050000000 1.0
C      1  0.5350450000000  0.4855020000000  0.4788200000000 1.0
C      1  0.5361780000000  0.4830760000000  0.5231790000000 1.0
C      1  0.5338680000000  0.5275390000000  0.4964660000000 1.0
C      1  0.4813860000000  0.4955800000000  0.5624550000000 1.0
C      1  0.4757560000000  0.5527760000000  0.4716510000000 1.0
C      1  0.4796010000000  0.4469370000000  0.4630290000000 1.0
C      1  0.4668570000000  0.5160450000000  0.5251290000000 1.0
C      1  0.4649760000000  0.5065950000000  0.4791320000000 1.0
C      1  0.4649660000000  0.4803310000000  0.4973960000000 1.0
C      1  0.5070830000000  0.4890480000000  0.5247730000000 1.0
C      1  0.5051890000000  0.5273990000000  0.4956980000000 1.0
C      1  0.5068540000000  0.4825110000000  0.4754980000000 1.0
C      1  0.4600360000000  0.4960960000000  0.5423540000000 1.0
C      1  0.4575810000000  0.5346140000000  0.4847550000000 1.0
C      1  0.4598230000000  0.4654740000000  0.4717020000000 1.0
C      1  0.4937490000000  0.4750990000000  0.5478660000000 1.0
C      1  0.4911700000000  0.5536570000000  0.4956330000000 1.0
C      1  0.4952590000000  0.4687930000000  0.4524680000000 1.0
C      1  0.4989260000000  0.5387220000000  0.5399430000000 1.0
C      1  0.4983540000000  0.5158460000000  0.4457990000000 1.0
C      1  0.4962330000000  0.4470800000000  0.5096230000000 1.0
C      1  0.4812180000000  0.5567520000000  0.5221140000000 1.0
C      1  0.4826800000000  0.4905820000000  0.4375290000000 1.0
C      1  0.4797500000000  0.4538190000000  0.5344150000000 1.0
C      1  0.5240780000000  0.5206730000000  0.5658330000000 1.0
C      1  0.5198260000000  0.5488270000000  0.4503200000000 1.0
C      1  0.5195850000000  0.4243620000000  0.4838990000000 1.0
C      1  0.5281320000000  0.5373490000000  0.5426730000000 1.0
C      1  0.5278790000000  0.5224920000000  0.4502440000000 1.0
C      1  0.5259900000000  0.4435550000000  0.5026430000000 1.0
C      1  0.4964620000000  0.5204850000000  0.5643040000000 1.0
C      1  0.4916720000000  0.5444160000000  0.4492500000000 1.0
C      1  0.4923730000000  0.4323500000000  0.4842930000000 1.0
C      1  0.5550630000000  0.5019460000000  0.5295190000000 1.0
END
