TITL C-110003-9437-5 -1027.04174366125 125000 -955.338611617133 0 0 137 (C3h) n - 1
REM
REM in /rds/project/t2_vol4/rds-t2-cs072/BORA/CARBON/from-Arr/AIRSS/Generating-Clusters/GAP-ML-2020/Higher-Symm/SD-CG/HFTN-CG
REM
REM
REM
REM
REM
REM ./C.cell (b20cbc046b6831c77cfcea5457e17084)
REM AIRSS Version 0.9.1 bugfix July 2018 build 013d7b7c2542+ Fri, 06 Jul 2018 19:26:36 +0100
REM compiler GCC version 9.3.0
REM options -cpp -mtune=generic -march=x86-64 -g -O0
REM seed 1613845092 955502621 98538250 150689480 1512005925 2092458026 375969366 -112168753 1139673166 1042026456 2024951434 564234580 -1408471543 -249100910 -733861662 -104146529 1587766828 1155650628 1965441164 -852453141 966425914 -400323452 559002489 1665446969 1897019588 689332105 -890985486 -1501836370 -1679264782 -242283659 1626098905 1858745884 -1951713364
REM
CELL 1.54180   50.00000   50.00000   50.00000   90.00000   90.00000   90.00000
LATT -1
SFAC C  
C      1  0.3978480000000  0.4794730000000  0.4849700000000 1.0
C      1  0.5331340000000  0.5987490000000  0.4849690000000 1.0
C      1  0.5687870000000  0.4219500000000  0.4849770000000 1.0
C      1  0.3978480000000  0.4794740000000  0.5136920000000 1.0
C      1  0.5331330000000  0.5987510000000  0.5136910000000 1.0
C      1  0.5687870000000  0.4219510000000  0.5136990000000 1.0
C      1  0.4236610000000  0.5503410000000  0.5318370000000 1.0
C      1  0.5815980000000  0.5409630000000  0.5318420000000 1.0
C      1  0.4945070000000  0.4088750000000  0.5318450000000 1.0
C      1  0.4236630000000  0.5503390000000  0.4668210000000 1.0
C      1  0.5816000000000  0.5409600000000  0.4668260000000 1.0
C      1  0.4945090000000  0.4088720000000  0.4668290000000 1.0
C      1  0.4538880000000  0.5969410000000  0.4850980000000 1.0
C      1  0.6068440000000  0.4914840000000  0.4851060000000 1.0
C      1  0.4390380000000  0.4117490000000  0.4851050000000 1.0
C      1  0.4538880000000  0.5969420000000  0.5135580000000 1.0
C      1  0.6068430000000  0.4914850000000  0.5135660000000 1.0
C      1  0.4390370000000  0.4117500000000  0.5135650000000 1.0
C      1  0.5677860000000  0.5604920000000  0.4853530000000 1.0
C      1  0.5183290000000  0.4110700000000  0.4853570000000 1.0
C      1  0.4136550000000  0.5286110000000  0.4853500000000 1.0
C      1  0.5677850000000  0.5604930000000  0.5133120000000 1.0
C      1  0.5183290000000  0.4110710000000  0.5133170000000 1.0
C      1  0.4136540000000  0.5286130000000  0.5133090000000 1.0
C      1  0.4937880000000  0.4748310000000  0.4619060000000 1.0
C      1  0.4811460000000  0.5179840000000  0.4619040000000 1.0
C      1  0.5248380000000  0.5073550000000  0.4619060000000 1.0
C      1  0.4937860000000  0.4748340000000  0.5367620000000 1.0
C      1  0.4811440000000  0.5179870000000  0.5367600000000 1.0
C      1  0.5248360000000  0.5073590000000  0.5367620000000 1.0
C      1  0.4026340000000  0.4498360000000  0.5137250000000 1.0
C      1  0.5050720000000  0.6094250000000  0.5137220000000 1.0
C      1  0.5920610000000  0.4409160000000  0.5137310000000 1.0
C      1  0.4026350000000  0.4498350000000  0.4849400000000 1.0
C      1  0.5050730000000  0.6094230000000  0.4849360000000 1.0
C      1  0.5920620000000  0.4409150000000  0.4849460000000 1.0
C      1  0.4234740000000  0.5069370000000  0.5520870000000 1.0
C      1  0.5441000000000  0.5628280000000  0.5520880000000 1.0
C      1  0.5321900000000  0.4304170000000  0.5520930000000 1.0
C      1  0.4234770000000  0.5069330000000  0.4465750000000 1.0
C      1  0.5441030000000  0.5628240000000  0.4465760000000 1.0
C      1  0.5321930000000  0.4304130000000  0.4465810000000 1.0
C      1  0.4405170000000  0.5726950000000  0.5235390000000 1.0
C      1  0.5925290000000  0.5151880000000  0.5235450000000 1.0
C      1  0.4667200000000  0.4122950000000  0.5235460000000 1.0
C      1  0.4405180000000  0.5726930000000  0.4751180000000 1.0
C      1  0.5925310000000  0.5151860000000  0.4751250000000 1.0
C      1  0.4667220000000  0.4122930000000  0.4751250000000 1.0
C      1  0.5412050000000  0.4277750000000  0.5246830000000 1.0
C      1  0.4166810000000  0.5004490000000  0.5246770000000 1.0
C      1  0.5418810000000  0.5719530000000  0.5246780000000 1.0
C      1  0.5412070000000  0.4277730000000  0.4739910000000 1.0
C      1  0.4166830000000  0.5004470000000  0.4739850000000 1.0
C      1  0.5418820000000  0.5719510000000  0.4739850000000 1.0
C      1  0.4945140000000  0.5623490000000  0.5618020000000 1.0
C      1  0.5565690000000  0.4735990000000  0.5618070000000 1.0
C      1  0.4486810000000  0.4642340000000  0.5618050000000 1.0
C      1  0.4945170000000  0.5623440000000  0.4368590000000 1.0
C      1  0.5565720000000  0.4735950000000  0.4368640000000 1.0
C      1  0.4486850000000  0.4642290000000  0.4368610000000 1.0
C      1  0.4682630000000  0.4417190000000  0.5160280000000 1.0
C      1  0.4652280000000  0.5566470000000  0.5160230000000 1.0
C      1  0.5662760000000  0.5018110000000  0.5160290000000 1.0
C      1  0.4682640000000  0.4417180000000  0.4826410000000 1.0
C      1  0.4652290000000  0.5566460000000  0.4826360000000 1.0
C      1  0.5662770000000  0.5018100000000  0.4826410000000 1.0
C      1  0.5936480000000  0.4668590000000  0.4735620000000 1.0
C      1  0.4243110000000  0.4354890000000  0.4735580000000 1.0
C      1  0.4818120000000  0.5978240000000  0.4735530000000 1.0
C      1  0.5936470000000  0.4668610000000  0.5251120000000 1.0
C      1  0.4243090000000  0.4354910000000  0.5251090000000 1.0
C      1  0.4818110000000  0.5978270000000  0.5251040000000 1.0
C      1  0.4716020000000  0.4616410000000  0.5796630000000 1.0
C      1  0.4808070000000  0.5437960000000  0.5796600000000 1.0
C      1  0.5473530000000  0.4947470000000  0.5796640000000 1.0
C      1  0.4716070000000  0.4616350000000  0.4190040000000 1.0
C      1  0.4808120000000  0.5437900000000  0.4190010000000 1.0
C      1  0.5473570000000  0.4947410000000  0.4190050000000 1.0
C      1  0.5076740000000  0.5272470000000  0.5250500000000 1.0
C      1  0.5195910000000  0.4797520000000  0.5250530000000 1.0
C      1  0.4725010000000  0.4931790000000  0.5250510000000 1.0
C      1  0.5076760000000  0.5272440000000  0.4736150000000 1.0
C      1  0.5195920000000  0.4797500000000  0.4736170000000 1.0
C      1  0.4725030000000  0.4931770000000  0.4736150000000 1.0
C      1  0.5593020000000  0.5377770000000  0.5521520000000 1.0
C      1  0.5028950000000  0.4297770000000  0.5521550000000 1.0
C      1  0.4375680000000  0.5326270000000  0.5521490000000 1.0
C      1  0.5593040000000  0.5377720000000  0.4465140000000 1.0
C      1  0.5028980000000  0.4297730000000  0.4465170000000 1.0
C      1  0.4375710000000  0.5326230000000  0.4465110000000 1.0
C      1  0.5195070000000  0.4574880000000  0.5859270000000 1.0
C      1  0.4532570000000  0.5043860000000  0.5859230000000 1.0
C      1  0.5269980000000  0.5383110000000  0.5859240000000 1.0
C      1  0.5195120000000  0.4574810000000  0.4127440000000 1.0
C      1  0.4532620000000  0.5043790000000  0.4127400000000 1.0
C      1  0.5270020000000  0.5383040000000  0.4127410000000 1.0
C      1  0.5657600000000  0.4740420000000  0.4670160000000 1.0
C      1  0.4444760000000  0.4560490000000  0.4670140000000 1.0
C      1  0.4895350000000  0.5700800000000  0.4670100000000 1.0
C      1  0.5657580000000  0.4740450000000  0.5316560000000 1.0
C      1  0.4444750000000  0.4560510000000  0.5316530000000 1.0
C      1  0.4895330000000  0.5700830000000  0.5316500000000 1.0
C      1  0.5426520000000  0.4594130000000  0.4835600000000 1.0
C      1  0.4433590000000  0.4833760000000  0.4835560000000 1.0
C      1  0.5137590000000  0.5573840000000  0.4835550000000 1.0
C      1  0.5426510000000  0.4594140000000  0.5151120000000 1.0
C      1  0.4433590000000  0.4833780000000  0.5151080000000 1.0
C      1  0.5137580000000  0.5573850000000  0.5151070000000 1.0
C      1  0.4924010000000  0.4482950000000  0.5299840000000 1.0
C      1  0.4588530000000  0.5324550000000  0.5299790000000 1.0
C      1  0.5485120000000  0.5194280000000  0.5299820000000 1.0
C      1  0.4924030000000  0.4482930000000  0.4686860000000 1.0
C      1  0.4588550000000  0.5324530000000  0.4686820000000 1.0
C      1  0.5485140000000  0.5194260000000  0.4686850000000 1.0
C      1  0.5415870000000  0.4504110000000  0.4295110000000 1.0
C      1  0.4361010000000  0.4887980000000  0.4295070000000 1.0
C      1  0.5220870000000  0.5609580000000  0.4295060000000 1.0
C      1  0.5415830000000  0.4504170000000  0.5691610000000 1.0
C      1  0.4360970000000  0.4888030000000  0.5691570000000 1.0
C      1  0.5220830000000  0.5609640000000  0.5691560000000 1.0
C      1  0.5234440000000  0.4847740000000  0.5925270000000 1.0
C      1  0.4749180000000  0.4873340000000  0.5925260000000 1.0
C      1  0.5013990000000  0.5280790000000  0.5925250000000 1.0
C      1  0.5234500000000  0.4847660000000  0.4061410000000 1.0
C      1  0.4749230000000  0.4873260000000  0.4061400000000 1.0
C      1  0.5014040000000  0.5280710000000  0.4061390000000 1.0
C      1  0.4951700000000  0.4452440000000  0.4214140000000 1.0
C      1  0.4548350000000  0.5315790000000  0.4214100000000 1.0
C      1  0.5497710000000  0.5233430000000  0.4214130000000 1.0
C      1  0.4951650000000  0.4452500000000  0.5772560000000 1.0
C      1  0.4548310000000  0.5315850000000  0.5772510000000 1.0
C      1  0.5497660000000  0.5233490000000  0.5772540000000 1.0
C      1  0.5049650000000  0.5156400000000  0.4993330000000 1.0
C      1  0.5108960000000  0.4879010000000  0.4993340000000 1.0
C      1  0.4839080000000  0.4966330000000  0.4993330000000 1.0
C      1  0.4999260000000  0.5000540000000  0.4015270000000 1.0
C      1  0.4999200000000  0.5000620000000  0.5971390000000 1.0
END
