TITL C-114834-6442-9 0.00528709987804558 125000 -505.315695023495 0 0 74 (C1) n - 1
REM
REM in /rds/project/t2_vol4/rds-t2-cs072/BORA/CARBON/from-Arr/AIRSS/Generating-Clusters/GAP-ML-2020/Higher-Symm/SD-CG/HFTN-CG
REM
REM
REM
REM
REM
REM ./C.cell (b20cbc046b6831c77cfcea5457e17084)
REM AIRSS Version 0.9.1 bugfix July 2018 build 013d7b7c2542+ Fri, 06 Jul 2018 19:26:36 +0100
REM compiler GCC version 9.3.0
REM options -cpp -mtune=generic -march=x86-64 -g -O0
REM seed 324276174 180188403 -606924778 442606029 -1936868281 2037098086 -2104124244 436799090 2107270045 1423601033 1161229886 -346913150 -253816267 1178368637 -8367814 -1997259427 -1689316800 181370121 1395841316 -932377822 -1490978612 1711861609 -1749131193 -1929360286 -1336020041 -1499684925 1512783239 1820860969 -903046866 -1529273616 1947663236 -1454636344 -1458040821
REM
CELL 1.54180   50.00000   50.00000   50.00000   90.00000   90.00000   90.00000
LATT -1
SFAC C  
C      1  0.5495940000000  0.5243200000000  0.4406080000000 1.0
C      1  0.4469970000000  0.4748660000000  0.5156910000000 1.0
C      1  0.5057130000000  0.4904540000000  0.5584400000000 1.0
C      1  0.5458830000000  0.4649680000000  0.5387270000000 1.0
C      1  0.5099580000000  0.5567850000000  0.5499400000000 1.0
C      1  0.5387510000000  0.4786890000000  0.4487000000000 1.0
C      1  0.5188110000000  0.5365480000000  0.5685980000000 1.0
C      1  0.5623430000000  0.5493750000000  0.4419790000000 1.0
C      1  0.4865130000000  0.5224790000000  0.5266890000000 1.0
C      1  0.5172230000000  0.5520060000000  0.4980980000000 1.0
C      1  0.4714280000000  0.5240870000000  0.5028090000000 1.0
C      1  0.4920440000000  0.4527560000000  0.5133010000000 1.0
C      1  0.4793420000000  0.4352460000000  0.4642920000000 1.0
C      1  0.4379310000000  0.4557850000000  0.4737650000000 1.0
C      1  0.5703560000000  0.5001190000000  0.5032720000000 1.0
C      1  0.5542960000000  0.5017060000000  0.4599210000000 1.0
C      1  0.4723710000000  0.5132310000000  0.4375580000000 1.0
C      1  0.4320650000000  0.5215110000000  0.5255830000000 1.0
C      1  0.5312440000000  0.4411060000000  0.5337290000000 1.0
C      1  0.5268580000000  0.4615560000000  0.4687190000000 1.0
C      1  0.5774960000000  0.4934190000000  0.4763270000000 1.0
C      1  0.4776800000000  0.4501850000000  0.5497100000000 1.0
C      1  0.4874710000000  0.5112470000000  0.4839770000000 1.0
C      1  0.4733540000000  0.5222470000000  0.5587580000000 1.0
C      1  0.4496910000000  0.5212980000000  0.4544270000000 1.0
C      1  0.5029050000000  0.4802710000000  0.5065380000000 1.0
C      1  0.5219170000000  0.5188260000000  0.4334910000000 1.0
C      1  0.4787100000000  0.4923840000000  0.4214700000000 1.0
C      1  0.5330030000000  0.5196130000000  0.5289790000000 1.0
C      1  0.4989800000000  0.5170010000000  0.5710930000000 1.0
C      1  0.4432050000000  0.5474600000000  0.5326750000000 1.0
C      1  0.5564180000000  0.5518070000000  0.4673090000000 1.0
C      1  0.5029670000000  0.4270910000000  0.5041350000000 1.0
C      1  0.5307850000000  0.4296860000000  0.5061460000000 1.0
C      1  0.5866790000000  0.4674800000000  0.4769430000000 1.0
C      1  0.4837020000000  0.5671280000000  0.5471170000000 1.0
C      1  0.4598180000000  0.4964200000000  0.5567940000000 1.0
C      1  0.5364730000000  0.4812840000000  0.5607170000000 1.0
C      1  0.4838890000000  0.4825530000000  0.4832060000000 1.0
C      1  0.4969230000000  0.5732880000000  0.4976050000000 1.0
C      1  0.4820460000000  0.5555080000000  0.4515370000000 1.0
C      1  0.4812310000000  0.4197640000000  0.4888220000000 1.0
C      1  0.5110460000000  0.5258040000000  0.4781070000000 1.0
C      1  0.4962940000000  0.4750540000000  0.4340400000000 1.0
C      1  0.5129820000000  0.5410950000000  0.5251370000000 1.0
C      1  0.5061960000000  0.5000110000000  0.5286860000000 1.0
C      1  0.4541910000000  0.5488340000000  0.4585270000000 1.0
C      1  0.4375180000000  0.5058800000000  0.4761100000000 1.0
C      1  0.5518400000000  0.5008830000000  0.5722890000000 1.0
C      1  0.4372050000000  0.4314350000000  0.4865950000000 1.0
C      1  0.4527550000000  0.5666120000000  0.5118490000000 1.0
C      1  0.4962000000000  0.4605550000000  0.4611690000000 1.0
C      1  0.5443290000000  0.4404290000000  0.4837170000000 1.0
C      1  0.4982840000000  0.5301070000000  0.4492910000000 1.0
C      1  0.5508870000000  0.5217260000000  0.5049220000000 1.0
C      1  0.5027600000000  0.4401990000000  0.5392060000000 1.0
C      1  0.4617950000000  0.5487220000000  0.5541560000000 1.0
C      1  0.4786220000000  0.5757160000000  0.5203150000000 1.0
C      1  0.4502700000000  0.4799100000000  0.4860090000000 1.0
C      1  0.4564840000000  0.4264720000000  0.5061940000000 1.0
C      1  0.4812200000000  0.5734390000000  0.4741900000000 1.0
C      1  0.5289930000000  0.4805300000000  0.4931160000000 1.0
C      1  0.5676600000000  0.4545490000000  0.4922570000000 1.0
C      1  0.4626000000000  0.4503460000000  0.5225600000000 1.0
C      1  0.5202010000000  0.4898290000000  0.4314910000000 1.0
C      1  0.5474950000000  0.5492540000000  0.4924220000000 1.0
C      1  0.4791830000000  0.4761600000000  0.5607090000000 1.0
C      1  0.5349800000000  0.5084040000000  0.4827570000000 1.0
C      1  0.4511160000000  0.4346770000000  0.4603090000000 1.0
C      1  0.5418800000000  0.5220840000000  0.5581850000000 1.0
C      1  0.4420020000000  0.4960620000000  0.5346510000000 1.0
C      1  0.4387500000000  0.5210740000000  0.4989190000000 1.0
C      1  0.4538510000000  0.5654610000000  0.4825500000000 1.0
C      1  0.5553460000000  0.4751350000000  0.5113700000000 1.0
END
