TITL C-110364-4528-4 119.18669049367 125000 -1224.45488851897 0 0 177 (C3h) n - 1
REM
REM in /rds/project/t2_vol4/rds-t2-cs072/BORA/CARBON/from-Arr/AIRSS/Generating-Clusters/GAP-ML-2020/Higher-Symm/SD-CG/HFTN-CG
REM
REM
REM
REM
REM
REM ./C.cell (b20cbc046b6831c77cfcea5457e17084)
REM AIRSS Version 0.9.1 bugfix July 2018 build 013d7b7c2542+ Fri, 06 Jul 2018 19:26:36 +0100
REM compiler GCC version 9.3.0
REM options -cpp -mtune=generic -march=x86-64 -g -O0
REM seed 1294876740 -760854350 -1684536377 1862235562 58297460 1608157078 7367143 99906919 -2062184256 2143054409 -1655830056 -378198669 1254622919 -1633675995 148277169 -432734141 -1195959336 -1573013967 -1345652546 -1936711683 -2085955308 -1117584409 -190123586 2137595522 718789964 297671740 -896050428 -1049004556 -399259881 -1242615931 855710099 1837912109 156371292
REM
CELL 1.54180   50.00000   50.00000   50.00000   90.00000   90.00000   90.00000
LATT -1
SFAC C  
C      1  0.4983050000000  0.5149270000000  0.5286790000000 1.0
C      1  0.4760100000000  0.5149240000000  0.4841920000000 1.0
C      1  0.5256840000000  0.5149260000000  0.4871270000000 1.0
C      1  0.4983050000000  0.4857680000000  0.5286800000000 1.0
C      1  0.4760110000000  0.4857660000000  0.4841930000000 1.0
C      1  0.5256850000000  0.4857670000000  0.4871290000000 1.0
C      1  0.5008890000000  0.5243750000000  0.4707580000000 1.0
C      1  0.4742310000000  0.5243760000000  0.5138490000000 1.0
C      1  0.5248780000000  0.5243770000000  0.5153900000000 1.0
C      1  0.5008900000000  0.4763150000000  0.4707600000000 1.0
C      1  0.4742320000000  0.4763160000000  0.5138510000000 1.0
C      1  0.5248800000000  0.4763180000000  0.5153920000000 1.0
C      1  0.4503690000000  0.5405330000000  0.5556460000000 1.0
C      1  0.4766220000000  0.5405290000000  0.4291940000000 1.0
C      1  0.5730060000000  0.5405340000000  0.5151550000000 1.0
C      1  0.4503710000000  0.4601610000000  0.5556490000000 1.0
C      1  0.4766240000000  0.4601570000000  0.4291970000000 1.0
C      1  0.5730080000000  0.4601620000000  0.5151590000000 1.0
C      1  0.4495340000000  0.5438740000000  0.4448830000000 1.0
C      1  0.4775010000000  0.5438800000000  0.5712600000000 1.0
C      1  0.5729630000000  0.5438790000000  0.4838520000000 1.0
C      1  0.4495360000000  0.4568110000000  0.4448870000000 1.0
C      1  0.4775020000000  0.4568170000000  0.5712630000000 1.0
C      1  0.5729650000000  0.4568160000000  0.4838550000000 1.0
C      1  0.3833410000000  0.5150280000000  0.4876090000000 1.0
C      1  0.5690600000000  0.5150280000000  0.4051650000000 1.0
C      1  0.5475990000000  0.5150360000000  0.6072240000000 1.0
C      1  0.3833410000000  0.4856590000000  0.4876100000000 1.0
C      1  0.5690600000000  0.4856590000000  0.4051660000000 1.0
C      1  0.5475990000000  0.4856670000000  0.6072260000000 1.0
C      1  0.3800530000000  0.5148670000000  0.5163220000000 1.0
C      1  0.5741090000000  0.5148750000000  0.5957160000000 1.0
C      1  0.5458380000000  0.5148660000000  0.3879610000000 1.0
C      1  0.3800530000000  0.4858210000000  0.5163230000000 1.0
C      1  0.5741090000000  0.4858280000000  0.5957170000000 1.0
C      1  0.5458380000000  0.4858190000000  0.3879620000000 1.0
C      1  0.4053760000000  0.5292390000000  0.4737320000000 1.0
C      1  0.5700580000000  0.5292410000000  0.4311860000000 1.0
C      1  0.5245640000000  0.5292470000000  0.5950780000000 1.0
C      1  0.4053770000000  0.4714470000000  0.4737350000000 1.0
C      1  0.5700600000000  0.4714490000000  0.4311880000000 1.0
C      1  0.5245650000000  0.4714540000000  0.5950810000000 1.0
C      1  0.4017230000000  0.5283440000000  0.5313530000000 1.0
C      1  0.5762910000000  0.5283490000000  0.5694310000000 1.0
C      1  0.5219840000000  0.5283410000000  0.3992120000000 1.0
C      1  0.4017250000000  0.4723470000000  0.5313550000000 1.0
C      1  0.5762920000000  0.4723520000000  0.5694340000000 1.0
C      1  0.5219850000000  0.4723440000000  0.3992150000000 1.0
C      1  0.4362120000000  0.5325540000000  0.4202350000000 1.0
C      1  0.6009700000000  0.5325600000000  0.4846390000000 1.0
C      1  0.4628150000000  0.5325610000000  0.5951210000000 1.0
C      1  0.4362140000000  0.4681290000000  0.4202380000000 1.0
C      1  0.6009710000000  0.4681360000000  0.4846420000000 1.0
C      1  0.4628170000000  0.4681370000000  0.5951240000000 1.0
C      1  0.4375180000000  0.5337940000000  0.5820070000000 1.0
C      1  0.6022610000000  0.5337950000000  0.5131040000000 1.0
C      1  0.4602180000000  0.5337870000000  0.4048840000000 1.0
C      1  0.4375200000000  0.4669020000000  0.5820100000000 1.0
C      1  0.6022620000000  0.4669030000000  0.5131070000000 1.0
C      1  0.4602200000000  0.4668960000000  0.4048870000000 1.0
C      1  0.4309200000000  0.5161850000000  0.4855660000000 1.0
C      1  0.5470400000000  0.5161860000000  0.4473910000000 1.0
C      1  0.5220400000000  0.5161900000000  0.5670410000000 1.0
C      1  0.4309200000000  0.4845030000000  0.4855670000000 1.0
C      1  0.5470400000000  0.4845040000000  0.4473920000000 1.0
C      1  0.5220410000000  0.4845090000000  0.5670430000000 1.0
C      1  0.4270630000000  0.5154250000000  0.5166070000000 1.0
C      1  0.5508510000000  0.5154300000000  0.5548610000000 1.0
C      1  0.5220850000000  0.5154240000000  0.4285310000000 1.0
C      1  0.4270640000000  0.4852650000000  0.5166080000000 1.0
C      1  0.5508510000000  0.4852690000000  0.5548620000000 1.0
C      1  0.5220860000000  0.4852640000000  0.4285320000000 1.0
C      1  0.4748240000000  0.5586410000000  0.4813120000000 1.0
C      1  0.5287690000000  0.5586430000000  0.4875380000000 1.0
C      1  0.4964040000000  0.5586440000000  0.5311430000000 1.0
C      1  0.4748260000000  0.4420490000000  0.4813170000000 1.0
C      1  0.5287710000000  0.4420500000000  0.4875430000000 1.0
C      1  0.4964070000000  0.4420510000000  0.5311480000000 1.0
C      1  0.4735110000000  0.5542140000000  0.5115510000000 1.0
C      1  0.5232480000000  0.5542150000000  0.5171600000000 1.0
C      1  0.5032370000000  0.5542130000000  0.4712820000000 1.0
C      1  0.4735130000000  0.4464780000000  0.5115560000000 1.0
C      1  0.5232510000000  0.4464790000000  0.5171650000000 1.0
C      1  0.5032390000000  0.4464770000000  0.4712860000000 1.0
C      1  0.4600310000000  0.5808900000000  0.4685190000000 1.0
C      1  0.5472420000000  0.5808930000000  0.4811230000000 1.0
C      1  0.4927220000000  0.5808940000000  0.5503480000000 1.0
C      1  0.4600340000000  0.4197980000000  0.4685260000000 1.0
C      1  0.5472460000000  0.4198000000000  0.4811290000000 1.0
C      1  0.4927250000000  0.4198020000000  0.5503550000000 1.0
C      1  0.4502630000000  0.5744510000000  0.5173160000000 1.0
C      1  0.5398640000000  0.5744530000000  0.5344100000000 1.0
C      1  0.5098680000000  0.5744490000000  0.4482660000000 1.0
C      1  0.4502660000000  0.4262410000000  0.5173220000000 1.0
C      1  0.5398680000000  0.4262440000000  0.5344160000000 1.0
C      1  0.5098710000000  0.4262390000000  0.4482720000000 1.0
C      1  0.4004150000000  0.4857080000000  0.4484020000000 1.0
C      1  0.5944790000000  0.4857120000000  0.4395560000000 1.0
C      1  0.5051080000000  0.4857170000000  0.6120440000000 1.0
C      1  0.4004140000000  0.5149760000000  0.4484010000000 1.0
C      1  0.5944780000000  0.5149800000000  0.4395550000000 1.0
C      1  0.5051070000000  0.5149850000000  0.6120420000000 1.0
C      1  0.4008350000000  0.4862620000000  0.5569940000000 1.0
C      1  0.5989410000000  0.4862660000000  0.5573830000000 1.0
C      1  0.5002250000000  0.4862570000000  0.3856240000000 1.0
C      1  0.4008340000000  0.5144310000000  0.5569930000000 1.0
C      1  0.5989400000000  0.5144350000000  0.5573820000000 1.0
C      1  0.5002240000000  0.5144260000000  0.3856230000000 1.0
C      1  0.5687430000000  0.4438170000000  0.5616160000000 1.0
C      1  0.4122720000000  0.4438130000000  0.5287280000000 1.0
C      1  0.5189890000000  0.4438100000000  0.4096630000000 1.0
C      1  0.5687410000000  0.5568830000000  0.5616110000000 1.0
C      1  0.4122690000000  0.5568780000000  0.5287230000000 1.0
C      1  0.5189870000000  0.5568760000000  0.4096590000000 1.0
C      1  0.5610120000000  0.4415390000000  0.4390640000000 1.0
C      1  0.4167210000000  0.4415380000000  0.4776350000000 1.0
C      1  0.5222700000000  0.4415440000000  0.5833090000000 1.0
C      1  0.5610100000000  0.5591510000000  0.4390590000000 1.0
C      1  0.4167190000000  0.5591490000000  0.4776300000000 1.0
C      1  0.5222670000000  0.5591560000000  0.5833040000000 1.0
C      1  0.4952570000000  0.5160000000000  0.4424240000000 1.0
C      1  0.5522320000000  0.5160040000000  0.5246800000000 1.0
C      1  0.4525100000000  0.5160020000000  0.5328940000000 1.0
C      1  0.4952580000000  0.4846880000000  0.4424260000000 1.0
C      1  0.5522330000000  0.4846920000000  0.5246810000000 1.0
C      1  0.4525100000000  0.4846910000000  0.5328950000000 1.0
C      1  0.4991130000000  0.5305280000000  0.5529980000000 1.0
C      1  0.5463410000000  0.5305260000000  0.4742670000000 1.0
C      1  0.4545440000000  0.5305240000000  0.4727320000000 1.0
C      1  0.4991140000000  0.4701690000000  0.5530000000000 1.0
C      1  0.5463420000000  0.4701660000000  0.4742690000000 1.0
C      1  0.4545450000000  0.4701640000000  0.4727340000000 1.0
C      1  0.4759150000000  0.5152980000000  0.6133360000000 1.0
C      1  0.4138900000000  0.5152890000000  0.4224730000000 1.0
C      1  0.6101940000000  0.5152950000000  0.4641890000000 1.0
C      1  0.4759160000000  0.4854020000000  0.6133370000000 1.0
C      1  0.4138900000000  0.4853930000000  0.4224740000000 1.0
C      1  0.6101950000000  0.4853990000000  0.4641900000000 1.0
C      1  0.4712310000000  0.5219170000000  0.3815190000000 1.0
C      1  0.4117770000000  0.5219240000000  0.5841540000000 1.0
C      1  0.6169910000000  0.5219270000000  0.5343250000000 1.0
C      1  0.4712320000000  0.4787640000000  0.3815200000000 1.0
C      1  0.4117780000000  0.4787710000000  0.5841560000000 1.0
C      1  0.6169920000000  0.4787740000000  0.5343270000000 1.0
C      1  0.5046110000000  0.5980010000000  0.4706480000000 1.0
C      1  0.5231070000000  0.5980030000000  0.5186650000000 1.0
C      1  0.4722750000000  0.5980020000000  0.5106740000000 1.0
C      1  0.5046160000000  0.4026890000000  0.4706560000000 1.0
C      1  0.5231110000000  0.4026920000000  0.5186730000000 1.0
C      1  0.4722800000000  0.4026900000000  0.5106820000000 1.0
C      1  0.4955630000000  0.5986090000000  0.5282170000000 1.0
C      1  0.5266550000000  0.5986080000000  0.4897260000000 1.0
C      1  0.4777750000000  0.5986060000000  0.4820450000000 1.0
C      1  0.4955670000000  0.4020860000000  0.5282250000000 1.0
C      1  0.5266600000000  0.4020850000000  0.4897340000000 1.0
C      1  0.4777790000000  0.4020830000000  0.4820530000000 1.0
C      1  0.4955410000000  0.4369450000000  0.4242560000000 1.0
C      1  0.5678290000000  0.4369510000000  0.5340130000000 1.0
C      1  0.4366330000000  0.4369480000000  0.5417380000000 1.0
C      1  0.4955390000000  0.5637410000000  0.4242510000000 1.0
C      1  0.5678270000000  0.5637470000000  0.5340080000000 1.0
C      1  0.4366300000000  0.5637450000000  0.5417330000000 1.0
C      1  0.4961540000000  0.4323590000000  0.5751790000000 1.0
C      1  0.5670290000000  0.4323560000000  0.4657460000000 1.0
C      1  0.4368210000000  0.4323530000000  0.4590830000000 1.0
C      1  0.4961510000000  0.5683400000000  0.5751730000000 1.0
C      1  0.5670260000000  0.5683370000000  0.4657410000000 1.0
C      1  0.4368180000000  0.5683340000000  0.4590780000000 1.0
C      1  0.5347060000000  0.4333500000000  0.4313930000000 1.0
C      1  0.4232280000000  0.5673390000000  0.5042470000000 1.0
C      1  0.5347030000000  0.5673390000000  0.4313870000000 1.0
C      1  0.5420670000000  0.4333550000000  0.5643630000000 1.0
C      1  0.5420640000000  0.5673440000000  0.5643570000000 1.0
C      1  0.4232310000000  0.4333500000000  0.5042530000000 1.0
C      1  0.6346130000000  0.5003500000000  0.5305100000000 1.0
C      1  0.4062710000000  0.5003480000000  0.6013230000000 1.0
C      1  0.4591160000000  0.5003400000000  0.3681660000000 1.0
END
