TITL C-111512-4040-7 126.063407731346 125000 -644.746728357747 0 0 94 (C1) n - 1
REM
REM in /rds/project/t2_vol4/rds-t2-cs072/BORA/CARBON/from-Arr/AIRSS/Generating-Clusters/GAP-ML-2020/Higher-Symm/SD-CG/HFTN-CG
REM
REM
REM
REM
REM
REM ./C.cell (b20cbc046b6831c77cfcea5457e17084)
REM AIRSS Version 0.9.1 bugfix July 2018 build 013d7b7c2542+ Fri, 06 Jul 2018 19:26:36 +0100
REM compiler GCC version 9.3.0
REM options -cpp -mtune=generic -march=x86-64 -g -O0
REM seed -342852383 761754151 422752365 -1964204000 -1210925743 -222909707 1131688313 -961139068 -1358039710 152575565 632474860 1556134333 1264068133 326455547 73883760 112559083 1456505369 -1307658926 736845449 -1947260563 -404929142 1832564152 1259650028 249435578 -274896512 1638190760 1016971579 927151216 1609526601 -81396208 193357839 -58427147 1737925855
REM
CELL 1.54180   50.00000   50.00000   50.00000   90.00000   90.00000   90.00000
LATT -1
SFAC C  
C      1  0.5736550000000  0.4789060000000  0.5362310000000 1.0
C      1  0.5270700000000  0.5740500000000  0.4815650000000 1.0
C      1  0.4804580000000  0.5440190000000  0.5753550000000 1.0
C      1  0.4252090000000  0.4737560000000  0.4712250000000 1.0
C      1  0.5766420000000  0.5287270000000  0.4534870000000 1.0
C      1  0.4270370000000  0.5296900000000  0.5421210000000 1.0
C      1  0.4787970000000  0.5747020000000  0.5141980000000 1.0
C      1  0.5314730000000  0.4231010000000  0.5211440000000 1.0
C      1  0.4654530000000  0.4199810000000  0.4772130000000 1.0
C      1  0.5180900000000  0.5371360000000  0.4375230000000 1.0
C      1  0.4796770000000  0.4645110000000  0.4277920000000 1.0
C      1  0.5210380000000  0.4607610000000  0.5795650000000 1.0
C      1  0.4411320000000  0.5344430000000  0.4396660000000 1.0
C      1  0.4409040000000  0.4364010000000  0.5252640000000 1.0
C      1  0.5226750000000  0.4451730000000  0.4400320000000 1.0
C      1  0.5591830000000  0.5247480000000  0.5614690000000 1.0
C      1  0.4376360000000  0.4775090000000  0.5571630000000 1.0
C      1  0.5593830000000  0.4767500000000  0.4425020000000 1.0
C      1  0.5587290000000  0.4372660000000  0.4769540000000 1.0
C      1  0.4453470000000  0.5653180000000  0.4771130000000 1.0
C      1  0.5593140000000  0.5601960000000  0.5215300000000 1.0
C      1  0.4738670000000  0.4403030000000  0.5643060000000 1.0
C      1  0.5242580000000  0.5606690000000  0.5601160000000 1.0
C      1  0.4798100000000  0.5649310000000  0.4371300000000 1.0
C      1  0.5744640000000  0.4551210000000  0.5236480000000 1.0
C      1  0.5209340000000  0.5811160000000  0.4563420000000 1.0
C      1  0.4685180000000  0.5202630000000  0.5711690000000 1.0
C      1  0.4245040000000  0.4487280000000  0.4811440000000 1.0
C      1  0.5733020000000  0.5468750000000  0.4715190000000 1.0
C      1  0.4315510000000  0.5475560000000  0.5239700000000 1.0
C      1  0.4863430000000  0.5789660000000  0.5395940000000 1.0
C      1  0.5185300000000  0.4225070000000  0.5443220000000 1.0
C      1  0.4806010000000  0.4233130000000  0.4570320000000 1.0
C      1  0.5340230000000  0.5160240000000  0.4275710000000 1.0
C      1  0.4532680000000  0.4646820000000  0.4330130000000 1.0
C      1  0.5396930000000  0.4783550000000  0.5783140000000 1.0
C      1  0.5523130000000  0.5561610000000  0.4914090000000 1.0
C      1  0.4951360000000  0.5635850000000  0.5611750000000 1.0
C      1  0.5558390000000  0.4931710000000  0.5583090000000 1.0
C      1  0.4533000000000  0.5584450000000  0.5055350000000 1.0
C      1  0.5550790000000  0.4398050000000  0.5082570000000 1.0
C      1  0.4462460000000  0.4365320000000  0.4939610000000 1.0
C      1  0.5094110000000  0.5650540000000  0.4369240000000 1.0
C      1  0.4941230000000  0.4408910000000  0.4382250000000 1.0
C      1  0.5053910000000  0.4431120000000  0.5611840000000 1.0
C      1  0.4379720000000  0.4822890000000  0.4464710000000 1.0
C      1  0.5568850000000  0.5076060000000  0.4452440000000 1.0
C      1  0.4450410000000  0.5087600000000  0.5531950000000 1.0
C      1  0.5648070000000  0.4626210000000  0.4669830000000 1.0
C      1  0.4709320000000  0.5677310000000  0.4639350000000 1.0
C      1  0.4620400000000  0.4656590000000  0.5639960000000 1.0
C      1  0.4351820000000  0.4635630000000  0.5317350000000 1.0
C      1  0.5630880000000  0.5359620000000  0.5354480000000 1.0
C      1  0.4330710000000  0.5428090000000  0.4658030000000 1.0
C      1  0.5341280000000  0.5628180000000  0.5332980000000 1.0
C      1  0.4652080000000  0.4329220000000  0.5387400000000 1.0
C      1  0.5331220000000  0.4389720000000  0.4657190000000 1.0
C      1  0.5359900000000  0.4681650000000  0.4285990000000 1.0
C      1  0.4668470000000  0.5413460000000  0.4290780000000 1.0
C      1  0.5328110000000  0.5349140000000  0.5667640000000 1.0
C      1  0.5327430000000  0.4998420000000  0.5379280000000 1.0
C      1  0.5349590000000  0.5304450000000  0.4986710000000 1.0
C      1  0.4827010000000  0.5144670000000  0.5137800000000 1.0
C      1  0.4514030000000  0.5080570000000  0.4504340000000 1.0
C      1  0.5430380000000  0.5011470000000  0.4708270000000 1.0
C      1  0.4641230000000  0.4982620000000  0.5301480000000 1.0
C      1  0.4675560000000  0.5317450000000  0.4943690000000 1.0
C      1  0.5362060000000  0.4642960000000  0.5027810000000 1.0
C      1  0.4687020000000  0.4596530000000  0.4997110000000 1.0
C      1  0.5184350000000  0.5123020000000  0.4805370000000 1.0
C      1  0.4916290000000  0.4701550000000  0.4847630000000 1.0
C      1  0.5191410000000  0.4799440000000  0.5216160000000 1.0
C      1  0.5202160000000  0.4916980000000  0.4223050000000 1.0
C      1  0.4455370000000  0.5171420000000  0.4789410000000 1.0
C      1  0.4844140000000  0.4452580000000  0.5200500000000 1.0
C      1  0.4812520000000  0.4825100000000  0.5497610000000 1.0
C      1  0.5137620000000  0.5166710000000  0.5528530000000 1.0
C      1  0.4801610000000  0.5140940000000  0.4400430000000 1.0
C      1  0.5509860000000  0.5150910000000  0.5189470000000 1.0
C      1  0.4493810000000  0.4800850000000  0.5121790000000 1.0
C      1  0.5564350000000  0.4819740000000  0.4879400000000 1.0
C      1  0.5154310000000  0.4498100000000  0.4870220000000 1.0
C      1  0.4866800000000  0.5464380000000  0.4771380000000 1.0
C      1  0.5163110000000  0.5472180000000  0.5159670000000 1.0
C      1  0.4339410000000  0.4929360000000  0.4907120000000 1.0
C      1  0.5071870000000  0.4309820000000  0.5075960000000 1.0
C      1  0.4922270000000  0.4906890000000  0.4257850000000 1.0
C      1  0.5695860000000  0.4928040000000  0.5119550000000 1.0
C      1  0.5020950000000  0.5635760000000  0.4964650000000 1.0
C      1  0.4914480000000  0.5037520000000  0.5661230000000 1.0
C      1  0.4998780000000  0.4641600000000  0.5370750000000 1.0
C      1  0.5018380000000  0.4942840000000  0.4990670000000 1.0
C      1  0.5008900000000  0.5264040000000  0.4598230000000 1.0
C      1  0.4994150000000  0.5304170000000  0.5312100000000 1.0
END
