TITL C-110365-4224-1 109.35138884502 125000 -711.682268951964 0 0 102 (C1) n - 1
REM
REM in /rds/project/t2_vol4/rds-t2-cs072/BORA/CARBON/from-Arr/AIRSS/Generating-Clusters/GAP-ML-2020/Higher-Symm/SD-CG/HFTN-CG
REM
REM
REM
REM
REM
REM ./C.cell (b20cbc046b6831c77cfcea5457e17084)
REM AIRSS Version 0.9.1 bugfix July 2018 build 013d7b7c2542+ Fri, 06 Jul 2018 19:26:36 +0100
REM compiler GCC version 9.3.0
REM options -cpp -mtune=generic -march=x86-64 -g -O0
REM seed -701782574 7949751 -1203927147 -752753628 1220951438 -1351861816 1940872166 -1861660077 -117674254 1350150301 485365180 1124321222 1335082822 -867953614 -281823481 1107267300 -2126517509 -1545979568 1916507340 -336027244 -2005900513 1609283525 741894342 -1608412128 274953595 831671733 -513478698 416376791 -1304650518 1193160112 849554487 1401333423 23580917
REM
CELL 1.54180   50.00000   50.00000   50.00000   90.00000   90.00000   90.00000
LATT -1
SFAC C  
C      1  0.4732790000000  0.5757960000000  0.5080550000000 1.0
C      1  0.4691820000000  0.4266060000000  0.5395020000000 1.0
C      1  0.5688900000000  0.4704190000000  0.4959260000000 1.0
C      1  0.5021170000000  0.5232450000000  0.4686450000000 1.0
C      1  0.5379380000000  0.5755650000000  0.5088540000000 1.0
C      1  0.4435700000000  0.4378850000000  0.5306380000000 1.0
C      1  0.5308030000000  0.4823040000000  0.4682120000000 1.0
C      1  0.5287380000000  0.5791690000000  0.5340970000000 1.0
C      1  0.5254320000000  0.5561840000000  0.5500330000000 1.0
C      1  0.4264290000000  0.5294010000000  0.4800450000000 1.0
C      1  0.4492880000000  0.5097950000000  0.5299630000000 1.0
C      1  0.4966540000000  0.5148930000000  0.5522960000000 1.0
C      1  0.5799750000000  0.5069810000000  0.5452170000000 1.0
C      1  0.4717170000000  0.4761460000000  0.4099300000000 1.0
C      1  0.5535410000000  0.5148260000000  0.5602150000000 1.0
C      1  0.4767180000000  0.4317290000000  0.4448780000000 1.0
C      1  0.5715090000000  0.4971350000000  0.4859390000000 1.0
C      1  0.4293760000000  0.5696400000000  0.5024760000000 1.0
C      1  0.4776610000000  0.4100440000000  0.5177010000000 1.0
C      1  0.4937730000000  0.5530550000000  0.5081680000000 1.0
C      1  0.5282510000000  0.5551500000000  0.4478460000000 1.0
C      1  0.5897220000000  0.4834370000000  0.5380770000000 1.0
C      1  0.4668580000000  0.5118110000000  0.5562300000000 1.0
C      1  0.4348430000000  0.4842410000000  0.5251150000000 1.0
C      1  0.4661760000000  0.5131600000000  0.5008320000000 1.0
C      1  0.5369640000000  0.4687400000000  0.4424140000000 1.0
C      1  0.4728380000000  0.5045660000000  0.4149540000000 1.0
C      1  0.4861280000000  0.5738610000000  0.4593240000000 1.0
C      1  0.4367450000000  0.4626250000000  0.5434870000000 1.0
C      1  0.5477920000000  0.5063070000000  0.4716080000000 1.0
C      1  0.5814220000000  0.5219520000000  0.4952720000000 1.0
C      1  0.5286630000000  0.4644630000000  0.5141710000000 1.0
C      1  0.5182230000000  0.5132240000000  0.5111780000000 1.0
C      1  0.5771100000000  0.4648780000000  0.5235060000000 1.0
C      1  0.5134440000000  0.5713590000000  0.4656550000000 1.0
C      1  0.4796790000000  0.5531890000000  0.4409520000000 1.0
C      1  0.4540820000000  0.5124580000000  0.4346670000000 1.0
C      1  0.4316160000000  0.4808040000000  0.4977070000000 1.0
C      1  0.5056570000000  0.4141200000000  0.5127790000000 1.0
C      1  0.5404820000000  0.4601230000000  0.4871050000000 1.0
C      1  0.4809690000000  0.5347380000000  0.4884640000000 1.0
C      1  0.4488030000000  0.5741320000000  0.5234090000000 1.0
C      1  0.5558070000000  0.5472790000000  0.4563550000000 1.0
C      1  0.4790130000000  0.4778450000000  0.4604310000000 1.0
C      1  0.5835410000000  0.5250370000000  0.5235730000000 1.0
C      1  0.4912020000000  0.4967970000000  0.5007340000000 1.0
C      1  0.5444360000000  0.4634300000000  0.5595070000000 1.0
C      1  0.5073360000000  0.4868030000000  0.5493680000000 1.0
C      1  0.4416580000000  0.5032410000000  0.4820240000000 1.0
C      1  0.4390460000000  0.4563270000000  0.4843320000000 1.0
C      1  0.4384100000000  0.4621750000000  0.4562160000000 1.0
C      1  0.5694170000000  0.5467680000000  0.4832720000000 1.0
C      1  0.5005630000000  0.4936590000000  0.4714670000000 1.0
C      1  0.5081210000000  0.4215380000000  0.4851490000000 1.0
C      1  0.5071200000000  0.5343270000000  0.5301180000000 1.0
C      1  0.4796660000000  0.4714610000000  0.5070890000000 1.0
C      1  0.4996230000000  0.5129140000000  0.4186080000000 1.0
C      1  0.5367830000000  0.4924380000000  0.5207060000000 1.0
C      1  0.4212480000000  0.5427840000000  0.5045100000000 1.0
C      1  0.4726510000000  0.4581330000000  0.4819690000000 1.0
C      1  0.5321690000000  0.4860980000000  0.5965860000000 1.0
C      1  0.5591160000000  0.5202760000000  0.4471510000000 1.0
C      1  0.5080780000000  0.5523770000000  0.5751760000000 1.0
C      1  0.5112200000000  0.5240860000000  0.5771540000000 1.0
C      1  0.4516630000000  0.4592220000000  0.4143430000000 1.0
C      1  0.5157610000000  0.4264520000000  0.5367920000000 1.0
C      1  0.5357620000000  0.5099200000000  0.5836890000000 1.0
C      1  0.4965340000000  0.4660370000000  0.5682500000000 1.0
C      1  0.5639040000000  0.4489150000000  0.5427700000000 1.0
C      1  0.4675090000000  0.5813180000000  0.4793910000000 1.0
C      1  0.4507990000000  0.4915810000000  0.4562150000000 1.0
C      1  0.4439010000000  0.5535560000000  0.5443940000000 1.0
C      1  0.5044410000000  0.5355790000000  0.4394350000000 1.0
C      1  0.4408160000000  0.5729800000000  0.4758880000000 1.0
C      1  0.5269150000000  0.5272240000000  0.4864580000000 1.0
C      1  0.5693000000000  0.5482490000000  0.5299940000000 1.0
C      1  0.4312340000000  0.5329960000000  0.5294590000000 1.0
C      1  0.5000990000000  0.4417040000000  0.4312320000000 1.0
C      1  0.5510020000000  0.5421300000000  0.5507500000000 1.0
C      1  0.4403760000000  0.4330230000000  0.5027400000000 1.0
C      1  0.4523440000000  0.4456090000000  0.4376450000000 1.0
C      1  0.4479510000000  0.4672990000000  0.5682970000000 1.0
C      1  0.5246250000000  0.4433310000000  0.4450860000000 1.0
C      1  0.4695180000000  0.4823870000000  0.5716140000000 1.0
C      1  0.5291030000000  0.4361360000000  0.4726340000000 1.0
C      1  0.5433580000000  0.4856750000000  0.4201310000000 1.0
C      1  0.5183680000000  0.5623360000000  0.4925550000000 1.0
C      1  0.4930360000000  0.4423420000000  0.5475420000000 1.0
C      1  0.4814300000000  0.5557850000000  0.5769240000000 1.0
C      1  0.5379400000000  0.4446480000000  0.5348300000000 1.0
C      1  0.5374110000000  0.4904910000000  0.5493980000000 1.0
C      1  0.5243470000000  0.4634380000000  0.5835880000000 1.0
C      1  0.5613900000000  0.5060640000000  0.4241760000000 1.0
C      1  0.4624070000000  0.4157950000000  0.4948180000000 1.0
C      1  0.5629490000000  0.5627160000000  0.5060260000000 1.0
C      1  0.5150490000000  0.4879390000000  0.4151130000000 1.0
C      1  0.4999890000000  0.4667790000000  0.5253120000000 1.0
C      1  0.4613160000000  0.5422280000000  0.5647290000000 1.0
C      1  0.4541580000000  0.5401050000000  0.4412350000000 1.0
C      1  0.4359740000000  0.5487660000000  0.4611710000000 1.0
C      1  0.4804170000000  0.4278620000000  0.4744250000000 1.0
C      1  0.4976210000000  0.4654310000000  0.4139130000000 1.0
END
