TITL C-110355-4570-5 3322.62197181013 125000 -1182.82868469318 0 0 166 (S4) n - 1
REM
REM in /rds/project/t2_vol4/rds-t2-cs072/BORA/CARBON/from-Arr/AIRSS/Generating-Clusters/GAP-ML-2020/Higher-Symm/SD-CG/HFTN-CG
REM
REM
REM
REM
REM
REM ./C.cell (b20cbc046b6831c77cfcea5457e17084)
REM AIRSS Version 0.9.1 bugfix July 2018 build 013d7b7c2542+ Fri, 06 Jul 2018 19:26:36 +0100
REM compiler GCC version 9.3.0
REM options -cpp -mtune=generic -march=x86-64 -g -O0
REM seed 707766582 -467485177 1859046186 -1045731131 -1975587732 -925967652 351919548 -952051231 -1964671504 -701724776 -2065998605 1772431106 440856235 364513566 -9721973 1158086239 -1748740935 -1284687289 -1182179527 -2146680656 -532344465 -191736034 509468405 1740292859 -949599112 -1654928068 524394792 1360583608 1590485054 820951017 -723905556 2036566189 -103313700
REM
CELL 1.54180   50.00000   50.00000   50.00000   90.00000   90.00000   90.00000
LATT -1
SFAC C  
C      1  0.5432470000000  0.4505040000000  0.4154210000000 1.0
C      1  0.4467140000000  0.4577600000000  0.5828620000000 1.0
C      1  0.4617430000000  0.5517750000000  0.4145080000000 1.0
C      1  0.5479110000000  0.5392450000000  0.5872090000000 1.0
C      1  0.5281250000000  0.4289400000000  0.5678780000000 1.0
C      1  0.4321880000000  0.4706040000000  0.4293670000000 1.0
C      1  0.4675370000000  0.5685930000000  0.5681970000000 1.0
C      1  0.5717650000000  0.5311470000000  0.4345580000000 1.0
C      1  0.4221020000000  0.4804940000000  0.5453880000000 1.0
C      1  0.4827540000000  0.5769390000000  0.4526150000000 1.0
C      1  0.5747790000000  0.5176590000000  0.5506160000000 1.0
C      1  0.5199780000000  0.4241920000000  0.4513810000000 1.0
C      1  0.5073810000000  0.4611530000000  0.6058220000000 1.0
C      1  0.4661290000000  0.4907710000000  0.3926370000000 1.0
C      1  0.4859630000000  0.5352000000000  0.6063170000000 1.0
C      1  0.5401410000000  0.5121600000000  0.3952240000000 1.0
C      1  0.5008880000000  0.5208150000000  0.5444930000000 1.0
C      1  0.5229180000000  0.4981660000000  0.4565380000000 1.0
C      1  0.4962330000000  0.4774600000000  0.5436780000000 1.0
C      1  0.4795760000000  0.5028430000000  0.4552900000000 1.0
C      1  0.5213660000000  0.4409560000000  0.5228410000000 1.0
C      1  0.4421300000000  0.4780340000000  0.4748020000000 1.0
C      1  0.4770360000000  0.5579700000000  0.5233050000000 1.0
C      1  0.5590830000000  0.5223240000000  0.4790520000000 1.0
C      1  0.5151700000000  0.5156960000000  0.5001660000000 1.0
C      1  0.5157550000000  0.4845490000000  0.5007910000000 1.0
C      1  0.4846700000000  0.4839630000000  0.4987450000000 1.0
C      1  0.4840190000000  0.5150760000000  0.5002970000000 1.0
C      1  0.5978480000000  0.4482110000000  0.5018560000000 1.0
C      1  0.4483430000000  0.4018720000000  0.4972380000000 1.0
C      1  0.4019790000000  0.5514410000000  0.4974890000000 1.0
C      1  0.5514440000000  0.5977600000000  0.5034170000000 1.0
C      1  0.4649640000000  0.4418360000000  0.5289150000000 1.0
C      1  0.4433400000000  0.5343380000000  0.4679330000000 1.0
C      1  0.5329630000000  0.5568500000000  0.5327700000000 1.0
C      1  0.5583460000000  0.4662610000000  0.4703820000000 1.0
C      1  0.5106790000000  0.4485670000000  0.4716130000000 1.0
C      1  0.4473900000000  0.4894840000000  0.5261600000000 1.0
C      1  0.4908280000000  0.5519400000000  0.4726110000000 1.0
C      1  0.5507180000000  0.5092940000000  0.5296160000000 1.0
C      1  0.5731140000000  0.4557290000000  0.5194090000000 1.0
C      1  0.4566810000000  0.4263380000000  0.4796810000000 1.0
C      1  0.4256060000000  0.5433600000000  0.5162740000000 1.0
C      1  0.5442130000000  0.5738570000000  0.4846360000000 1.0
C      1  0.5230650000000  0.5693810000000  0.5076200000000 1.0
C      1  0.5697180000000  0.4765310000000  0.4959300000000 1.0
C      1  0.4763860000000  0.4300810000000  0.5040380000000 1.0
C      1  0.4304440000000  0.5232920000000  0.4924110000000 1.0
C      1  0.4904550000000  0.5768810000000  0.5474480000000 1.0
C      1  0.5790700000000  0.5085400000000  0.4560060000000 1.0
C      1  0.5065190000000  0.4213200000000  0.5455260000000 1.0
C      1  0.4235700000000  0.4925440000000  0.4510200000000 1.0
C      1  0.4535030000000  0.4697360000000  0.4076250000000 1.0
C      1  0.4656510000000  0.5476060000000  0.5901920000000 1.0
C      1  0.5518120000000  0.5327090000000  0.4115970000000 1.0
C      1  0.5286490000000  0.4492330000000  0.5905860000000 1.0
C      1  0.5830910000000  0.4284570000000  0.4880570000000 1.0
C      1  0.4279890000000  0.4168390000000  0.5098930000000 1.0
C      1  0.4175310000000  0.5716000000000  0.4852320000000 1.0
C      1  0.5710040000000  0.5823890000000  0.5168180000000 1.0
C      1  0.5329240000000  0.5298650000000  0.6100070000000 1.0
C      1  0.5349380000000  0.4651510000000  0.3919950000000 1.0
C      1  0.4602780000000  0.4664150000000  0.6068090000000 1.0
C      1  0.4714760000000  0.5378530000000  0.3911880000000 1.0
C      1  0.5624560000000  0.4724010000000  0.4223620000000 1.0
C      1  0.4688890000000  0.4384440000000  0.5772220000000 1.0
C      1  0.4421670000000  0.5296910000000  0.4195860000000 1.0
C      1  0.5261020000000  0.5587470000000  0.5808300000000 1.0
C      1  0.5081740000000  0.4889590000000  0.6153950000000 1.0
C      1  0.4943450000000  0.4898280000000  0.3843640000000 1.0
C      1  0.4846150000000  0.5071110000000  0.6149590000000 1.0
C      1  0.5124810000000  0.5133860000000  0.3852820000000 1.0
C      1  0.5637400000000  0.4137180000000  0.5045550000000 1.0
C      1  0.4140420000000  0.4359440000000  0.4924490000000 1.0
C      1  0.4358270000000  0.5858010000000  0.5033250000000 1.0
C      1  0.5860050000000  0.5638200000000  0.4996710000000 1.0
C      1  0.4346870000000  0.4348920000000  0.5303020000000 1.0
C      1  0.4364960000000  0.5645930000000  0.4657770000000 1.0
C      1  0.5630940000000  0.5637190000000  0.5362120000000 1.0
C      1  0.5653380000000  0.4360800000000  0.4677100000000 1.0
C      1  0.4805470000000  0.6080580000000  0.5025240000000 1.0
C      1  0.6081600000000  0.5191120000000  0.5021610000000 1.0
C      1  0.5191730000000  0.3915400000000  0.5003440000000 1.0
C      1  0.3917350000000  0.4805740000000  0.4949700000000 1.0
C      1  0.5920110000000  0.4944900000000  0.5425740000000 1.0
C      1  0.4964480000000  0.4070870000000  0.4586070000000 1.0
C      1  0.4053700000000  0.5039180000000  0.5370330000000 1.0
C      1  0.5057850000000  0.5937890000000  0.4617860000000 1.0
C      1  0.4721430000000  0.4780780000000  0.4708850000000 1.0
C      1  0.4768720000000  0.5280190000000  0.5276680000000 1.0
C      1  0.5293640000000  0.5224290000000  0.4733160000000 1.0
C      1  0.5212340000000  0.4707580000000  0.5281310000000 1.0
C      1  0.6023800000000  0.5034740000000  0.4776390000000 1.0
C      1  0.5024300000000  0.3976890000000  0.5240340000000 1.0
C      1  0.3989820000000  0.4969600000000  0.4713410000000 1.0
C      1  0.4958230000000  0.6011620000000  0.5269870000000 1.0
C      1  0.5711290000000  0.4814210000000  0.4477290000000 1.0
C      1  0.4790570000000  0.4293900000000  0.5524290000000 1.0
C      1  0.4319750000000  0.5198980000000  0.4440860000000 1.0
C      1  0.5174540000000  0.5685750000000  0.5557570000000 1.0
C      1  0.4331770000000  0.4810920000000  0.5730460000000 1.0
C      1  0.4846110000000  0.5654520000000  0.4251820000000 1.0
C      1  0.5620430000000  0.5162160000000  0.5775170000000 1.0
C      1  0.5197840000000  0.4365250000000  0.4242550000000 1.0
C      1  0.4430090000000  0.5666690000000  0.5545040000000 1.0
C      1  0.5692370000000  0.5558780000000  0.4477800000000 1.0
C      1  0.5534390000000  0.4312630000000  0.5557700000000 1.0
C      1  0.4339300000000  0.4454740000000  0.4419460000000 1.0
C      1  0.4522510000000  0.5158640000000  0.5368830000000 1.0
C      1  0.5176670000000  0.5469130000000  0.4631850000000 1.0
C      1  0.5452380000000  0.4825990000000  0.5392010000000 1.0
C      1  0.4844580000000  0.4539090000000  0.4607310000000 1.0
C      1  0.5531230000000  0.4930730000000  0.5935160000000 1.0
C      1  0.4974090000000  0.4452100000000  0.4070790000000 1.0
C      1  0.4410850000000  0.5037190000000  0.5902660000000 1.0
C      1  0.5079990000000  0.5572820000000  0.4091390000000 1.0
C      1  0.4421460000000  0.5320000000000  0.5851140000000 1.0
C      1  0.5360120000000  0.5562910000000  0.4156010000000 1.0
C      1  0.5524040000000  0.4649660000000  0.5874340000000 1.0
C      1  0.4690530000000  0.4460260000000  0.4118510000000 1.0
C      1  0.5114130000000  0.5470870000000  0.6040200000000 1.0
C      1  0.5518870000000  0.4867450000000  0.3984440000000 1.0
C      1  0.4821290000000  0.4493670000000  0.6016130000000 1.0
C      1  0.4541860000000  0.5160850000000  0.3959220000000 1.0
C      1  0.5074670000000  0.4651990000000  0.3889720000000 1.0
C      1  0.4602120000000  0.4939290000000  0.6094210000000 1.0
C      1  0.4990800000000  0.5378720000000  0.3898430000000 1.0
C      1  0.5328560000000  0.5022840000000  0.6117640000000 1.0
C      1  0.5616720000000  0.5041450000000  0.5024690000000 1.0
C      1  0.5042790000000  0.4380210000000  0.4986550000000 1.0
C      1  0.4381030000000  0.4954810000000  0.4985700000000 1.0
C      1  0.4955600000000  0.5616370000000  0.5003060000000 1.0
C      1  0.5988050000000  0.5431580000000  0.5146680000000 1.0
C      1  0.5437770000000  0.4007000000000  0.4888180000000 1.0
C      1  0.4003330000000  0.4561440000000  0.5072710000000 1.0
C      1  0.4566990000000  0.5992820000000  0.4892430000000 1.0
C      1  0.5293610000000  0.5762260000000  0.4597630000000 1.0
C      1  0.5743520000000  0.4709510000000  0.5441390000000 1.0
C      1  0.4730220000000  0.4247270000000  0.4556980000000 1.0
C      1  0.4228790000000  0.5273800000000  0.5403990000000 1.0
C      1  0.5041110000000  0.6075550000000  0.4858950000000 1.0
C      1  0.6068720000000  0.4957990000000  0.5191000000000 1.0
C      1  0.4966640000000  0.3925790000000  0.4823350000000 1.0
C      1  0.3919670000000  0.5033500000000  0.5126690000000 1.0
C      1  0.5450280000000  0.4158270000000  0.4642510000000 1.0
C      1  0.4143140000000  0.4552570000000  0.5325230000000 1.0
C      1  0.4569600000000  0.5849250000000  0.4641900000000 1.0
C      1  0.5833120000000  0.5432760000000  0.5390370000000 1.0
C      1  0.5532130000000  0.4327320000000  0.5253660000000 1.0
C      1  0.4340010000000  0.4461540000000  0.4723780000000 1.0
C      1  0.4450860000000  0.5661420000000  0.5241400000000 1.0
C      1  0.5673140000000  0.5542560000000  0.4781160000000 1.0
C      1  0.4562230000000  0.4311720000000  0.4324840000000 1.0
C      1  0.4282660000000  0.5445230000000  0.5636310000000 1.0
C      1  0.5475480000000  0.5704870000000  0.4374260000000 1.0
C      1  0.5675770000000  0.4531020000000  0.5664590000000 1.0
C      1  0.5275020000000  0.4734080000000  0.4740810000000 1.0
C      1  0.4723020000000  0.4726200000000  0.5250870000000 1.0
C      1  0.4739090000000  0.5270500000000  0.4732800000000 1.0
C      1  0.5259010000000  0.5262060000000  0.5275510000000 1.0
C      1  0.4777110000000  0.3992190000000  0.5057820000000 1.0
C      1  0.3996950000000  0.5219490000000  0.4892720000000 1.0
C      1  0.5216080000000  0.6001740000000  0.5102350000000 1.0
C      1  0.6006000000000  0.4779420000000  0.4947110000000 1.0
C      1  0.4980570000000  0.4988810000000  0.5606150000000 1.0
C      1  0.5017500000000  0.5007610000000  0.4393850000000 1.0
END
