TITL C-110360-4485-3 -12.8237491348506 125000 -717.1058239101 0 0 106 (C1) n - 1
REM
REM in /rds/project/t2_vol4/rds-t2-cs072/BORA/CARBON/from-Arr/AIRSS/Generating-Clusters/GAP-ML-2020/Higher-Symm/SD-CG/HFTN-CG
REM
REM
REM
REM
REM
REM ./C.cell (b20cbc046b6831c77cfcea5457e17084)
REM AIRSS Version 0.9.1 bugfix July 2018 build 013d7b7c2542+ Fri, 06 Jul 2018 19:26:36 +0100
REM compiler GCC version 9.3.0
REM options -cpp -mtune=generic -march=x86-64 -g -O0
REM seed -1140734351 1895066971 -37670872 654686922 -1587465441 1715770744 -1513833671 134020136 -127635082 1658087504 992776913 1193360814 -1088563133 -214923711 645195149 -2083654892 599616212 -1065600041 1703167242 976548347 209346339 -1748729393 -1983786410 -789091953 -825169407 2023625997 -1222286656 974045348 -622197374 1153111844 -1573373618 -1810258013 1142341355
REM
CELL 1.54180   50.00000   50.00000   50.00000   90.00000   90.00000   90.00000
LATT -1
SFAC C  
C      1  0.5279010000000  0.5544790000000  0.5337940000000 1.0
C      1  0.5287440000000  0.5391950000000  0.4534340000000 1.0
C      1  0.5364900000000  0.4399780000000  0.4607960000000 1.0
C      1  0.5389480000000  0.4567160000000  0.5567370000000 1.0
C      1  0.4587320000000  0.5552910000000  0.5418560000000 1.0
C      1  0.4605470000000  0.5399880000000  0.4451670000000 1.0
C      1  0.4614390000000  0.4427580000000  0.4597810000000 1.0
C      1  0.4636080000000  0.4595070000000  0.5548000000000 1.0
C      1  0.4184360000000  0.5344430000000  0.5012970000000 1.0
C      1  0.4158000000000  0.4989360000000  0.4613640000000 1.0
C      1  0.4167750000000  0.4601460000000  0.4988190000000 1.0
C      1  0.4176530000000  0.4980480000000  0.5365540000000 1.0
C      1  0.5839810000000  0.5384690000000  0.5013850000000 1.0
C      1  0.5819840000000  0.5004760000000  0.4623010000000 1.0
C      1  0.5818800000000  0.4600230000000  0.4976970000000 1.0
C      1  0.5849640000000  0.4965810000000  0.5366310000000 1.0
C      1  0.4163590000000  0.5252680000000  0.4726890000000 1.0
C      1  0.4171410000000  0.4714420000000  0.4731100000000 1.0
C      1  0.4197020000000  0.4727870000000  0.5253270000000 1.0
C      1  0.4151740000000  0.5264210000000  0.5283300000000 1.0
C      1  0.5802360000000  0.5266090000000  0.4741010000000 1.0
C      1  0.5813060000000  0.4706540000000  0.4711860000000 1.0
C      1  0.5824590000000  0.4706470000000  0.5254390000000 1.0
C      1  0.5817580000000  0.5237390000000  0.5256860000000 1.0
C      1  0.5144320000000  0.4659870000000  0.3898150000000 1.0
C      1  0.5123570000000  0.3872010000000  0.5369980000000 1.0
C      1  0.5142290000000  0.5362080000000  0.6075640000000 1.0
C      1  0.5107340000000  0.6120800000000  0.4639160000000 1.0
C      1  0.4865770000000  0.4652000000000  0.3895710000000 1.0
C      1  0.4843770000000  0.3881300000000  0.5365550000000 1.0
C      1  0.4863270000000  0.5353050000000  0.6097140000000 1.0
C      1  0.4826720000000  0.6115420000000  0.4653290000000 1.0
C      1  0.5390390000000  0.4782850000000  0.5155670000000 1.0
C      1  0.5316410000000  0.5274290000000  0.5247890000000 1.0
C      1  0.5366330000000  0.5209330000000  0.4948600000000 1.0
C      1  0.5405660000000  0.4853650000000  0.4667570000000 1.0
C      1  0.4652740000000  0.4747240000000  0.5129340000000 1.0
C      1  0.4608930000000  0.5030660000000  0.5207190000000 1.0
C      1  0.4593780000000  0.5309310000000  0.4827530000000 1.0
C      1  0.4594960000000  0.4826490000000  0.4831780000000 1.0
C      1  0.4572390000000  0.4295410000000  0.4862270000000 1.0
C      1  0.4599320000000  0.4863790000000  0.5659710000000 1.0
C      1  0.4563100000000  0.5685770000000  0.5153950000000 1.0
C      1  0.4574870000000  0.5129530000000  0.4325220000000 1.0
C      1  0.5404510000000  0.4288650000000  0.4877600000000 1.0
C      1  0.5440210000000  0.4838290000000  0.5684550000000 1.0
C      1  0.5411590000000  0.5714680000000  0.5134000000000 1.0
C      1  0.5401200000000  0.5179860000000  0.4329260000000 1.0
C      1  0.5139910000000  0.3846740000000  0.5057520000000 1.0
C      1  0.5159900000000  0.5054990000000  0.6098890000000 1.0
C      1  0.5125600000000  0.6133710000000  0.4944650000000 1.0
C      1  0.5153850000000  0.4970270000000  0.3898860000000 1.0
C      1  0.4835850000000  0.3854080000000  0.5052990000000 1.0
C      1  0.4868900000000  0.5039520000000  0.6108240000000 1.0
C      1  0.4832220000000  0.6123930000000  0.4961970000000 1.0
C      1  0.4856280000000  0.4973260000000  0.3884780000000 1.0
C      1  0.5110220000000  0.5627030000000  0.4518670000000 1.0
C      1  0.5135650000000  0.4466900000000  0.4428320000000 1.0
C      1  0.5156150000000  0.4394510000000  0.5540560000000 1.0
C      1  0.5111550000000  0.5515600000000  0.5582020000000 1.0
C      1  0.4811870000000  0.5619880000000  0.4502850000000 1.0
C      1  0.4843030000000  0.4461270000000  0.4417630000000 1.0
C      1  0.4859300000000  0.4409140000000  0.5527450000000 1.0
C      1  0.4811820000000  0.5505370000000  0.5604990000000 1.0
C      1  0.4829160000000  0.4681680000000  0.4209780000000 1.0
C      1  0.4831440000000  0.4195830000000  0.5320130000000 1.0
C      1  0.4738560000000  0.5334540000000  0.5827790000000 1.0
C      1  0.4722290000000  0.5835700000000  0.4671240000000 1.0
C      1  0.5167940000000  0.4686540000000  0.4222710000000 1.0
C      1  0.5165780000000  0.4182270000000  0.5329180000000 1.0
C      1  0.5232230000000  0.5335380000000  0.5782780000000 1.0
C      1  0.5226580000000  0.5849560000000  0.4655910000000 1.0
C      1  0.5594210000000  0.4424620000000  0.5047310000000 1.0
C      1  0.5631510000000  0.5009080000000  0.5559230000000 1.0
C      1  0.5623500000000  0.5582700000000  0.4974240000000 1.0
C      1  0.5573760000000  0.5015340000000  0.4481670000000 1.0
C      1  0.4381960000000  0.4411530000000  0.5045480000000 1.0
C      1  0.4452990000000  0.5046440000000  0.5469510000000 1.0
C      1  0.4419860000000  0.5512370000000  0.4972170000000 1.0
C      1  0.4397530000000  0.4942820000000  0.4456940000000 1.0
C      1  0.5282500000000  0.5888250000000  0.4946690000000 1.0
C      1  0.5268490000000  0.4991120000000  0.4164780000000 1.0
C      1  0.5252370000000  0.4118900000000  0.5043330000000 1.0
C      1  0.5297100000000  0.5036430000000  0.5840070000000 1.0
C      1  0.4704300000000  0.5860680000000  0.4976200000000 1.0
C      1  0.4739400000000  0.4975230000000  0.4155200000000 1.0
C      1  0.4731680000000  0.4124270000000  0.5024950000000 1.0
C      1  0.4724690000000  0.5031740000000  0.5851100000000 1.0
C      1  0.4853480000000  0.5182350000000  0.5170650000000 1.0
C      1  0.4874080000000  0.5208490000000  0.4887050000000 1.0
C      1  0.4889460000000  0.4891570000000  0.4812980000000 1.0
C      1  0.4941980000000  0.4721860000000  0.5056380000000 1.0
C      1  0.5085240000000  0.5098260000000  0.5302200000000 1.0
C      1  0.5141990000000  0.5224130000000  0.4750650000000 1.0
C      1  0.5117600000000  0.4941330000000  0.4645590000000 1.0
C      1  0.5127560000000  0.4827260000000  0.5233100000000 1.0
C      1  0.5555730000000  0.4614010000000  0.4591560000000 1.0
C      1  0.5553240000000  0.4575640000000  0.5303220000000 1.0
C      1  0.5568490000000  0.5251410000000  0.5407430000000 1.0
C      1  0.5530980000000  0.5408160000000  0.4753490000000 1.0
C      1  0.4448710000000  0.4682400000000  0.4610280000000 1.0
C      1  0.4459730000000  0.4577060000000  0.5294390000000 1.0
C      1  0.4385380000000  0.5346230000000  0.5446790000000 1.0
C      1  0.4391670000000  0.5417130000000  0.4636540000000 1.0
C      1  0.4465700000000  0.5073530000000  0.4942300000000 1.0
C      1  0.5467060000000  0.4938760000000  0.4939850000000 1.0
END
