TITL C-111517-4257-3 -0.163547844070827 125000 -449.074867406421 0 0 63 (C1) n - 1
REM
REM in /rds/project/t2_vol4/rds-t2-cs072/BORA/CARBON/from-Arr/AIRSS/Generating-Clusters/GAP-ML-2020/Higher-Symm/SD-CG/HFTN-CG
REM
REM
REM
REM
REM
REM ./C.cell (b20cbc046b6831c77cfcea5457e17084)
REM AIRSS Version 0.9.1 bugfix July 2018 build 013d7b7c2542+ Fri, 06 Jul 2018 19:26:36 +0100
REM compiler GCC version 9.3.0
REM options -cpp -mtune=generic -march=x86-64 -g -O0
REM seed 122318141 -199739919 -748959086 1922441231 -166036030 -1612064760 -272944037 -1927977824 -2048749980 -1805606372 140492949 1710939805 -737555509 -663610617 715060166 -1565020658 -1854894218 1991835730 1902458465 1314026338 -221170176 1086436462 -1504004980 -818491220 -1239324498 -572790598 622800302 326992712 -1647713187 -373230394 -727233809 691407860 -2135426742
REM
CELL 1.54180   50.00000   50.00000   50.00000   90.00000   90.00000   90.00000
LATT -1
SFAC C  
C      1  0.4732670000000  0.5418020000000  0.5578070000000 1.0
C      1  0.5420700000000  0.5404800000000  0.5421580000000 1.0
C      1  0.5489720000000  0.5365840000000  0.4697120000000 1.0
C      1  0.4854510000000  0.5404860000000  0.4391780000000 1.0
C      1  0.4407900000000  0.5381830000000  0.4946640000000 1.0
C      1  0.5266630000000  0.4719880000000  0.5608070000000 1.0
C      1  0.5529370000000  0.4613310000000  0.4738600000000 1.0
C      1  0.5081600000000  0.4732660000000  0.4419180000000 1.0
C      1  0.4536220000000  0.4703430000000  0.4732790000000 1.0
C      1  0.4608210000000  0.4728320000000  0.5424820000000 1.0
C      1  0.5098060000000  0.4217840000000  0.4525940000000 1.0
C      1  0.4805380000000  0.4287700000000  0.4921940000000 1.0
C      1  0.4869950000000  0.4326050000000  0.5211990000000 1.0
C      1  0.5158450000000  0.4300710000000  0.5256960000000 1.0
C      1  0.5273410000000  0.4246090000000  0.4989900000000 1.0
C      1  0.5531580000000  0.4864600000000  0.4619330000000 1.0
C      1  0.4842620000000  0.4905720000000  0.4332950000000 1.0
C      1  0.4415840000000  0.4878870000000  0.4945980000000 1.0
C      1  0.4729540000000  0.4912240000000  0.5630600000000 1.0
C      1  0.5476950000000  0.4917440000000  0.5522430000000 1.0
C      1  0.5007850000000  0.5419140000000  0.5633170000000 1.0
C      1  0.5528240000000  0.5368900000000  0.5161230000000 1.0
C      1  0.5312370000000  0.5398160000000  0.4477340000000 1.0
C      1  0.4606470000000  0.5395950000000  0.4523110000000 1.0
C      1  0.4433380000000  0.5392790000000  0.5224430000000 1.0
C      1  0.4632430000000  0.5559070000000  0.5344930000000 1.0
C      1  0.5182280000000  0.5566380000000  0.5452450000000 1.0
C      1  0.5445780000000  0.5523220000000  0.4936470000000 1.0
C      1  0.5071260000000  0.5554370000000  0.4515860000000 1.0
C      1  0.4565090000000  0.5543270000000  0.4768410000000 1.0
C      1  0.5245330000000  0.5161020000000  0.4330310000000 1.0
C      1  0.4484560000000  0.5137650000000  0.4556710000000 1.0
C      1  0.4423570000000  0.5145220000000  0.5365910000000 1.0
C      1  0.5140160000000  0.5179320000000  0.5720180000000 1.0
C      1  0.5590960000000  0.5105120000000  0.5068630000000 1.0
C      1  0.4734030000000  0.4499530000000  0.5368660000000 1.0
C      1  0.5251550000000  0.4539270000000  0.5386930000000 1.0
C      1  0.5472410000000  0.4410260000000  0.4877610000000 1.0
C      1  0.5093940000000  0.4453230000000  0.4432940000000 1.0
C      1  0.4637930000000  0.4454840000000  0.4778520000000 1.0
C      1  0.5339640000000  0.4907630000000  0.4395200000000 1.0
C      1  0.4598840000000  0.4888500000000  0.4492010000000 1.0
C      1  0.4438470000000  0.4889180000000  0.5239750000000 1.0
C      1  0.5028220000000  0.4916900000000  0.5645770000000 1.0
C      1  0.5504680000000  0.4890810000000  0.5236620000000 1.0
C      1  0.4370970000000  0.5129320000000  0.4820680000000 1.0
C      1  0.4606000000000  0.5159920000000  0.5589980000000 1.0
C      1  0.5406400000000  0.5178540000000  0.5599070000000 1.0
C      1  0.5582710000000  0.5103670000000  0.4778110000000 1.0
C      1  0.4956250000000  0.5160150000000  0.4281870000000 1.0
C      1  0.4962890000000  0.5244090000000  0.4972340000000 1.0
C      1  0.4912750000000  0.5160310000000  0.5208480000000 1.0
C      1  0.5051910000000  0.4962440000000  0.5311900000000 1.0
C      1  0.5217160000000  0.4763990000000  0.5179140000000 1.0
C      1  0.5047530000000  0.4844940000000  0.4742180000000 1.0
C      1  0.5220220000000  0.5687900000000  0.4970230000000 1.0
C      1  0.5027620000000  0.5694190000000  0.4757110000000 1.0
C      1  0.4769640000000  0.5696810000000  0.4885210000000 1.0
C      1  0.4802450000000  0.5703220000000  0.5172200000000 1.0
C      1  0.5083560000000  0.5700470000000  0.5225000000000 1.0
C      1  0.5057700000000  0.4193350000000  0.4805610000000 1.0
C      1  0.5013140000000  0.5110130000000  0.4761630000000 1.0
C      1  0.5089190000000  0.4678390000000  0.4941500000000 1.0
END
