TITL C-110355-4570-3 -0.241337521608179 125000 -594.277713238203 0 0 84 (C1) n - 1
REM
REM in /rds/project/t2_vol4/rds-t2-cs072/BORA/CARBON/from-Arr/AIRSS/Generating-Clusters/GAP-ML-2020/Higher-Symm/SD-CG/HFTN-CG
REM
REM
REM
REM
REM
REM ./C.cell (b20cbc046b6831c77cfcea5457e17084)
REM AIRSS Version 0.9.1 bugfix July 2018 build 013d7b7c2542+ Fri, 06 Jul 2018 19:26:36 +0100
REM compiler GCC version 9.3.0
REM options -cpp -mtune=generic -march=x86-64 -g -O0
REM seed 1179320312 -158763804 -1944294393 -1124538640 -1662388029 1156221784 119120073 977371955 276069685 -1312748823 1894379550 -727679815 -826625224 294005049 282942587 43823145 -2054722342 1551155220 -1797379988 -1684991076 1756307264 1242140245 781698674 2138833236 1761551840 1718036618 -330657794 140850706 195746132 444738221 -1084144784 1521746464 -1794184196
REM
CELL 1.54180   50.00000   50.00000   50.00000   90.00000   90.00000   90.00000
LATT -1
SFAC C  
C      1  0.5247000000000  0.5638400000000  0.4933480000000 1.0
C      1  0.5215060000000  0.5578970000000  0.5671080000000 1.0
C      1  0.5245550000000  0.4750180000000  0.5794950000000 1.0
C      1  0.5212380000000  0.4280260000000  0.5088570000000 1.0
C      1  0.5280300000000  0.4547510000000  0.4352750000000 1.0
C      1  0.5251510000000  0.5265590000000  0.4170580000000 1.0
C      1  0.4725250000000  0.4294470000000  0.4817230000000 1.0
C      1  0.4719460000000  0.4620740000000  0.5561720000000 1.0
C      1  0.4769420000000  0.5294310000000  0.5838410000000 1.0
C      1  0.4727690000000  0.5753250000000  0.5161210000000 1.0
C      1  0.4758290000000  0.5430600000000  0.4417700000000 1.0
C      1  0.4798460000000  0.4752010000000  0.4145730000000 1.0
C      1  0.5289060000000  0.4784340000000  0.4185610000000 1.0
C      1  0.5252270000000  0.5470680000000  0.4367550000000 1.0
C      1  0.5225890000000  0.5700040000000  0.5214200000000 1.0
C      1  0.5261630000000  0.5341990000000  0.5824180000000 1.0
C      1  0.5223880000000  0.4499310000000  0.5646070000000 1.0
C      1  0.5204670000000  0.4183510000000  0.4808410000000 1.0
C      1  0.4763410000000  0.5221220000000  0.4219350000000 1.0
C      1  0.4773110000000  0.4519100000000  0.4307190000000 1.0
C      1  0.4741090000000  0.4248200000000  0.5103090000000 1.0
C      1  0.4751410000000  0.4835200000000  0.5744770000000 1.0
C      1  0.4723650000000  0.5533450000000  0.5687660000000 1.0
C      1  0.4768320000000  0.5772170000000  0.4875380000000 1.0
C      1  0.4598940000000  0.5084980000000  0.5740840000000 1.0
C      1  0.4536570000000  0.4366570000000  0.5232420000000 1.0
C      1  0.4551630000000  0.4580840000000  0.4481770000000 1.0
C      1  0.4625650000000  0.4964430000000  0.4241800000000 1.0
C      1  0.4545930000000  0.5696090000000  0.4735590000000 1.0
C      1  0.4510330000000  0.5472170000000  0.5502070000000 1.0
C      1  0.5477090000000  0.5198370000000  0.5693180000000 1.0
C      1  0.5381680000000  0.5578640000000  0.5434530000000 1.0
C      1  0.5463840000000  0.5400880000000  0.4539510000000 1.0
C      1  0.5431300000000  0.5041910000000  0.4242070000000 1.0
C      1  0.5430380000000  0.4289400000000  0.4700150000000 1.0
C      1  0.5428370000000  0.4436470000000  0.5475260000000 1.0
C      1  0.4946060000000  0.5117700000000  0.4998690000000 1.0
C      1  0.4888570000000  0.5211670000000  0.5274990000000 1.0
C      1  0.5270370000000  0.4928130000000  0.5378230000000 1.0
C      1  0.5210240000000  0.4596340000000  0.5019890000000 1.0
C      1  0.4983050000000  0.4684120000000  0.4835900000000 1.0
C      1  0.5094770000000  0.5057890000000  0.4579890000000 1.0
C      1  0.4898980000000  0.4839010000000  0.5057420000000 1.0
C      1  0.5085780000000  0.4720100000000  0.5266550000000 1.0
C      1  0.5105050000000  0.5175010000000  0.5410310000000 1.0
C      1  0.4750000000000  0.5306950000000  0.5053400000000 1.0
C      1  0.5140030000000  0.5193870000000  0.4806290000000 1.0
C      1  0.4990240000000  0.4822660000000  0.4604710000000 1.0
C      1  0.4380500000000  0.4801670000000  0.5182460000000 1.0
C      1  0.4399090000000  0.4739820000000  0.4895560000000 1.0
C      1  0.4385610000000  0.4960170000000  0.4707520000000 1.0
C      1  0.4406200000000  0.5238920000000  0.4779910000000 1.0
C      1  0.4448060000000  0.5291190000000  0.5067780000000 1.0
C      1  0.4372570000000  0.5080910000000  0.5265050000000 1.0
C      1  0.5634340000000  0.5173960000000  0.5218420000000 1.0
C      1  0.5599810000000  0.5200850000000  0.4937070000000 1.0
C      1  0.5646290000000  0.5007310000000  0.4715940000000 1.0
C      1  0.5597460000000  0.4723960000000  0.4755090000000 1.0
C      1  0.5499680000000  0.4683600000000  0.5029500000000 1.0
C      1  0.5506570000000  0.4923270000000  0.5205850000000 1.0
C      1  0.5418260000000  0.4925390000000  0.5651560000000 1.0
C      1  0.5474360000000  0.4402730000000  0.5216180000000 1.0
C      1  0.5476930000000  0.4521810000000  0.4567910000000 1.0
C      1  0.5571430000000  0.5142640000000  0.4473530000000 1.0
C      1  0.5396840000000  0.5397220000000  0.4825780000000 1.0
C      1  0.5547440000000  0.5337070000000  0.5444550000000 1.0
C      1  0.4439680000000  0.5191320000000  0.5522970000000 1.0
C      1  0.4510400000000  0.5561880000000  0.5238330000000 1.0
C      1  0.4545640000000  0.5449430000000  0.4617570000000 1.0
C      1  0.4470480000000  0.4853800000000  0.4452390000000 1.0
C      1  0.4518860000000  0.4498790000000  0.4747030000000 1.0
C      1  0.4506500000000  0.4598760000000  0.5362710000000 1.0
C      1  0.4964400000000  0.4246580000000  0.4654540000000 1.0
C      1  0.5042020000000  0.4865740000000  0.4069120000000 1.0
C      1  0.5010780000000  0.5563830000000  0.4494420000000 1.0
C      1  0.4959980000000  0.5765100000000  0.5324090000000 1.0
C      1  0.5028340000000  0.5191010000000  0.5901490000000 1.0
C      1  0.4977770000000  0.4493710000000  0.5466070000000 1.0
C      1  0.5025120000000  0.5696680000000  0.4753830000000 1.0
C      1  0.5009110000000  0.5156130000000  0.4085730000000 1.0
C      1  0.5010750000000  0.4399960000000  0.4409630000000 1.0
C      1  0.4977130000000  0.4263470000000  0.5261460000000 1.0
C      1  0.5014070000000  0.4899240000000  0.5858220000000 1.0
C      1  0.4953890000000  0.5672370000000  0.5598420000000 1.0
END
