TITL C-110373-4516-10 -0.0184321050476624 125000 -130.295210827182 0 0 20 (Cs) n - 1
REM
REM in /rds/project/t2_vol4/rds-t2-cs072/BORA/CARBON/from-Arr/AIRSS/Generating-Clusters/GAP-ML-2020/Higher-Symm/SD-CG/HFTN-CG
REM
REM
REM
REM
REM
REM ./C.cell (b20cbc046b6831c77cfcea5457e17084)
REM AIRSS Version 0.9.1 bugfix July 2018 build 013d7b7c2542+ Fri, 06 Jul 2018 19:26:36 +0100
REM compiler GCC version 9.3.0
REM options -cpp -mtune=generic -march=x86-64 -g -O0
REM seed 1588836435 -1817476071 -1970659725 -1101633883 -910578436 -2135640495 1160438812 -585097858 1758696822 -278299202 -786002751 2050452421 -296529931 -866408670 -1325822629 416159693 1751208549 -451186812 -1631220236 598432127 1828958318 -499930645 861202527 -1830130732 -2008819918 -1310581642 297362262 -1875978753 -112602013 -638103352 -1620734382 1969830001 -1842523901
REM
CELL 1.54180   50.00000   50.00000   50.00000   90.00000   90.00000   90.00000
LATT -1
SFAC C  
C      1  0.5139890000000  0.4492600000000  0.5430990000000 1.0
C      1  0.4884460000000  0.4705950000000  0.4899900000000 1.0
C      1  0.5053490000000  0.4892980000000  0.4462460000000 1.0
C      1  0.5162160000000  0.5595640000000  0.4632690000000 1.0
C      1  0.5164340000000  0.5574090000000  0.5147390000000 1.0
C      1  0.4928640000000  0.4949980000000  0.5317280000000 1.0
C      1  0.5146210000000  0.5405090000000  0.5338350000000 1.0
C      1  0.4858120000000  0.5370730000000  0.4796370000000 1.0
C      1  0.5085740000000  0.5139960000000  0.4404870000000 1.0
C      1  0.5091820000000  0.4429030000000  0.4691240000000 1.0
C      1  0.5116250000000  0.4362080000000  0.5207760000000 1.0
C      1  0.5190550000000  0.4974350000000  0.5623930000000 1.0
C      1  0.5072420000000  0.4753190000000  0.5473870000000 1.0
C      1  0.5055010000000  0.5572470000000  0.4897990000000 1.0
C      1  0.5019360000000  0.4460110000000  0.4972600000000 1.0
C      1  0.5017390000000  0.5364700000000  0.4542630000000 1.0
C      1  0.4988670000000  0.4692200000000  0.4629230000000 1.0
C      1  0.5074740000000  0.5167570000000  0.5442270000000 1.0
C      1  0.4834060000000  0.4936570000000  0.5052760000000 1.0
C      1  0.4763000000000  0.5167530000000  0.4925250000000 1.0
END
