TITL C-114862-6499-7 -0.0780255333584436 125000 -472.537505171924 0 0 71 (C1) n - 1
REM
REM in /rds/project/t2_vol4/rds-t2-cs072/BORA/CARBON/from-Arr/AIRSS/Generating-Clusters/GAP-ML-2020/Higher-Symm/SD-CG/HFTN-CG
REM
REM
REM
REM
REM
REM ./C.cell (b20cbc046b6831c77cfcea5457e17084)
REM AIRSS Version 0.9.1 bugfix July 2018 build 013d7b7c2542+ Fri, 06 Jul 2018 19:26:36 +0100
REM compiler GCC version 9.3.0
REM options -cpp -mtune=generic -march=x86-64 -g -O0
REM seed 469611083 1485961590 1408966863 -619479839 -703624187 -1645715200 -1443474642 547590823 -928486354 -562457420 -174722512 -374804446 -1171832411 -1723880088 -1004938328 -945456799 -1741136203 634181120 25826743 1701884185 -1784705493 2074031995 1222243928 623506162 873097947 -998038331 -1793096747 -1498469541 940022287 -25157788 -1524307738 469561426 1776039357
REM
CELL 1.54180   50.00000   50.00000   50.00000   90.00000   90.00000   90.00000
LATT -1
SFAC C  
C      1  0.4511550000000  0.4842110000000  0.5729810000000 1.0
C      1  0.5572220000000  0.5289810000000  0.5506060000000 1.0
C      1  0.5467820000000  0.4853830000000  0.4350310000000 1.0
C      1  0.4606110000000  0.5330210000000  0.4427340000000 1.0
C      1  0.4717160000000  0.4647000000000  0.5667880000000 1.0
C      1  0.5330290000000  0.5339610000000  0.5637140000000 1.0
C      1  0.4800640000000  0.5529460000000  0.4481110000000 1.0
C      1  0.5282220000000  0.4632000000000  0.4390650000000 1.0
C      1  0.5116730000000  0.4351080000000  0.4729110000000 1.0
C      1  0.4838440000000  0.5648420000000  0.4734510000000 1.0
C      1  0.4789520000000  0.4331470000000  0.5244690000000 1.0
C      1  0.5006020000000  0.5572920000000  0.5162400000000 1.0
C      1  0.4396370000000  0.5023650000000  0.4767510000000 1.0
C      1  0.5584950000000  0.4933330000000  0.4592100000000 1.0
C      1  0.4450450000000  0.4938720000000  0.5460640000000 1.0
C      1  0.5585660000000  0.5154000000000  0.5252140000000 1.0
C      1  0.5272850000000  0.5464940000000  0.4794470000000 1.0
C      1  0.4819440000000  0.4461850000000  0.4725030000000 1.0
C      1  0.4719440000000  0.5556920000000  0.5205170000000 1.0
C      1  0.5081190000000  0.4373040000000  0.5225630000000 1.0
C      1  0.5654790000000  0.5186030000000  0.4726020000000 1.0
C      1  0.4438780000000  0.4735360000000  0.4747190000000 1.0
C      1  0.5636020000000  0.4839750000000  0.5306430000000 1.0
C      1  0.4369340000000  0.5182450000000  0.5300480000000 1.0
C      1  0.5054330000000  0.5293360000000  0.5557510000000 1.0
C      1  0.4927960000000  0.4825510000000  0.5801120000000 1.0
C      1  0.4983800000000  0.5360130000000  0.4307270000000 1.0
C      1  0.5048760000000  0.4713770000000  0.4252390000000 1.0
C      1  0.5499020000000  0.5143260000000  0.5741510000000 1.0
C      1  0.4687710000000  0.5001530000000  0.5899810000000 1.0
C      1  0.5214000000000  0.4955280000000  0.4274850000000 1.0
C      1  0.4742710000000  0.5211980000000  0.4187750000000 1.0
C      1  0.4766870000000  0.4754900000000  0.4336070000000 1.0
C      1  0.5242290000000  0.5475870000000  0.4196190000000 1.0
C      1  0.5187470000000  0.4789580000000  0.5898320000000 1.0
C      1  0.4771450000000  0.5379250000000  0.5634590000000 1.0
C      1  0.4697180000000  0.4955230000000  0.4140280000000 1.0
C      1  0.5446740000000  0.5454690000000  0.4354250000000 1.0
C      1  0.4692700000000  0.5263000000000  0.5865120000000 1.0
C      1  0.5421560000000  0.4865510000000  0.5773730000000 1.0
C      1  0.5194910000000  0.4875420000000  0.5394750000000 1.0
C      1  0.4733960000000  0.5061660000000  0.5389160000000 1.0
C      1  0.4853990000000  0.4936370000000  0.4552330000000 1.0
C      1  0.5236330000000  0.5001000000000  0.4928130000000 1.0
C      1  0.4858220000000  0.5093860000000  0.5125640000000 1.0
C      1  0.5034160000000  0.4671270000000  0.5253800000000 1.0
C      1  0.4966880000000  0.4743620000000  0.4753210000000 1.0
C      1  0.5110150000000  0.5220600000000  0.4762510000000 1.0
C      1  0.5075760000000  0.5301380000000  0.5253360000000 1.0
C      1  0.4722310000000  0.4583620000000  0.5382260000000 1.0
C      1  0.4812010000000  0.5241500000000  0.4871410000000 1.0
C      1  0.5242360000000  0.4608720000000  0.4676890000000 1.0
C      1  0.5290670000000  0.5108980000000  0.5199220000000 1.0
C      1  0.4476720000000  0.4709760000000  0.5287460000000 1.0
C      1  0.5453920000000  0.4794580000000  0.4815390000000 1.0
C      1  0.4639870000000  0.5134260000000  0.4652130000000 1.0
C      1  0.5660580000000  0.4813710000000  0.5030970000000 1.0
C      1  0.4341550000000  0.5062920000000  0.5046320000000 1.0
C      1  0.4379230000000  0.4763970000000  0.5029310000000 1.0
C      1  0.5718780000000  0.5114110000000  0.4986660000000 1.0
C      1  0.4692840000000  0.5508680000000  0.4929990000000 1.0
C      1  0.5093630000000  0.4233760000000  0.4977730000000 1.0
C      1  0.4786890000000  0.4285260000000  0.4960080000000 1.0
C      1  0.5096880000000  0.5652850000000  0.4902250000000 1.0
C      1  0.5446370000000  0.4776850000000  0.5505900000000 1.0
C      1  0.5505960000000  0.5414250000000  0.4630860000000 1.0
C      1  0.4615650000000  0.5361730000000  0.5387850000000 1.0
C      1  0.4608210000000  0.4586570000000  0.4567250000000 1.0
C      1  0.4981630000000  0.4998450000000  0.5561480000000 1.0
C      1  0.5068870000000  0.5127220000000  0.4470760000000 1.0
C      1  0.4995690000000  0.4847460000000  0.5021840000000 1.0
END
