TITL C-110353-337-9 30.2724576831676 125000 -385.694530286737 0 0 56 (C3h) n - 1
REM
REM in /rds/project/t2_vol4/rds-t2-cs072/BORA/CARBON/from-Arr/AIRSS/Generating-Clusters/GAP-ML-2020/Higher-Symm/SD-CG/HFTN-CG
REM
REM
REM
REM
REM
REM ./C.cell (b20cbc046b6831c77cfcea5457e17084)
REM AIRSS Version 0.9.1 bugfix July 2018 build 013d7b7c2542+ Fri, 06 Jul 2018 19:26:36 +0100
REM compiler GCC version 9.3.0
REM options -cpp -mtune=generic -march=x86-64 -g -O0
REM seed -601597619 1866924285 -1813390029 1656065529 756287857 1436424300 386924579 994657656 1915521539 -1684364316 -1402867813 -1616231625 -864693245 -953469133 671923277 2055158915 -2003594343 493111021 1674408380 -2111604790 119154141 1438042713 -408232965 -621496811 -1182213954 -1508129002 1545700322 -1769112093 -1770669708 -569974091 784761540 -608607361 327900894
REM
CELL 1.54180   50.00000   50.00000   50.00000   90.00000   90.00000   90.00000
LATT -1
SFAC C  
C      1  0.4563920000000  0.4786920000000  0.5366940000000 1.0
C      1  0.4563910000000  0.4787500000000  0.4626390000000 1.0
C      1  0.4563920000000  0.5428540000000  0.4997170000000 1.0
C      1  0.5439440000000  0.4786920000000  0.5366920000000 1.0
C      1  0.5439430000000  0.4787500000000  0.4626380000000 1.0
C      1  0.5439440000000  0.5428540000000  0.4997160000000 1.0
C      1  0.4767330000000  0.4378430000000  0.5143590000000 1.0
C      1  0.4767330000000  0.5185170000000  0.4384300000000 1.0
C      1  0.4767350000000  0.5439360000000  0.5462600000000 1.0
C      1  0.5236010000000  0.4378420000000  0.5143580000000 1.0
C      1  0.5236010000000  0.5185170000000  0.4384290000000 1.0
C      1  0.5236030000000  0.5439360000000  0.5462600000000 1.0
C      1  0.4849570000000  0.4269660000000  0.4897290000000 1.0
C      1  0.4849570000000  0.5452850000000  0.4413250000000 1.0
C      1  0.4849590000000  0.5280450000000  0.5679940000000 1.0
C      1  0.5153770000000  0.4269660000000  0.4897290000000 1.0
C      1  0.5153770000000  0.5452850000000  0.4413250000000 1.0
C      1  0.5153790000000  0.5280450000000  0.5679940000000 1.0
C      1  0.4476590000000  0.4749480000000  0.4899820000000 1.0
C      1  0.4476600000000  0.5210760000000  0.4827530000000 1.0
C      1  0.4476600000000  0.5042730000000  0.5263150000000 1.0
C      1  0.5526750000000  0.4749470000000  0.4899810000000 1.0
C      1  0.5526760000000  0.5210750000000  0.4827510000000 1.0
C      1  0.5526760000000  0.5042720000000  0.5263140000000 1.0
C      1  0.5153220000000  0.5619630000000  0.4640620000000 1.0
C      1  0.5153230000000  0.5000140000000  0.5710690000000 1.0
C      1  0.5153210000000  0.4383180000000  0.4639160000000 1.0
C      1  0.4850140000000  0.5619630000000  0.4640630000000 1.0
C      1  0.4850150000000  0.5000140000000  0.5710690000000 1.0
C      1  0.4850130000000  0.4383190000000  0.4639170000000 1.0
C      1  0.4768570000000  0.4776670000000  0.5560830000000 1.0
C      1  0.4768550000000  0.4624710000000  0.4520570000000 1.0
C      1  0.4768570000000  0.5601580000000  0.4909100000000 1.0
C      1  0.5234800000000  0.4776670000000  0.5560820000000 1.0
C      1  0.5234780000000  0.4624710000000  0.4520560000000 1.0
C      1  0.5234800000000  0.5601580000000  0.4909090000000 1.0
C      1  0.5390790000000  0.5304060000000  0.5258800000000 1.0
C      1  0.5390780000000  0.4622560000000  0.5128300000000 1.0
C      1  0.5390780000000  0.5076330000000  0.4603360000000 1.0
C      1  0.4612580000000  0.5304070000000  0.5258810000000 1.0
C      1  0.4612570000000  0.4622570000000  0.5128310000000 1.0
C      1  0.4612570000000  0.5076330000000  0.4603370000000 1.0
C      1  0.4853900000000  0.5103470000000  0.5140140000000 1.0
C      1  0.4853890000000  0.4825640000000  0.5013930000000 1.0
C      1  0.4853890000000  0.5073850000000  0.4836420000000 1.0
C      1  0.5149460000000  0.5103470000000  0.5140130000000 1.0
C      1  0.5149460000000  0.4825630000000  0.5013920000000 1.0
C      1  0.5149460000000  0.5073850000000  0.4836410000000 1.0
C      1  0.5001680000000  0.4407210000000  0.5315500000000 1.0
C      1  0.5001690000000  0.5573850000000  0.5351720000000 1.0
C      1  0.5001670000000  0.5021900000000  0.4323270000000 1.0
C      1  0.5001680000000  0.5636800000000  0.5077730000000 1.0
C      1  0.5001670000000  0.4753150000000  0.4405750000000 1.0
C      1  0.5001680000000  0.4613020000000  0.5507000000000 1.0
C      1  0.5600730000000  0.5000980000000  0.4996820000000 1.0
C      1  0.4402620000000  0.5000990000000  0.4996840000000 1.0
END
