TITL C-114834-6442-8 -63.4796628767171 125000 -235.539731880404 0 0 35 (C3) n - 1
REM
REM in /rds/project/t2_vol4/rds-t2-cs072/BORA/CARBON/from-Arr/AIRSS/Generating-Clusters/GAP-ML-2020/Higher-Symm/SD-CG/HFTN-CG
REM
REM
REM
REM
REM
REM ./C.cell (b20cbc046b6831c77cfcea5457e17084)
REM AIRSS Version 0.9.1 bugfix July 2018 build 013d7b7c2542+ Fri, 06 Jul 2018 19:26:36 +0100
REM compiler GCC version 9.3.0
REM options -cpp -mtune=generic -march=x86-64 -g -O0
REM seed 1146265697 -2016563350 1057103798 1923128233 2089116750 1446318127 -438728339 -1435237968 1622354114 1835048457 239562137 -2054815874 -675410765 -517199971 832923308 227583832 -825470685 1759574266 878905641 817826295 763563110 424875735 1325428083 -1341450302 794026071 -1181499430 1163480223 13895989 2132083591 2033177217 68027163 1381787375 -537065884
REM
CELL 1.54180   50.00000   50.00000   50.00000   90.00000   90.00000   90.00000
LATT -1
SFAC C  
C      1  0.5172600000000  0.4928680000000  0.5355790000000 1.0
C      1  0.4871750000000  0.4897470000000  0.5355800000000 1.0
C      1  0.4995150000000  0.5173620000000  0.5355830000000 1.0
C      1  0.5489170000000  0.4946770000000  0.4969370000000 1.0
C      1  0.4729060000000  0.4614310000000  0.4969370000000 1.0
C      1  0.4821190000000  0.5438820000000  0.4969470000000 1.0
C      1  0.5286430000000  0.5281890000000  0.4704610000000 1.0
C      1  0.5120600000000  0.4622370000000  0.4704540000000 1.0
C      1  0.4632350000000  0.5095740000000  0.4704620000000 1.0
C      1  0.5614990000000  0.5129380000000  0.5154850000000 1.0
C      1  0.4824320000000  0.4414020000000  0.5154810000000 1.0
C      1  0.4600140000000  0.5456440000000  0.5154950000000 1.0
C      1  0.5087460000000  0.4350890000000  0.5091750000000 1.0
C      1  0.4413890000000  0.5260130000000  0.5091900000000 1.0
C      1  0.5538100000000  0.5388840000000  0.5091850000000 1.0
C      1  0.5290650000000  0.5381630000000  0.4972920000000 1.0
C      1  0.5204920000000  0.4568810000000  0.4972830000000 1.0
C      1  0.4543860000000  0.5049470000000  0.4972930000000 1.0
C      1  0.4771320000000  0.4877910000000  0.5084440000000 1.0
C      1  0.5028360000000  0.5270410000000  0.5084470000000 1.0
C      1  0.5239760000000  0.4851550000000  0.5084410000000 1.0
C      1  0.5410930000000  0.5022890000000  0.4703520000000 1.0
C      1  0.4834040000000  0.4644050000000  0.4703510000000 1.0
C      1  0.4794400000000  0.5333070000000  0.4703600000000 1.0
C      1  0.4747510000000  0.4478490000000  0.5423510000000 1.0
C      1  0.4694420000000  0.5490690000000  0.5423640000000 1.0
C      1  0.5597560000000  0.5030570000000  0.5423530000000 1.0
C      1  0.5037170000000  0.5268570000000  0.4568640000000 1.0
C      1  0.5233670000000  0.4844910000000  0.4568570000000 1.0
C      1  0.4768510000000  0.4886570000000  0.4568600000000 1.0
C      1  0.4730690000000  0.4706820000000  0.5536300000000 1.0
C      1  0.4900600000000  0.5391080000000  0.5536370000000 1.0
C      1  0.5408230000000  0.4901800000000  0.5536280000000 1.0
C      1  0.5013110000000  0.5000030000000  0.4461370000000 1.0
C      1  0.5013140000000  0.4999970000000  0.4959430000000 1.0
END
