TITL C-116609-5956-7 -20.897907600503 125000 -1202.80660683849 0 0 176 (C1) n - 1
REM
REM in /rds/project/t2_vol4/rds-t2-cs072/BORA/CARBON/from-Arr/AIRSS/Generating-Clusters/GAP-ML-2020/Higher-Symm/SD-CG/HFTN-CG
REM
REM
REM
REM
REM
REM ./C.cell (b20cbc046b6831c77cfcea5457e17084)
REM AIRSS Version 0.9.1 bugfix July 2018 build 013d7b7c2542+ Fri, 06 Jul 2018 19:26:36 +0100
REM compiler GCC version 9.3.0
REM options -cpp -mtune=generic -march=x86-64 -g -O0
REM seed -1790481750 1611007452 1847402815 -495189268 -2085465642 683013813 -2020598062 -1174232112 620984822 -1592408944 390934969 1689194949 1502909912 -1800037289 1218557746 921558722 -1835237717 -520002107 663005124 96370249 1321594587 1511083039 -849395422 463580493 1105086946 -874364210 -1087321087 1587651833 1841666954 -772466946 288214591 -57258084 -1170970143
REM
CELL 1.54180   50.00000   50.00000   50.00000   90.00000   90.00000   90.00000
LATT -1
SFAC C  
C      1  0.3795170000000  0.4738420000000  0.5167440000000 1.0
C      1  0.4453620000000  0.3893990000000  0.5164130000000 1.0
C      1  0.5515200000000  0.3888410000000  0.5162280000000 1.0
C      1  0.6197540000000  0.4712030000000  0.5167780000000 1.0
C      1  0.5971630000000  0.5757780000000  0.5170010000000 1.0
C      1  0.5015450000000  0.6227510000000  0.5168750000000 1.0
C      1  0.4048030000000  0.5778310000000  0.5169280000000 1.0
C      1  0.4403670000000  0.4387300000000  0.4303660000000 1.0
C      1  0.5109230000000  0.4162330000000  0.4305660000000 1.0
C      1  0.5727720000000  0.4565680000000  0.4303260000000 1.0
C      1  0.5793830000000  0.5298690000000  0.4306690000000 1.0
C      1  0.5257600000000  0.5798880000000  0.4308680000000 1.0
C      1  0.4533660000000  0.5701210000000  0.4308910000000 1.0
C      1  0.4149120000000  0.5078070000000  0.4305360000000 1.0
C      1  0.4492090000000  0.5267090000000  0.5412750000000 1.0
C      1  0.4472300000000  0.4770310000000  0.5412030000000 1.0
C      1  0.4850040000000  0.4447630000000  0.5407040000000 1.0
C      1  0.5339060000000  0.4540990000000  0.5407910000000 1.0
C      1  0.5573920000000  0.4978600000000  0.5412370000000 1.0
C      1  0.5374810000000  0.5434200000000  0.5412930000000 1.0
C      1  0.4893540000000  0.5561330000000  0.5412140000000 1.0
C      1  0.5677210000000  0.5524730000000  0.4478150000000 1.0
C      1  0.5009480000000  0.5849560000000  0.4481000000000 1.0
C      1  0.4335150000000  0.5540870000000  0.4479240000000 1.0
C      1  0.4152470000000  0.4821900000000  0.4473690000000 1.0
C      1  0.4609110000000  0.4232150000000  0.4471050000000 1.0
C      1  0.5360660000000  0.4225810000000  0.4472130000000 1.0
C      1  0.5834640000000  0.4797230000000  0.4473740000000 1.0
C      1  0.4071930000000  0.4899010000000  0.4770460000000 1.0
C      1  0.4499110000000  0.4214100000000  0.4768630000000 1.0
C      1  0.5301900000000  0.4129060000000  0.4766510000000 1.0
C      1  0.5878020000000  0.4690950000000  0.4770030000000 1.0
C      1  0.5790990000000  0.5493650000000  0.4772860000000 1.0
C      1  0.5106760000000  0.5920470000000  0.4773320000000 1.0
C      1  0.4344680000000  0.5657620000000  0.4772960000000 1.0
C      1  0.4137410000000  0.4465480000000  0.5317150000000 1.0
C      1  0.4880680000000  0.3995700000000  0.5312730000000 1.0
C      1  0.5710080000000  0.4280020000000  0.5316130000000 1.0
C      1  0.6008980000000  0.5106870000000  0.5319830000000 1.0
C      1  0.5543950000000  0.5854190000000  0.5319960000000 1.0
C      1  0.4671390000000  0.5956160000000  0.5319770000000 1.0
C      1  0.4044720000000  0.5340090000000  0.5320080000000 1.0
C      1  0.4885650000000  0.4674040000000  0.5606290000000 1.0
C      1  0.5183010000000  0.4709060000000  0.5606370000000 1.0
C      1  0.5343430000000  0.4961560000000  0.5609540000000 1.0
C      1  0.5243920000000  0.5243830000000  0.5610310000000 1.0
C      1  0.4960430000000  0.5341030000000  0.5610100000000 1.0
C      1  0.4706430000000  0.5181840000000  0.5610470000000 1.0
C      1  0.4672880000000  0.4884460000000  0.5609190000000 1.0
C      1  0.5283210000000  0.4811140000000  0.4021960000000 1.0
C      1  0.5321510000000  0.5101700000000  0.4027500000000 1.0
C      1  0.5114100000000  0.5304950000000  0.4039980000000 1.0
C      1  0.4825400000000  0.5277380000000  0.4042410000000 1.0
C      1  0.4660070000000  0.5039350000000  0.4032990000000 1.0
C      1  0.4750600000000  0.4762130000000  0.4025630000000 1.0
C      1  0.5027930000000  0.4662290000000  0.4025650000000 1.0
C      1  0.5538320000000  0.6021830000000  0.4562380000000 1.0
C      1  0.4536170000000  0.6057740000000  0.4562580000000 1.0
C      1  0.3877760000000  0.5299690000000  0.4563430000000 1.0
C      1  0.4067430000000  0.4312150000000  0.4559430000000 1.0
C      1  0.4960080000000  0.3853790000000  0.4554030000000 1.0
C      1  0.5878910000000  0.4246950000000  0.4559920000000 1.0
C      1  0.6137180000000  0.5215770000000  0.4563230000000 1.0
C      1  0.4439120000000  0.5082630000000  0.4241760000000 1.0
C      1  0.4579900000000  0.4617260000000  0.4234480000000 1.0
C      1  0.5039050000000  0.4443950000000  0.4240060000000 1.0
C      1  0.5464940000000  0.4684570000000  0.4231540000000 1.0
C      1  0.5536510000000  0.5167930000000  0.4235860000000 1.0
C      1  0.5199670000000  0.5514560000000  0.4245200000000 1.0
C      1  0.4718390000000  0.5476630000000  0.4248300000000 1.0
C      1  0.6044650000000  0.5311310000000  0.4803090000000 1.0
C      1  0.5406490000000  0.6007940000000  0.4802870000000 1.0
C      1  0.4465200000000  0.5944950000000  0.4803020000000 1.0
C      1  0.3923280000000  0.5173160000000  0.4802840000000 1.0
C      1  0.4193000000000  0.4268750000000  0.4799360000000 1.0
C      1  0.5070910000000  0.3921900000000  0.4796040000000 1.0
C      1  0.5891440000000  0.4380360000000  0.4799680000000 1.0
C      1  0.4153770000000  0.4509000000000  0.4396810000000 1.0
C      1  0.4855380000000  0.4044380000000  0.4394840000000 1.0
C      1  0.5667250000000  0.4297220000000  0.4399420000000 1.0
C      1  0.5963770000000  0.5080900000000  0.4404170000000 1.0
C      1  0.5534230000000  0.5801240000000  0.4404210000000 1.0
C      1  0.4705250000000  0.5916930000000  0.4404220000000 1.0
C      1  0.4089440000000  0.5347370000000  0.4401890000000 1.0
C      1  0.4480140000000  0.4856890000000  0.5884320000000 1.0
C      1  0.4786030000000  0.4504800000000  0.5881330000000 1.0
C      1  0.5251620000000  0.4523850000000  0.5881190000000 1.0
C      1  0.5527420000000  0.4899990000000  0.5883470000000 1.0
C      1  0.5405750000000  0.5350240000000  0.5885390000000 1.0
C      1  0.4977500000000  0.5534880000000  0.5885150000000 1.0
C      1  0.4565900000000  0.5315450000000  0.5884780000000 1.0
C      1  0.5648480000000  0.5165930000000  0.5817520000000 1.0
C      1  0.5272860000000  0.5609830000000  0.5818110000000 1.0
C      1  0.4692110000000  0.5593190000000  0.5817310000000 1.0
C      1  0.4341920000000  0.5128730000000  0.5817100000000 1.0
C      1  0.4487660000000  0.4565650000000  0.5814880000000 1.0
C      1  0.5018090000000  0.4329570000000  0.5812110000000 1.0
C      1  0.5533890000000  0.4595240000000  0.5813900000000 1.0
C      1  0.5288930000000  0.4251340000000  0.5439340000000 1.0
C      1  0.5770190000000  0.4759110000000  0.5447260000000 1.0
C      1  0.5668720000000  0.5451470000000  0.5448980000000 1.0
C      1  0.5063550000000  0.5801580000000  0.5447310000000 1.0
C      1  0.4410950000000  0.5549590000000  0.5447430000000 1.0
C      1  0.4200400000000  0.4882220000000  0.5446960000000 1.0
C      1  0.4593200000000  0.4303400000000  0.5442450000000 1.0
C      1  0.3945360000000  0.4674220000000  0.4946370000000 1.0
C      1  0.4597750000000  0.3975080000000  0.4943360000000 1.0
C      1  0.5547330000000  0.4052200000000  0.4943350000000 1.0
C      1  0.6090700000000  0.4836880000000  0.4947250000000 1.0
C      1  0.5807420000000  0.5750540000000  0.4949040000000 1.0
C      1  0.4917400000000  0.6094090000000  0.4948490000000 1.0
C      1  0.4090390000000  0.5618840000000  0.4948940000000 1.0
C      1  0.4665320000000  0.5154370000000  0.5174690000000 1.0
C      1  0.4667940000000  0.4837480000000  0.5174100000000 1.0
C      1  0.4920980000000  0.4645410000000  0.5169640000000 1.0
C      1  0.5231060000000  0.4720690000000  0.5172090000000 1.0
C      1  0.5369480000000  0.5006850000000  0.5173470000000 1.0
C      1  0.5227120000000  0.5289800000000  0.5173810000000 1.0
C      1  0.4914270000000  0.5354500000000  0.5174350000000 1.0
C      1  0.5336490000000  0.4606320000000  0.4915780000000 1.0
C      1  0.5531290000000  0.5018130000000  0.4917520000000 1.0
C      1  0.5315960000000  0.5417270000000  0.4914060000000 1.0
C      1  0.4871490000000  0.5500090000000  0.4914650000000 1.0
C      1  0.4521130000000  0.5213320000000  0.4917740000000 1.0
C      1  0.4527030000000  0.4758650000000  0.4919800000000 1.0
C      1  0.4895700000000  0.4493170000000  0.4908990000000 1.0
C      1  0.4734050000000  0.5192060000000  0.6090540000000 1.0
C      1  0.4681460000000  0.4911200000000  0.6089880000000 1.0
C      1  0.4868340000000  0.4695150000000  0.6088220000000 1.0
C      1  0.5153610000000  0.4706600000000  0.6088110000000 1.0
C      1  0.5322640000000  0.4936860000000  0.6089540000000 1.0
C      1  0.5248240000000  0.5212680000000  0.6090640000000 1.0
C      1  0.4986210000000  0.5326190000000  0.6090740000000 1.0
C      1  0.4464080000000  0.4828000000000  0.4413210000000 1.0
C      1  0.4794110000000  0.4479500000000  0.4408330000000 1.0
C      1  0.5287910000000  0.4528260000000  0.4409850000000 1.0
C      1  0.5553280000000  0.4931690000000  0.4410210000000 1.0
C      1  0.5396960000000  0.5380710000000  0.4417170000000 1.0
C      1  0.4947640000000  0.5539210000000  0.4423480000000 1.0
C      1  0.4534640000000  0.5298990000000  0.4421780000000 1.0
C      1  0.5022350000000  0.4209470000000  0.5504860000000 1.0
C      1  0.5632940000000  0.4524700000000  0.5508230000000 1.0
C      1  0.5767950000000  0.5199050000000  0.5511890000000 1.0
C      1  0.5322290000000  0.5722990000000  0.5511710000000 1.0
C      1  0.4634980000000  0.5701610000000  0.5511050000000 1.0
C      1  0.4221070000000  0.5152240000000  0.5511450000000 1.0
C      1  0.4394200000000  0.4486310000000  0.5508880000000 1.0
C      1  0.4087620000000  0.4421170000000  0.5024150000000 1.0
C      1  0.4885140000000  0.3930220000000  0.5020240000000 1.0
C      1  0.5764380000000  0.4243390000000  0.5023620000000 1.0
C      1  0.6074110000000  0.5126560000000  0.5027180000000 1.0
C      1  0.5569080000000  0.5916500000000  0.5027330000000 1.0
C      1  0.4638820000000  0.6013590000000  0.5027160000000 1.0
C      1  0.3978240000000  0.5351260000000  0.5027410000000 1.0
C      1  0.5619670000000  0.4741020000000  0.4911250000000 1.0
C      1  0.5590580000000  0.5321230000000  0.4910280000000 1.0
C      1  0.5118400000000  0.5653670000000  0.4907250000000 1.0
C      1  0.4562180000000  0.5499270000000  0.4905940000000 1.0
C      1  0.4330100000000  0.4968180000000  0.4906170000000 1.0
C      1  0.4605760000000  0.4455830000000  0.4910590000000 1.0
C      1  0.5174810000000  0.4365490000000  0.4900190000000 1.0
C      1  0.5242050000000  0.5257400000000  0.4663760000000 1.0
C      1  0.4946690000000  0.5334690000000  0.4664860000000 1.0
C      1  0.4688570000000  0.5171260000000  0.4664250000000 1.0
C      1  0.4648360000000  0.4869880000000  0.4661140000000 1.0
C      1  0.4855800000000  0.4660310000000  0.4646030000000 1.0
C      1  0.5237390000000  0.4723260000000  0.4651370000000 1.0
C      1  0.5373100000000  0.4984100000000  0.4660370000000 1.0
C      1  0.4943220000000  0.6042810000000  0.5366070000000 1.0
C      1  0.4147440000000  0.5606190000000  0.5366250000000 1.0
C      1  0.3992430000000  0.4710890000000  0.5364340000000 1.0
C      1  0.4597750000000  0.4033780000000  0.5359580000000 1.0
C      1  0.5501790000000  0.4085190000000  0.5360640000000 1.0
C      1  0.6032130000000  0.4822400000000  0.5365110000000 1.0
C      1  0.5781740000000  0.5696220000000  0.5366490000000 1.0
C      1  0.5022150000000  0.4845790000000  0.4530260000000 1.0
END
